data_mof_unit_68382.cif
_audit_creation_date              2013-03-05T16:43:31-0500
_audit_creation_method            fapswitch 2.2
_symmetry_space_group_name_H-M    P1
_symmetry_Int_Tables_number       1
_space_group_crystal_system       triclinic
_cell_length_a                    10.562401
_cell_length_b                    10.844447
_cell_length_c                    9.96511
_cell_angle_alpha                 88.702961
_cell_angle_beta                  86.900684
_cell_angle_gamma                 94.670041
_cell_volume                      1135.56477946

loop_
_atom_site_label
_atom_site_type_symbol
_atom_site_description
_atom_site_fract_x
_atom_site_fract_y
_atom_site_fract_z
_atom_type_partial_charge
O1    O     O_R   0.500020 0.316790 0.614690 -0.585018
O2    O     O_R   0.500000 0.316760 0.385350 -0.590271
C1    C     C_R   0.501157 0.260677 0.500357 0.981897
O3    O     O_R   0.313960 0.499990 0.614650 -0.537806
O4    O     O_R   0.313940 0.499950 0.385310 -0.611319
C2    C     C_R   0.258104 0.503172 0.502241 0.996979
Zn1   Zn    Zn3+2 0.500010 0.500020 0.653130 1.055308
Zn2   Zn    Zn3+2 0.499990 0.499980 0.346870 1.074860
O5    O     O_R   0.500000 0.683240 0.614650 -0.592612
O6    O     O_R   0.499980 0.683210 0.385310 -0.553076
O7    O     O_R   0.686060 0.500050 0.614690 -0.663359
O8    O     O_R   0.686040 0.500010 0.385350 -0.553820
C3    C     C_R   0.505312 0.739823 0.498616 0.939806
C4    C     C_R   0.742271 0.500193 0.496948 1.009793
C5    C     C_3   0.035425 0.568219 0.603400 0.483025
C6    C     C_3   0.944577 0.448566 0.612766 -0.345766
H1    H     H_    0.896319 0.401827 0.704197 0.211950
C7    C     C_3   0.877065 0.500671 0.492019 -0.331617
C8    C     C_3   0.968496 0.619897 0.484592 0.321487
C9    C     C_3   0.054704 0.556723 0.382279 0.274692
C10   C     C_3   0.963772 0.437650 0.390283 0.398493
C11   C     C_3   0.032629 0.388973 0.509567 0.239425
C12   C     C_3   0.123591 0.506251 0.503051 -0.333652
C13   C     C_R   0.467334 0.057819 0.613273 -0.072906
C14   C     C_R   0.501909 0.128959 0.497372 -0.216143
C15   C     C_R   0.532803 0.069353 0.376255 0.208598
C16   C     C_R   0.546961 0.943090 0.379859 0.388176
C17   C     C_R   0.507870 0.872119 0.496775 -0.305759
C18   C     C_R   0.469022 0.931759 0.612246 -0.081857
C19   C     C_3   0.506609 0.925931 0.756106 0.901865
C20   C     C_3   0.508382 0.068555 0.754471 0.198990
H2    H     H_    0.434815 0.106644 0.821189 0.158510
C21   C     C_R   0.439356 0.404497 0.077899 0.129275
N1    N     N_R   0.499140 0.499140 0.142800 -0.135004
C22   C     C_R   0.573540 0.587222 0.061613 0.300619
C23   C     C_R   0.573324 0.584550 0.918983 -0.134589
H3    H     H_    0.632427 0.651316 0.856616 0.219673
N2    N     N_R   0.499140 0.499180 0.857150 -0.133500
C24   C     C_R   0.437147 0.405021 0.936488 0.062937
C25   C     C_3   0.297544 0.360617 0.948064 0.697224
C26   C     C_3   0.304447 0.357810 0.101395 -0.596403
H4    H     H_    0.246659 0.425327 0.153045 0.247403
H5    H     H_    0.296403 0.264578 0.150674 0.237195
O9    O     O_3   0.623862 0.876012 0.784799 -0.603282
C27   C     C_3   0.724966 0.896801 0.685767 -0.264310
H6    H     H_    0.717631 0.976371 0.615664 0.182509
H7    H     H_    0.733060 0.811593 0.627840 0.182589
H8    H     H_    0.814758 0.914907 0.737376 0.197297
O10   O     O_3   0.631173 0.131639 0.754336 -0.618319
C28   C     C_3   0.663335 0.156482 0.886696 -0.146520
H9    H     H_    0.665277 0.069828 0.947800 0.216998
H10   H     H_    0.597846 0.219423 0.934636 0.190292
H11   H     H_    0.760413 0.204336 0.883297 0.165605
N3    N     N_R   0.653108 0.685259 0.115365 0.213617
O11   O     O_R   0.713148 0.666605 0.222291 -0.402938
O12   O     O_R   0.692754 0.781299 0.039268 -0.431252
N4    N     N_R   0.216118 0.452981 0.899384 0.216505
O13   O     O_R   0.114044 0.417528 0.839067 -0.393802
O14   O     O_R   0.237217 0.568992 0.928617 -0.395179
O15   O     O_3   0.275325 0.243781 0.888322 -0.605863
C29   C     C_3   0.166571 0.173904 0.947702 -0.191488
H12   H     H_    0.092174 0.231118 0.990345 0.170594
H13   H     H_    0.195225 0.111173 0.027989 0.143093
H14   H     H_    0.123065 0.115033 0.870108 0.215577
O16   O     O_3   0.079643 0.639567 0.710594 -0.527331
C30   C     C_3   0.975780 0.661987 0.799423 -0.144905
H15   H     H_    0.945127 0.578511 0.863290 0.171386
H16   H     H_    0.893258 0.692164 0.746186 0.135979
H17   H     H_    0.006465 0.737551 0.866546 0.169390
O17   O     O_3   0.925884 0.739033 0.471188 -0.661453
C31   C     C_3   0.024495 0.830325 0.495994 -0.272699
H18   H     H_    0.121680 0.803159 0.467498 0.187000
H19   H     H_    0.019200 0.854916 0.603398 0.201011
H20   H     H_    0.010369 0.915106 0.436217 0.201482
O18   O     O_3   0.126136 0.607253 0.266720 -0.594232
C32   C     C_3   0.061560 0.697070 0.199754 -0.250930
H21   H     H_    0.097253 0.790869 0.229490 0.175827
H22   H     H_    0.956543 0.685056 0.216144 0.203597
H23   H     H_    0.083700 0.691276 0.090339 0.204288
O19   O     O_3   0.917466 0.354604 0.293350 -0.541995
C33   C     C_3   0.918953 0.413515 0.166220 -0.161810
H24   H     H_    0.876559 0.346840 0.095108 0.180800
H25   H     H_    0.017760 0.440474 0.126748 0.185030
H26   H     H_    0.860112 0.493530 0.168315 0.177774
N5    N     N_R   0.074088 0.264455 0.523242 0.223489
O20   O     O_R   0.050592 0.183259 0.431886 -0.400005
O21   O     O_R   0.138862 0.235272 0.624806 -0.365018
N6    N     N_R   0.561139 0.135157 0.250403 0.233179
O22   O     O_R   0.666266 0.205861 0.229523 -0.399358
O23   O     O_R   0.486930 0.114490 0.152194 -0.486588
O24   O     O_3   0.618375 0.895034 0.276752 -0.537089
C34   C     C_3   0.748334 0.922615 0.301849 -0.103607
H27   H     H_    0.772086 0.870790 0.392425 0.172934
H28   H     H_    0.773983 0.022849 0.314901 0.165835
H29   H     H_    0.809550 0.894813 0.215960 0.221242
O25   O     O_3   0.402936 0.863937 0.833607 -0.614878
C35   C     C_3   0.409549 0.886172 0.972144 -0.165118
H30   H     H_    0.350986 0.963057 0.999156 0.157232
H31   H     H_    0.507503 0.907336 0.004579 0.238012
H32   H     H_    0.368321 0.802246 0.029648 0.216107

loop_
_geom_bond_atom_site_label_1
_geom_bond_atom_site_label_2
_geom_bond_distance
_ccdc_geom_bond_type
C30   H16   1.112142 S    
C25   O15   1.419748 S    
C7    C10   1.538353 S    
C26   H4    1.108802 S    
C4    C7    1.421516 S    
C8    C9    1.539732 S    
C32   H23   1.106973 S    
C35   H32   1.109597 S    
C35   H30   1.107435 S    
C27   H6    1.108180 S    
Zn1   O7    1.981660 S    
C15   C16   1.389315 A    
C21   C24   1.410516 A    
C23   H3    1.079021 S    
C32   H22   1.109028 S    
N1    C22   1.399476 A    
O4    C2    1.279718 A    
O7    C4    1.285932 A    
N4    O14   1.302014 A    
C30   H17   1.108588 S    
C5    C6    1.547664 S    
C5    O16   1.410802 S    
C7    C8    1.547401 S    
C11   N5    1.458814 S    
C29   H13   1.108861 S    
O5    C3    1.293038 A    
C13   C18   1.368880 A    
C19   O25   1.418696 S    
C33   H25   1.109088 S    
C22   C23   1.422392 A    
C6    H1    1.110705 S    
C28   H10   1.108371 S    
C3    C17   1.432407 S    
C16   O24   1.378660 S    
O17   C31   1.413187 S    
N6    O22   1.301273 A    
C5    C12   1.533108 S    
C30   H15   1.110524 S    
C10   C11   1.532373 S    
C22   N3    1.432663 S    
C26   H5    1.108871 S    
C19   O9    1.431466 S    
C20   O10   1.416138 S    
O3    Zn1   2.022419 S    
C35   H31   1.108353 S    
C28   H9    1.110337 S    
C27   H7    1.107271 S    
N2    C24   1.376617 A    
N3    O12   1.301538 A    
C28   H11   1.109348 S    
N5    O21   1.299319 A    
C1    C14   1.430056 S    
C13   C14   1.389485 A    
O3    C2    1.295015 A    
C24   C25   1.510932 S    
C31   H19   1.108439 S    
C14   C15   1.417070 A    
N5    O20   1.300321 A    
C34   H29   1.106853 S    
C33   H24   1.109168 S    
C9    O18   1.416253 S    
O15   C29   1.417162 S    
O1    C1    1.303696 A    
C29   H14   1.108893 S    
C5    C8    1.529872 S    
O18   C32   1.409691 S    
C18   C19   1.509395 S    
C31   H20   1.108851 S    
C20   H2    1.106921 S    
C9    C12   1.551497 S    
Zn2   O8    2.022420 S    
O25   C35   1.411260 S    
C34   H28   1.110892 S    
C21   N1    1.356136 A    
C6    C7    1.550229 S    
Zn2   N1    2.034308 S    
C32   H21   1.108111 S    
Zn2   O6    2.032118 S    
C25   C26   1.533360 S    
O8    C4    1.288729 A    
O16   C30   1.412219 S    
O24   C34   1.417715 S    
C33   H26   1.107645 S    
O9    C27   1.414886 S    
C27   H8    1.108846 S    
Zn1   O5    2.015051 S    
N3    O11   1.289432 A    
C17   C18   1.391617 A    
C6    C11   1.537765 S    
C25   N4    1.463460 S    
O1    Zn1   2.032118 S    
O2    Zn2   2.015051 S    
N6    O23   1.298720 A    
O19   C33   1.404599 S    
O6    C3    1.299076 A    
O4    Zn2   1.981660 S    
C21   C26   1.477413 S    
C23   N2    1.345600 A    
O2    C1    1.286334 A    
C13   C20   1.498830 S    
C31   H18   1.114743 S    
N4    O13   1.297895 A    
C19   C20   1.544975 S    
C2    C12   1.423483 S    
C10   O19   1.414952 S    
C34   H27   1.103617 S    
Zn1   N2    2.032417 S    
C29   H12   1.112764 S    
C9    C10   1.543171 S    
C15   N6    1.433795 S    
O10   C28   1.406175 S    
C16   C17   1.405660 A    
C11   C12   1.528191 S    
C8    O17   1.408175 S    
