data_mof_unit_59121.cif
_audit_creation_date              2012-12-10T16:50:03-0500
_audit_creation_method            fapswitch 2.2
_symmetry_space_group_name_H-M    P1
_symmetry_Int_Tables_number       1
_space_group_crystal_system       triclinic
_cell_length_a                    7.809099
_cell_length_b                    8.55803
_cell_length_c                    10.595319
_cell_angle_alpha                 91.335868
_cell_angle_beta                  85.371006
_cell_angle_gamma                 93.614216
_cell_volume                      704.258879569

loop_
_atom_site_label
_atom_site_type_symbol
_atom_type_description
_atom_site_fract_x
_atom_site_fract_y
_atom_site_fract_z
_atom_type_partial_charge
C1    C     C_R   0.545622 0.794567 0.496882 0.930207
C2    C     C_R   0.454390 0.205431 0.503097 0.961349
C3    C     C_R   0.499209 0.502761 0.260775 0.857491
C4    C     C_R   0.421651 0.788724 0.878419 -0.180671
C5    C     C_R   0.379407 0.922277 0.949287 -0.137217
C6    C     C_R   0.375288 0.921085 0.080855 -0.139637
C7    C     C_R   0.413435 0.786350 0.141949 -0.177987
C8    C     C_R   0.455701 0.649697 0.071429 0.093676
C9    C     C_R   0.459845 0.650922 0.939071 0.093940
C10   C     C_R   0.506457 0.514242 0.871361 -0.085855
C11   C     C_R   0.553835 0.381862 0.930048 -0.210196
C12   C     C_R   0.549955 0.380682 0.059116 -0.218718
C13   C     C_R   0.498799 0.511893 0.128614 -0.088491
C14   C     C_2   0.569575 0.958123 0.494892 -0.384763
C15   C     C_2   0.430412 0.041854 0.504830 -0.402378
C16   C     C_R   0.502004 0.503978 0.739193 0.856242
H1    H     H_    0.590127 0.278367 0.875776 0.149462
H2    H     H_    0.998597 0.377818 0.292977 0.184741
H3    H     H_    0.975489 0.241726 0.405615 0.170256
H4    H     H_    0.986959 0.618981 0.594649 0.172395
H5    H     H_    0.426428 0.795240 0.776383 0.141985
H6    H     H_    0.350953 0.027252 0.901953 0.138906
H7    H     H_    0.343584 0.025123 0.135717 0.135764
H8    H     H_    0.411312 0.791072 0.244052 0.148698
H9    H     H_    0.584746 0.276693 0.105267 0.147563
H10   H     H_    0.701055 0.009068 0.485304 0.179914
H11   H     H_    0.298929 0.990902 0.514344 0.181742
N1    N     N_2   0.950330 0.457950 0.466250 -0.046782
N2    N     N_2   0.049670 0.542050 0.533750 -0.119321
N3    N     N_3   0.031336 0.352963 0.383752 -0.303882
O1    O     O_R   0.389250 0.738570 0.508280 -0.625570
O2    O     O_R   0.678390 0.711630 0.486650 -0.630355
O3    O     O_R   0.355400 0.513470 0.694050 -0.617054
O4    O     O_R   0.644540 0.486530 0.672420 -0.624281
O5    O     O_R   0.321610 0.288370 0.513350 -0.605677
O6    O     O_R   0.610750 0.261430 0.491720 -0.620667
O7    O     O_R   0.355460 0.513470 0.327580 -0.607061
O8    O     O_R   0.644600 0.486530 0.305950 -0.618297
Zn1   Zn    Zn3+2 0.306930 0.517990 0.514440 0.957570
Zn2   Zn    Zn3+2 0.693070 0.482010 0.485560 0.942959

loop_
_geom_bond_atom_site_label_1
_geom_bond_atom_site_label_2
_ccdc_geom_bond_type
C2    O5    A    
C8    C9    A    
O5    Zn1   S    
C11   C12   A    
C6    C7    A    
C4    H5    S    
C16   O3    A    
C9    C10   A    
C15   H11   S    
C3    C13   S    
O6    Zn2   S    
C12   H9    S    
N2    Zn1   S    
N1    N3    S    
C7    C8    A    
O7    Zn1   S    
C10   C16   S    
C14   H10   S    
O8    Zn2   S    
C2    C15   S    
O3    Zn1   S    
O4    Zn2   S    
C6    H7    S    
N1    N2    D    
O1    Zn1   S    
H4    N2    S    
O2    Zn2   S    
C5    C6    A    
C10   C11   A    
N1    Zn2   S    
H2    N3    S    
C7    H8    S    
C8    C13   A    
C1    O1    A    
C12   C13   A    
C3    O7    A    
C2    O6    A    
C14   C15   D    
C11   H1    S    
C1    C14   S    
C16   O4    A    
C4    C9    A    
H3    N3    S    
C1    O2    A    
C5    H6    S    
C3    O8    A    
C4    C5    A    
