data_mof_unit_29540.cif
_audit_creation_date              2012-10-26T20:04:04-0400
_audit_creation_method            fapswitch 2.2
_symmetry_space_group_name_H-M    P1
_symmetry_Int_Tables_number       1
_space_group_crystal_system       triclinic
_cell_length_a                    14.971047
_cell_length_b                    13.80267
_cell_length_c                    14.320418
_cell_angle_alpha                 89.759941
_cell_angle_beta                  89.440525
_cell_angle_gamma                 89.52577
_cell_volume                      2958.90979301

loop_
_atom_site_label
_atom_site_type_symbol
_atom_type_description
_atom_site_fract_x
_atom_site_fract_y
_atom_site_fract_z
_atom_type_partial_charge
C1    C     C_R   0.329006 0.500158 0.499884 0.538100
C2    C     C_R   0.954715 0.423354 0.346939 -0.108381
C3    C     C_R   0.421930 0.796931 0.490484 0.352408
C4    C     C_R   0.573382 0.204562 0.468014 0.367899
C5    C     C_R   0.578076 0.794637 0.512341 0.408104
C6    C     C_R   0.427150 0.205708 0.533243 0.402916
C7    C     C_R   0.581166 0.896472 0.496313 -0.029039
C8    C     C_R   0.421395 0.103977 0.520227 -0.031444
C9    C     C_R   0.420019 0.898598 0.508274 -0.050968
C10   C     C_R   0.580205 0.102466 0.483676 -0.044768
C11   C     C_R   0.500836 0.949174 0.503309 -0.148403
C12   C     C_R   0.671053 0.499656 0.500200 0.540671
C13   C     C_R   0.501045 0.051750 0.503489 -0.148970
C14   C     C_R   0.662158 0.946276 0.478606 0.270313
C15   C     C_R   0.339274 0.053832 0.526777 0.271396
C16   C     C_R   0.339331 0.950879 0.524369 0.278006
C17   C     C_R   0.661698 0.049358 0.474043 0.273275
C18   C     C_R   0.499905 0.500155 0.331115 0.518640
C19   C     C_R   0.499999 0.499848 0.668880 0.513828
C20   C     C_1   0.499755 0.500326 0.228809 -0.065249
C21   C     C_1   0.499887 0.499542 0.771177 -0.074151
C22   C     C_1   0.499669 0.500107 0.143366 -0.058712
C23   C     C_R   0.953271 0.501121 0.499566 -0.001703
C24   C     C_1   0.499758 0.499451 0.856616 -0.061372
C25   C     C_1   0.499624 0.499760 0.042717 -0.014146
C26   C     C_1   0.499650 0.499542 0.957263 -0.014289
C27   C     C_R   0.814210 0.460176 0.424595 -0.137289
C28   C     C_R   0.185956 0.537261 0.575990 -0.132071
C29   C     C_R   0.767425 0.499056 0.500500 -0.005573
C30   C     C_R   0.232738 0.500008 0.499567 -0.003120
C31   C     C_R   0.812253 0.537972 0.576489 -0.123915
C32   C     C_R   0.188034 0.460878 0.423616 -0.125823
C33   C     C_R   0.905602 0.539000 0.577334 0.014633
C34   C     C_R   0.046929 0.500950 0.498940 -0.000463
C35   C     C_R   0.094670 0.462339 0.421605 0.021280
C36   C     C_3   0.883243 0.701695 0.730210 -0.001751
C37   C     C_3   0.958874 0.767149 0.763084 -0.272985
C38   C     C_3   0.925728 0.870492 0.780174 -0.489669
C39   C     C_3   0.117450 0.460871 0.205148 -0.001423
C40   C     C_3   0.047099 0.472581 0.128848 -0.263518
C41   C     C_3   0.077283 0.544231 0.053673 -0.480718
C42   C     C_3   0.333230 0.767809 0.366366 0.047135
C43   C     C_3   0.245029 0.722842 0.336866 -0.246668
C44   C     C_3   0.226825 0.740903 0.233608 -0.500706
C45   C     C_R   0.907244 0.461402 0.423256 -0.035969
C46   C     C_3   0.618753 0.257486 0.323338 0.041745
C47   C     C_3   0.673585 0.183870 0.266839 -0.263300
C48   C     C_3   0.660194 0.198223 0.162160 -0.498727
C49   C     C_3   0.630714 0.749544 0.655138 0.014802
C50   C     C_3   0.667882 0.839163 0.703871 -0.310146
C51   C     C_3   0.650303 0.835285 0.808956 -0.483380
C52   C     C_3   0.397289 0.258008 0.681852 0.027344
C53   C     C_3   0.359225 0.179175 0.745930 -0.308005
C54   C     C_3   0.399551 0.184362 0.843271 -0.480316
C55   C     C_3   0.803768 0.879132 0.499657 0.048995
C56   C     C_R   0.092978 0.537763 0.576516 -0.034348
C57   C     C_3   0.892230 0.886626 0.445713 -0.259177
C58   C     C_3   0.971282 0.852923 0.504455 -0.504516
C59   C     C_3   0.206031 0.113873 0.589534 0.062156
C60   C     C_3   0.110313 0.084786 0.566978 -0.260019
C61   C     C_3   0.051087 0.087025 0.654390 -0.513900
C62   C     C_3   0.249143 0.881736 0.636397 0.007091
C63   C     C_3   0.245936 0.772797 0.655128 -0.242677
C64   C     C_3   0.227382 0.751853 0.758303 -0.510542
C65   C     C_3   0.786271 0.120274 0.536960 0.010731
C66   C     C_3   0.793167 0.230250 0.547896 -0.229453
C67   C     C_R   0.952399 0.575359 0.654649 0.264094
C68   C     C_3   0.864555 0.257906 0.617975 -0.495603
C69   C     C_R   0.047987 0.425773 0.344360 0.272112
C70   C     C_R   0.045647 0.572985 0.654023 -0.113797
Cu1   Cu    Cu3+1 0.500000 0.597420 0.500000 0.984133
Cu2   Cu    Cu3+1 0.500000 0.402580 0.500000 0.978707
H1    H     H_    0.777956 0.429962 0.366447 0.110133
H2    H     H_    0.012638 0.768846 0.709132 0.146934
H3    H     H_    0.897323 0.901972 0.715399 0.131014
H4    H     H_    0.982325 0.916026 0.802604 0.142804
H5    H     H_    0.873726 0.871375 0.836031 0.152210
H6    H     H_    0.181821 0.438968 0.171882 0.154439
H7    H     H_    0.129642 0.531987 0.239481 0.110963
H8    H     H_    0.034878 0.401151 0.095986 0.178665
H9    H     H_    0.983404 0.499206 0.160238 0.154046
H10   H     H_    0.087917 0.616825 0.084573 0.143243
H11   H     H_    0.025109 0.550710 0.999357 0.161209
H12   H     H_    0.222330 0.564004 0.635474 0.099284
H13   H     H_    0.140331 0.518730 0.020023 0.147340
H14   H     H_    0.388845 0.733086 0.326104 0.137744
H15   H     H_    0.330787 0.846726 0.349498 0.133154
H16   H     H_    0.247489 0.643543 0.349761 0.161486
H17   H     H_    0.189434 0.754344 0.379258 0.188744
H18   H     H_    0.224703 0.819895 0.218543 0.156221
H19   H     H_    0.161280 0.709625 0.215278 0.137933
H20   H     H_    0.279592 0.706120 0.189827 0.146274
H21   H     H_    0.637043 0.331145 0.298579 0.149839
H22   H     H_    0.546171 0.248131 0.308403 0.127663
H23   H     H_    0.773907 0.565759 0.635151 0.136033
H24   H     H_    0.745636 0.192090 0.282831 0.201661
H25   H     H_    0.652762 0.109316 0.286010 0.190039
H26   H     H_    0.588691 0.189326 0.144296 0.150705
H27   H     H_    0.700266 0.143479 0.123121 0.154491
H28   H     H_    0.682340 0.271612 0.140363 0.148738
H29   H     H_    0.663816 0.684169 0.684635 0.144813
H30   H     H_    0.558226 0.743041 0.672758 0.143740
H31   H     H_    0.740776 0.843566 0.691123 0.140350
H32   H     H_    0.636046 0.905924 0.675844 0.147696
H33   H     H_    0.577283 0.835641 0.823542 0.149036
H34   H     H_    0.226558 0.431037 0.365899 0.144808
H35   H     H_    0.680123 0.899633 0.842480 0.145747
H36   H     H_    0.680598 0.768962 0.839824 0.146574
H37   H     H_    0.375441 0.329109 0.710510 0.160983
H38   H     H_    0.471792 0.255200 0.685888 0.135076
H39   H     H_    0.285851 0.189201 0.752897 0.146410
H40   H     H_    0.374185 0.106557 0.716349 0.142583
H41   H     H_    0.472919 0.171998 0.839556 0.145709
H42   H     H_    0.369597 0.127548 0.888585 0.147379
H43   H     H_    0.385723 0.256317 0.875032 0.154316
H44   H     H_    0.798981 0.804145 0.526836 0.186389
H45   H     H_    0.080987 0.598149 0.714841 0.117651
H46   H     H_    0.804324 0.928984 0.560330 0.084776
H47   H     H_    0.889332 0.840718 0.382216 0.184765
H48   H     H_    0.902782 0.962775 0.423063 0.179877
H49   H     H_    0.976628 0.897894 0.568065 0.144685
H50   H     H_    0.034046 0.859947 0.463114 0.164750
H51   H     H_    0.963499 0.775716 0.524946 0.150949
H52   H     H_    0.204450 0.191398 0.609839 0.181593
H53   H     H_    0.229992 0.071859 0.650751 0.089403
H54   H     H_    0.082465 0.135505 0.514015 0.174732
H55   H     H_    0.110018 0.010754 0.537102 0.201213
H56   H     H_    0.919413 0.392162 0.288721 0.117464
H57   H     H_    0.076417 0.035191 0.707538 0.136897
H58   H     H_    0.981993 0.066267 0.636262 0.136562
H59   H     H_    0.049703 0.160919 0.684790 0.151457
H60   H     H_    0.183773 0.912424 0.658840 0.135730
H61   H     H_    0.301101 0.914456 0.681948 0.086176
H62   H     H_    0.192447 0.740575 0.612244 0.183660
H63   H     H_    0.310876 0.738685 0.636174 0.205317
H64   H     H_    0.281109 0.782476 0.801952 0.148982
H65   H     H_    0.225380 0.672454 0.770425 0.138913
H66   H     H_    0.162283 0.783903 0.780195 0.139673
H67   H     H_    0.824872 0.711778 0.777580 0.157046
H68   H     H_    0.854923 0.089968 0.530534 0.140117
H69   H     H_    0.756032 0.089132 0.602064 0.080479
H70   H     H_    0.810147 0.263604 0.479345 0.213046
H71   H     H_    0.727950 0.259719 0.572659 0.193627
H72   H     H_    0.854500 0.218487 0.684993 0.142949
H73   H     H_    0.860733 0.336867 0.631721 0.171036
H74   H     H_    0.931860 0.240917 0.588995 0.156087
H75   H     H_    0.860990 0.723862 0.659211 0.111872
H76   H     H_    0.987165 0.737739 0.828954 0.175744
N1    N     N_R   0.500000 0.743810 0.500000 -0.244434
N2    N     N_R   0.500000 0.256190 0.500000 -0.247031
O1    O     O_R   0.370260 0.582280 0.500020 -0.453643
O2    O     O_3   0.092790 0.386294 0.268373 -0.570665
O3    O     O_3   0.344566 0.752325 0.463069 -0.513083
O4    O     O_3   0.640346 0.251675 0.419369 -0.528760
O5    O     O_3   0.648997 0.751550 0.557529 -0.548736
O6    O     O_3   0.364085 0.251337 0.589296 -0.531644
O7    O     O_3   0.732643 0.895798 0.437213 -0.532904
O8    O     O_3   0.260508 0.104369 0.508855 -0.524097
O9    O     O_3   0.260260 0.901349 0.539342 -0.538312
O10   O     O_3   0.740553 0.097224 0.453609 -0.539079
O11   O     O_R   0.629740 0.417720 0.499980 -0.467902
O12   O     O_R   0.629740 0.582280 0.499980 -0.440210
O13   O     O_R   0.370260 0.417720 0.500020 -0.443088
O14   O     O_R   0.500000 0.582290 0.376050 -0.481289
O15   O     O_R   0.500000 0.417710 0.623950 -0.499349
O16   O     O_R   0.500000 0.582290 0.623950 -0.500818
O17   O     O_R   0.500000 0.417710 0.376050 -0.493711
O18   O     O_3   0.908172 0.602822 0.735690 -0.582441

loop_
_geom_bond_atom_site_label_1
_geom_bond_atom_site_label_2
_ccdc_geom_bond_type
C67   O18   S    
C66   C68   S    
C37   H2    S    
C64   H64   S    
C34   C56   A    
C8    C13   A    
C23   C45   A    
Cu1   O12   S    
C12   C29   S    
C28   H12   S    
Cu2   O15   S    
C4    O4    S    
C4    N2    A    
C3    O3    S    
C28   C56   A    
C68   H74   S    
C38   H4    S    
C53   C54   S    
C7    C11   A    
C58   H51   S    
C62   C63   S    
C43   H16   S    
C62   H61   S    
C36   C37   S    
C19   C21   S    
C9    C16   A    
C24   C26   S    
C49   H29   S    
C59   O8    S    
C27   C29   A    
C55   H44   S    
C10   C17   A    
C15   C16   A    
C41   H11   S    
C54   H41   S    
C36   O18   S    
C5    N1    A    
C34   C35   A    
C70   H45   S    
C17   O10   S    
C12   O11   A    
C65   H68   S    
C18   O14   A    
C7    C14   A    
Cu1   O1    S    
C51   H36   S    
C23   C33   A    
C22   C25   S    
C50   H31   S    
C47   H24   S    
C40   H8    S    
C1    O1    A    
C42   H14   S    
C19   O16   A    
C2    C69   A    
C44   H20   S    
C61   H57   S    
C64   H65   S    
C53   H39   S    
C59   C60   S    
C32   H34   S    
C16   O9    S    
C14   C17   A    
C65   O10   S    
C48   H28   S    
C38   H3    S    
C2    C45   A    
C46   O4    S    
C3    N1    A    
C58   H50   S    
Cu1   O14   S    
C14   O7    S    
C39   H6    S    
C62   H60   S    
C42   O3    S    
C15   O8    S    
C49   H30   S    
C5    C7    A    
C6    C8    A    
C66   H71   S    
C25   C26   T    
C5    O5    S    
C39   O2    S    
Cu1   O16   S    
C60   C61   S    
C63   H63   S    
C63   H62   S    
C43   C44   S    
C32   C35   A    
C37   C38   S    
C3    C9    A    
C65   H69   S    
C36   H75   S    
C47   C48   S    
C46   H22   S    
C52   H38   S    
Cu2   O11   S    
C23   C34   A    
C54   H43   S    
C31   C33   A    
C50   C51   S    
C43   H17   S    
C9    C11   A    
C1    O13   A    
C44   H19   S    
C61   H58   S    
C57   H48   S    
C53   H40   S    
C40   C41   S    
C20   C22   T    
C49   C50   S    
C8    C15   A    
Cu2   N2    S    
C55   C57   S    
Cu2   O17   S    
C52   O6    S    
C42   C43   S    
C4    C10   A    
C39   C40   S    
C44   H18   S    
C52   C53   S    
C33   C67   A    
C59   H52   S    
C48   H27   S    
C46   C47   S    
C58   H49   S    
C69   O2    S    
C40   H9    S    
C49   O5    S    
C60   H55   S    
C10   C13   A    
C18   O17   A    
C66   H70   S    
C38   H5    S    
C59   H53   S    
C41   H13   S    
C56   C70   A    
C47   H25   S    
C57   H47   S    
C67   C70   A    
C60   H54   S    
Cu1   Cu2   S    
C29   C31   A    
C30   C32   A    
C11   C13   A    
C27   C45   A    
C57   C58   S    
Cu1   N1    S    
C46   H21   S    
C52   H37   S    
C31   H23   S    
C41   H10   S    
C54   H42   S    
C28   C30   A    
C1    C30   S    
Cu2   O13   S    
C68   H72   S    
C18   C20   S    
C48   H26   S    
C68   H73   S    
C37   H76   S    
C36   H67   S    
C51   H33   S    
C61   H59   S    
C12   O12   A    
C63   C64   S    
C6    N2    A    
C55   O7    S    
C35   C69   A    
C51   H35   S    
C65   C66   S    
C21   C24   T    
C62   O9    S    
C42   H15   S    
C19   O15   A    
C50   H32   S    
C27   H1    S    
C6    O6    S    
C64   H66   S    
C39   H7    S    
C55   H46   S    
C2    H56   S    
