data_mof_unit_26184.cif
_audit_creation_date              2012-12-11T14:52:42-0500
_audit_creation_method            fapswitch 2.2
_symmetry_space_group_name_H-M    P1
_symmetry_Int_Tables_number       1
_space_group_crystal_system       triclinic
_cell_length_a                    20.628457
_cell_length_b                    7.255818
_cell_length_c                    20.323519
_cell_angle_alpha                 90.014615
_cell_angle_beta                  101.490538
_cell_angle_gamma                 90.025965
_cell_volume                      2980.98131139

loop_
_atom_site_label
_atom_site_type_symbol
_atom_type_description
_atom_site_fract_x
_atom_site_fract_y
_atom_site_fract_z
_atom_type_partial_charge
O1    O     O_R   0.673670 0.377510 0.185950 -0.535416
O2    O     O_R   0.326330 0.622490 0.814050 -0.535416
O3    O     O_R   0.826330 0.877510 0.314050 -0.535470
O4    O     O_R   0.173670 0.122490 0.685950 -0.535469
O5    O     O_R   0.806260 0.705340 0.185590 -0.533757
O6    O     O_R   0.193740 0.294660 0.814410 -0.533757
O7    O     O_R   0.693740 0.205340 0.314410 -0.533731
O8    O     O_R   0.306260 0.794660 0.685590 -0.533732
C1    C     C_R   0.825633 0.538717 0.170826 0.717687
C2    C     C_R   0.174367 0.461283 0.829174 0.717687
C3    C     C_R   0.674367 0.038698 0.329174 0.717805
C4    C     C_R   0.325633 0.961302 0.670826 0.717805
O9    O     O_R   0.672940 0.707120 0.178050 -0.540888
O10   O     O_R   0.327060 0.292880 0.821950 -0.540888
O11   O     O_R   0.827060 0.207120 0.321950 -0.541115
O12   O     O_R   0.172940 0.792880 0.678050 -0.541116
O13   O     O_R   0.692060 0.879040 0.306460 -0.532992
O14   O     O_R   0.307940 0.120960 0.693540 -0.532992
O15   O     O_R   0.807940 0.379040 0.193540 -0.532962
O16   O     O_R   0.192060 0.620960 0.806460 -0.532962
C5    C     C_R   0.648789 0.540068 0.160865 0.686968
C6    C     C_R   0.351211 0.459932 0.839135 0.686968
C7    C     C_R   0.851207 0.040183 0.339153 0.687051
C8    C     C_R   0.148793 0.959817 0.660846 0.687051
O17   O     O_3   0.756430 0.544390 0.292140 -0.375357
O18   O     O_3   0.243570 0.455610 0.707860 -0.375357
O19   O     O_3   0.743570 0.044390 0.207860 -0.375244
O20   O     O_3   0.256430 0.955610 0.792140 -0.375244
V1    V     V_3+5 0.748810 0.818610 0.242180 1.409476
V2    V     V_3+5 0.251190 0.181390 0.757820 1.409475
V3    V     V_3+5 0.751190 0.318610 0.257820 1.409358
V4    V     V_3+5 0.248810 0.681390 0.742180 1.409358
C9    C     C_R   0.088260 0.956141 0.606437 -0.063469
C10   C     C_R   0.911740 0.043858 0.393563 -0.063469
C11   C     C_R   0.411824 0.456637 0.893433 -0.063263
C12   C     C_R   0.588176 0.543362 0.106567 -0.063263
C13   C     C_R   0.004139 0.223143 0.457069 -0.200693
C14   C     C_R   0.995861 0.776857 0.542931 -0.200693
C15   C     C_R   0.495056 0.721322 0.043917 -0.199793
C16   C     C_R   0.504944 0.278678 0.956083 -0.199793
C17   C     C_R   0.951262 0.204457 0.402570 -0.159775
C18   C     C_R   0.048738 0.795543 0.597430 -0.159775
C19   C     C_R   0.548068 0.702711 0.098289 -0.159776
C20   C     C_R   0.451932 0.297289 0.901711 -0.159776
C21   C     C_R   0.927672 0.899488 0.440094 -0.240186
C22   C     C_R   0.072328 0.100512 0.559906 -0.240186
C23   C     C_R   0.572753 0.400126 0.059422 -0.240035
C24   C     C_R   0.427247 0.599874 0.940578 -0.240035
C25   C     C_R   0.980806 0.918229 0.495598 0.157802
C26   C     C_R   0.019194 0.081771 0.504402 0.157802
C27   C     C_R   0.519506 0.418840 0.004030 0.157366
C28   C     C_R   0.480494 0.581160 0.995970 0.157366
H1    H     H_    0.102379 0.224276 0.565578 0.125094
H2    H     H_    0.897621 0.775724 0.434422 0.125094
H3    H     H_    0.396704 0.722598 0.935471 0.124905
H4    H     H_    0.603296 0.277402 0.064529 0.124904
H5    H     H_    0.059200 0.681786 0.632431 0.129945
H6    H     H_    0.940800 0.318214 0.367569 0.129945
H7    H     H_    0.441823 0.184492 0.866214 0.129484
H8    H     H_    0.558177 0.815508 0.133786 0.129484
H9    H     H_    0.032876 0.349271 0.462463 0.120880
H10   H     H_    0.967124 0.650729 0.537537 0.120880
H11   H     H_    0.465829 0.846473 0.039100 0.120972
H12   H     H_    0.534171 0.153527 0.960900 0.120972
C29   C     C_3   0.541235 0.136244 0.518939 0.367343
C30   C     C_3   0.458765 0.863756 0.481061 0.367343
C31   C     C_3   0.958733 0.635983 0.981000 0.367312
C32   C     C_3   0.041267 0.364017 0.018999 0.367312
C33   C     C_3   0.533653 0.968673 0.563432 -0.232077
C34   C     C_3   0.466347 0.031327 0.436568 -0.232078
C35   C     C_3   0.966358 0.468244 0.936587 -0.232070
C36   C     C_3   0.033642 0.531756 0.063413 -0.232070
H13   H     H_    0.561470 0.945981 0.615440 0.125225
H14   H     H_    0.438530 0.054019 0.384560 0.125225
H15   H     H_    0.938549 0.445199 0.884593 0.125254
H16   H     H_    0.061451 0.554801 0.115407 0.125254
H17   H     H_    0.561926 0.709023 0.502289 0.153008
H18   H     H_    0.438073 0.290977 0.497711 0.153008
H19   H     H_    0.938150 0.208797 0.997850 0.152996
H20   H     H_    0.061849 0.791203 0.002150 0.152996
C37   C     C_1   0.371302 0.969563 0.625082 -0.181243
C38   C     C_1   0.628698 0.030437 0.374918 -0.181243
C39   C     C_1   0.128699 0.469508 0.874920 -0.181195
C40   C     C_1   0.871301 0.530492 0.125080 -0.181195
C41   C     C_3   0.465634 0.159653 0.498065 -0.203415
C42   C     C_3   0.534366 0.840347 0.501935 -0.203415
C43   C     C_3   0.034323 0.659783 0.001857 -0.203323
C44   C     C_3   0.965677 0.340217 0.998143 -0.203323
C45   C     C_3   0.457568 0.988872 0.541540 0.067928
C46   C     C_3   0.542432 0.011128 0.458460 0.067928
C47   C     C_3   0.042433 0.488839 0.958463 0.067890
C48   C     C_3   0.957567 0.511160 0.041537 0.067890
C49   C     C_1   0.409998 0.977257 0.587268 -0.032042
C50   C     C_1   0.590001 0.022743 0.412732 -0.032042
C51   C     C_1   0.090003 0.477201 0.912735 -0.032026
C52   C     C_1   0.909997 0.522799 0.087265 -0.032026
N1    N     N_2   0.587402 0.285736 0.538851 -0.521395
H21   H     H_    0.636032 0.245266 0.543833 0.253648
C53   C     C_3   0.575511 0.393473 0.595105 -0.569103
H22   H     H_    0.611899 0.507908 0.605108 0.194503
H23   H     H_    0.580994 0.306166 0.640788 0.191990
H24   H     H_    0.525086 0.454142 0.583687 0.220173
N2    N     N_2   0.412598 0.714264 0.461149 -0.521395
H25   H     H_    0.363968 0.754734 0.456167 0.253648
C54   C     C_3   0.424489 0.606527 0.404895 -0.569103
H26   H     H_    0.388101 0.492092 0.394892 0.194503
H27   H     H_    0.474914 0.545858 0.416313 0.220173
H28   H     H_    0.419006 0.693834 0.359212 0.191990
N3    N     N_2   0.912527 0.785174 0.961020 -0.521396
H29   H     H_    0.863915 0.744457 0.956036 0.253639
C55   C     C_3   0.924401 0.892720 0.904729 -0.569168
H30   H     H_    0.887949 0.006849 0.894633 0.194549
H31   H     H_    0.919010 0.805185 0.859094 0.192026
H32   H     H_    0.974782 0.953771 0.916159 0.220099
N4    N     N_2   0.087473 0.214825 0.038980 -0.521396
H33   H     H_    0.136085 0.255543 0.043964 0.253639
C56   C     C_3   0.075599 0.107280 0.095271 -0.569167
H34   H     H_    0.112051 0.993151 0.105367 0.194549
H35   H     H_    0.025218 0.046229 0.083841 0.220099
H36   H     H_    0.080990 0.194815 0.140906 0.192026

loop_
_geom_bond_atom_site_label_1
_geom_bond_atom_site_label_2
_ccdc_geom_bond_type
O17   V3    S    
C24   H3    S    
O1    C5    A    
C38   C50   T    
C43   C47   S    
O19   V1    S    
O13   V1    S    
O3    C7    A    
C55   H30   S    
O1    V3    S    
C36   H16   S    
O15   V3    S    
N1    H21   S    
C14   C25   A    
O7    C3    A    
C6    C11   S    
C54   H27   S    
C9    C18   A    
O9    V1    S    
C17   H6    S    
C14   C18   A    
H20   C43   S    
N3    C55   S    
O4    C8    A    
C20   H7    S    
N4    H33   S    
C2    C39   S    
C48   C52   S    
C32   C47   S    
C12   C23   A    
O2    V4    S    
C40   C52   T    
O3    V1    S    
C34   H14   S    
C1    O15   A    
C36   C48   S    
C44   C48   S    
C2    O16   A    
N4    C56   S    
O2    C6    A    
C33   H13   S    
O14   V2    S    
C32   C36   S    
O11   C7    A    
C15   C28   A    
O12   C8    A    
C45   C49   S    
C9    C22   A    
C34   C46   S    
C10   C17   A    
O10   V2    S    
C33   C45   S    
C11   C24   A    
C18   H5    S    
H19   C44   S    
N1    C53   S    
C31   N3    S    
C46   C50   S    
C30   C45   S    
O5    V1    S    
C3    C38   S    
C29   C46   S    
C54   H28   S    
O7    V3    S    
C27   C28   A    
O8    V4    S    
C24   C28   A    
N2    C54   S    
C42   C46   S    
C56   H36   S    
C5    C12   S    
C41   C45   S    
O18   V4    S    
C15   C19   A    
C1    C40   S    
O5    C1    A    
C37   C49   T    
C13   H9    S    
C53   H22   S    
C21   C25   A    
O8    C4    A    
C7    C10   S    
C39   C51   T    
O9    C5    A    
C55   H31   S    
C10   C21   A    
O11   V3    S    
C11   C20   A    
C19   H8    S    
H18   C41   S    
C53   H23   S    
H17   C42   S    
C32   C44   S    
C30   C42   S    
C36   C43   S    
O16   V4    S    
C3    O13   A    
O6    V2    S    
C30   N2    S    
C21   H2    S    
O6    C2    A    
C23   C27   A    
C29   C41   S    
O12   V4    S    
C16   C27   A    
C15   H11   S    
C54   H26   S    
C22   C26   A    
C31   C43   S    
C8    C9    S    
C16   H12   S    
O10   C6    A    
C56   H35   S    
C29   N1    S    
C56   H34   S    
C35   H15   S    
C13   C26   A    
C30   C34   S    
C29   C33   S    
C22   H1    S    
O20   V2    S    
C31   C48   S    
C4    C37   S    
C55   H32   S    
C31   C35   S    
C13   C17   A    
C32   N4    S    
C47   C51   S    
C35   C44   S    
C16   C20   A    
C53   H24   S    
C35   C47   S    
C25   C26   A    
C4    O14   A    
N2    H25   S    
C12   C19   A    
N3    H29   S    
C34   C41   S    
O4    V2    S    
C33   C42   S    
C23   H4    S    
C14   H10   S    
