data_mof_unit_16414.cif
_audit_creation_date              2012-12-10T16:54:52-0500
_audit_creation_method            fapswitch 2.2
_symmetry_space_group_name_H-M    P1
_symmetry_Int_Tables_number       1
_space_group_crystal_system       triclinic
_cell_length_a                    7.876191
_cell_length_b                    8.641505
_cell_length_c                    15.67877
_cell_angle_alpha                 90.848997
_cell_angle_beta                  87.822299
_cell_angle_gamma                 92.911229
_cell_volume                      1064.89497909

loop_
_atom_site_label
_atom_site_type_symbol
_atom_type_description
_atom_site_fract_x
_atom_site_fract_y
_atom_site_fract_z
_atom_type_partial_charge
C1    C     C_R   0.544908 0.793561 0.502822 0.929326
C2    C     C_2   0.436310 0.042561 0.504982 -0.394997
C3    C     C_R   0.505162 0.501496 0.661239 0.884798
C4    C     C_R   0.456241 0.206211 0.505067 0.947229
C5    C     C_R   0.495330 0.501730 0.338854 0.907813
C6    C     C_3   0.341633 0.584416 0.949989 0.414761
C7    C     C_3   0.663407 0.615075 0.955210 0.320181
C8    C     C_3   0.665622 0.586404 0.053019 0.203531
C9    C     C_1   0.483563 0.505389 0.250265 -0.251496
C10   C     C_3   0.511582 0.517462 0.917501 0.094030
C11   C     C_3   0.726452 0.009407 0.566784 -0.829020
C12   C     C_3   0.341489 0.593077 0.048751 -0.491840
C13   C     C_3   0.008519 0.317180 0.438897 -0.526671
C14   C     C_3   0.177331 0.757973 0.876058 0.039721
C15   C     C_3   0.203339 0.743611 0.779274 -0.306644
C16   C     C_3   0.062439 0.817045 0.732077 -0.976259
C17   C     C_3   0.802482 0.860315 0.947047 0.042219
C18   C     C_3   0.773876 0.012114 0.993994 -0.383282
C19   C     C_3   0.927974 0.125126 0.982152 -0.942704
C20   C     C_3   0.867210 0.492310 0.149971 0.076885
C21   C     C_3   0.911462 0.652387 0.189953 -0.427127
C22   C     C_3   0.018937 0.637538 0.267995 -0.882735
C23   C     C_3   0.491307 0.503974 0.082942 0.073140
C24   C     C_3   0.297895 0.178546 0.137491 0.074794
C25   C     C_3   0.415783 0.043191 0.144401 -0.423152
C26   C     C_3   0.350652 0.930706 0.213455 -0.972679
C27   C     C_3   0.482183 0.336090 0.045527 0.398869
C28   C     C_3   0.517276 0.347495 0.947685 -0.623753
C29   C     C_1   0.480526 0.505876 0.174710 -0.108338
C30   C     C_1   0.521134 0.515581 0.825493 -0.014911
C31   C     C_1   0.518145 0.508853 0.749989 -0.214911
C32   C     C_2   0.567586 0.954586 0.521082 0.007971
H1    H     H_    0.352710 0.715643 0.070670 0.211994
H2    H     H_    0.645655 0.306577 0.930445 0.186017
H3    H     H_    0.774039 0.914457 0.604969 0.221817
H4    H     H_    0.827405 0.044894 0.519091 0.241228
H5    H     H_    0.700907 0.105333 0.612673 0.252515
H6    H     H_    0.906437 0.265508 0.399046 0.176870
H7    H     H_    0.119956 0.338971 0.395485 0.215466
H8    H     H_    0.030767 0.232553 0.488988 0.201165
H9    H     H_    0.143157 0.878107 0.891922 0.179398
H10   H     H_    0.070394 0.677650 0.897618 0.095465
H11   H     H_    0.327746 0.800569 0.758885 0.249314
H12   H     H_    0.236345 0.501309 0.930405 0.084668
H13   H     H_    0.201956 0.618896 0.761858 0.226310
H14   H     H_    0.938123 0.754444 0.746328 0.262622
H15   H     H_    0.091042 0.810356 0.662326 0.269535
H16   H     H_    0.054416 0.941119 0.750584 0.262546
H17   H     H_    0.852517 0.884696 0.881363 0.175207
H18   H     H_    0.897390 0.800616 0.983912 0.118294
H19   H     H_    0.659221 0.062396 0.969567 0.254576
H20   H     H_    0.751821 0.988991 0.063092 0.196586
H21   H     H_    0.045091 0.070380 0.001036 0.283548
H22   H     H_    0.910506 0.229248 0.022814 0.299131
H23   H     H_    0.217822 0.544123 0.074934 0.198909
H24   H     H_    0.943507 0.161155 0.914472 0.263065
H25   H     H_    0.984823 0.426647 0.146440 0.170268
H26   H     H_    0.779966 0.420605 0.191734 0.153256
H27   H     H_    0.982251 0.726963 0.142127 0.219307
H28   H     H_    0.793475 0.708973 0.211323 0.217523
H29   H     H_    0.955684 0.554316 0.313420 0.289835
H30   H     H_    0.035443 0.751645 0.300891 0.260215
H31   H     H_    0.145738 0.596391 0.248398 0.269376
H32   H     H_    0.164274 0.130709 0.140748 0.169842
H33   H     H_    0.307909 0.256153 0.193752 0.140414
H34   H     H_    0.585778 0.270722 0.071308 0.112554
H35   H     H_    0.425046 0.980919 0.082102 0.258981
H36   H     H_    0.544430 0.087123 0.162473 0.197214
H37   H     H_    0.337024 0.991828 0.276009 0.264122
H38   H     H_    0.441758 0.837991 0.219366 0.269329
H39   H     H_    0.225916 0.877395 0.195895 0.275732
H40   H     H_    0.316673 0.993740 0.481405 0.144067
H41   H     H_    0.991415 0.631623 0.553912 0.174861
H42   H     H_    0.782174 0.574698 0.922460 0.092149
H43   H     H_    0.678556 0.701092 0.085605 0.121806
H44   H     H_    0.424025 0.270555 0.913269 0.229067
N1    N     N_2   0.950340 0.457950 0.477370 -0.044949
N2    N     N_2   0.049660 0.542050 0.522630 -0.124709
O1    O     O_R   0.389240 0.738570 0.505550 -0.630744
O2    O     O_3   0.646099 0.774843 0.940297 -0.595605
O3    O     O_3   0.809451 0.496280 0.065470 -0.703448
O4    O     O_3   0.318935 0.259606 0.059315 -0.645551
O5    O     O_R   0.678400 0.711630 0.491050 -0.624029
O6    O     O_R   0.355360 0.513470 0.630110 -0.617038
O7    O     O_R   0.644510 0.486530 0.615610 -0.617312
O8    O     O_R   0.321600 0.288370 0.508950 -0.637287
O9    O     O_R   0.610760 0.261430 0.494450 -0.597899
O10   O     O_R   0.355490 0.513470 0.384390 -0.625278
O11   O     O_R   0.644640 0.486530 0.369890 -0.617723
O12   O     O_3   0.330071 0.736132 0.917354 -0.580940
Zn1   Zn    Zn3+2 0.306930 0.517990 0.509680 0.928323
Zn2   Zn    Zn3+2 0.693070 0.482010 0.490320 0.933275

loop_
_geom_bond_atom_site_label_1
_geom_bond_atom_site_label_2
_ccdc_geom_bond_type
C19   H24   S    
C7    C10   S    
N1    Zn2   S    
C3    O7    A    
C25   H35   S    
C16   H16   S    
C18   H20   S    
C7    C8    S    
C4    O9    A    
N1    N2    D    
O5    Zn2   S    
C12   C23   S    
C23   C29   S    
C21   C22   S    
C11   H4    S    
C21   H27   S    
O8    Zn1   S    
C6    C12   S    
C30   C31   T    
C4    O8    A    
C15   C16   S    
C8    C23   S    
C2    C32   D    
C18   C19   S    
C11   H5    S    
C24   O4    S    
C14   O12   S    
C13   H8    S    
C22   H31   S    
C5    O10   A    
H41   N2    S    
O6    Zn1   S    
C23   C27   S    
O1    Zn1   S    
C9    C29   T    
C14   H10   S    
C19   H21   S    
C28   H2    S    
C24   H32   S    
C6    H12   S    
O9    Zn2   S    
C26   H39   S    
C17   O2    S    
C25   H36   S    
C2    H40   S    
C16   H15   S    
O7    Zn2   S    
C18   H19   S    
C7    H42   S    
C13   N1    S    
C8    O3    S    
C24   C25   S    
C21   H28   S    
C17   H17   S    
C25   C26   S    
C6    O12   S    
C1    C32   S    
C2    C4    S    
C5    C9    S    
C22   H30   S    
C10   C30   S    
O10   Zn1   S    
C17   C18   S    
O11   Zn2   S    
C3    C31   S    
C13   H6    S    
C24   H33   S    
C14   H9    S    
C19   H22   S    
C11   C32   S    
C26   H38   S    
C15   H13   S    
C16   H14   S    
C28   H44   S    
C3    O6    A    
C10   C28   S    
C27   O4    S    
C17   H18   S    
C6    C10   S    
N2    Zn1   S    
C1    O5    A    
C11   H3    S    
C20   H25   S    
C15   H11   S    
C27   H34   S    
C22   H29   S    
C1    O1    A    
C8    H43   S    
C13   H7    S    
C12   H23   S    
C20   C21   S    
C27   C28   S    
C26   H37   S    
C14   C15   S    
C12   H1    S    
C20   O3    S    
C20   H26   S    
C5    O11   A    
C7    O2    S    
