data_mof_unit_29606.cif
_audit_creation_date              2012-12-10T19:04:14-0500
_audit_creation_method            fapswitch 2.2
_symmetry_space_group_name_H-M    P1
_symmetry_Int_Tables_number       1
_space_group_crystal_system       triclinic
_cell_length_a                    10.63833
_cell_length_b                    10.799577
_cell_length_c                    9.546101
_cell_angle_alpha                 90.0662
_cell_angle_beta                  89.839231
_cell_angle_gamma                 89.895514
_cell_volume                      1096.73954729

loop_
_atom_site_label
_atom_site_type_symbol
_atom_type_description
_atom_site_fract_x
_atom_site_fract_y
_atom_site_fract_z
_atom_type_partial_charge
C1    C     C_R   0.501884 0.262417 0.500038 0.837560
C2    C     C_3   0.959157 0.513283 0.367197 -0.213283
C3    C     C_3   0.043662 0.405960 0.420609 -0.238013
C4    C     C_3   0.122938 0.501161 0.500910 -0.001693
C5    C     C_R   0.482885 0.063329 0.620890 0.051484
C6    C     C_R   0.515012 0.129529 0.501350 -0.114893
C7    C     C_R   0.571534 0.067044 0.388575 -0.136433
C8    C     C_R   0.579837 0.937065 0.388304 -0.028976
C9    C     C_R   0.524457 0.870721 0.501358 -0.160330
C10   C     C_R   0.486379 0.936239 0.620290 0.115830
C11   C     C_3   0.369229 0.926019 0.706515 -0.508463
C12   C     C_R   0.259490 0.500362 0.500269 0.852415
C13   C     C_3   0.364833 0.067018 0.706082 -0.200294
C14   C     C_R   0.550721 0.404804 0.073311 0.281309
C15   C     C_R   0.438652 0.591155 0.074740 -0.053700
C16   C     C_R   0.438428 0.590943 0.925808 -0.058881
C17   C     C_R   0.550727 0.404827 0.926095 0.298743
C18   C     C_3   0.683123 0.359859 0.919359 -0.470950
C19   C     C_3   0.683436 0.360375 0.078402 -0.526264
C20   C     C_R   0.507219 0.737468 0.499920 0.819985
C21   C     C_R   0.740523 0.499629 0.499742 0.833382
C22   C     C_3   0.040884 0.486849 0.632922 -0.214947
C23   C     C_3   0.959994 0.393048 0.551746 0.057108
C24   C     C_3   0.877083 0.498941 0.499148 0.000602
C25   C     C_3   0.956369 0.594185 0.579471 -0.266633
C26   C     C_3   0.040064 0.607064 0.448332 0.058527
Cu1   Cu    Cu3+1 0.499990 0.499980 0.640670 0.983179
Cu2   Cu    Cu3+1 0.500010 0.500020 0.359330 0.970366
H1    H     H_    0.387968 0.884276 0.810832 0.187676
H2    H     H_    0.390562 0.664492 0.130662 0.172299
H3    H     H_    0.389745 0.663709 0.870298 0.139877
H4    H     H_    0.691263 0.266206 0.124218 0.213167
H5    H     H_    0.748595 0.430082 0.123247 0.215908
H6    H     H_    0.075940 0.475365 0.741596 0.165134
H7    H     H_    0.924593 0.525196 0.258457 0.143161
H8    H     H_    0.081556 0.328599 0.356354 0.152616
H9    H     H_    0.290399 0.882906 0.647835 0.219275
N1    N     N_R   0.500800 0.500930 0.147930 -0.198812
N2    N     N_R   0.500800 0.500890 0.852020 -0.190765
O1    O     O_R   0.500000 0.319640 0.618810 -0.558631
O2    O     O_R   0.500010 0.319680 0.381230 -0.591931
O3    O     O_R   0.316850 0.499950 0.618770 -0.586568
O4    O     O_R   0.316860 0.499990 0.381190 -0.556357
O5    O     O_R   0.499990 0.680320 0.618770 -0.583954
O6    O     O_R   0.500000 0.680360 0.381190 -0.585523
O7    O     O_R   0.683140 0.500010 0.618810 -0.572441
O8    O     O_R   0.683150 0.500050 0.381230 -0.608920
C27   C     C_2   0.918739 0.270625 0.609099 0.318283
H10   H     H_    0.988459 0.206211 0.648561 0.084605
O9    O     O_2   0.807816 0.242296 0.611069 -0.565737
H11   H     H_    0.283360 0.105941 0.647716 0.165355
C28   C     C_2   0.385484 0.124026 0.847815 0.429373
H12   H     H_    0.464626 0.095550 0.911925 0.089661
O10   O     O_2   0.313439 0.203224 0.891625 -0.557554
H13   H     H_    0.689671 0.265242 0.873963 0.231372
H14   H     H_    0.748655 0.428802 0.873188 0.224251
H15   H     H_    0.918388 0.671532 0.643683 0.147181
C29   C     C_2   0.081489 0.729231 0.390329 0.311821
H16   H     H_    0.011535 0.795305 0.355086 0.076496
O11   O     O_2   0.192821 0.755316 0.382640 -0.557485
H17   H     H_    0.608452 0.119446 0.301031 0.181149
C30   C     C_2   0.647780 0.874552 0.271726 0.361373
H18   H     H_    0.682982 0.780900 0.283603 0.080667
O12   O     O_2   0.667831 0.928211 0.161341 -0.562758

loop_
_geom_bond_atom_site_label_1
_geom_bond_atom_site_label_2
_ccdc_geom_bond_type
C2    H7    S    
C4    C26   S    
C23   C24   S    
C15   N1    A    
C6    C7    A    
C18   H14   S    
C4    C12   S    
C13   C28   S    
C4    C22   S    
C9    C10   A    
C1    C6    S    
C9    C20   S    
C3    C23   S    
C20   O6    A    
C14   C17   A    
Cu2   N1    S    
Cu1   O1    S    
C27   O9    D    
C17   C18   S    
C29   H16   S    
C7    C8    A    
C2    C26   S    
C28   H12   S    
C16   H3    S    
C11   C13   S    
Cu1   O3    S    
C11   H1    S    
C30   H18   S    
C25   H15   S    
C3    H8    S    
C19   H4    S    
C18   H13   S    
Cu2   O8    S    
C1    O2    A    
C27   H10   S    
C20   O5    A    
C28   O10   D    
C2    C3    S    
C12   O4    A    
C2    C24   S    
C5    C6    A    
C22   H6    S    
Cu2   O6    S    
Cu1   O5    S    
C14   N1    A    
C10   C11   S    
C16   N2    A    
C29   O11   D    
C3    C4    S    
C21   O7    A    
Cu2   O2    S    
C5    C10   A    
C24   C25   S    
Cu1   O7    S    
C15   H2    S    
C30   O12   D    
C18   C19   S    
C19   H5    S    
C21   C24   S    
Cu1   N2    S    
Cu1   Cu2   S    
C11   H9    S    
C17   N2    A    
C22   C23   S    
C7    H17   S    
C12   O3    A    
C23   C27   S    
Cu2   O4    S    
C1    O1    A    
C25   C26   S    
C13   H11   S    
C5    C13   S    
C14   C19   S    
C26   C29   S    
C15   C16   A    
C8    C30   S    
C8    C9    A    
C21   O8    A    
C22   C25   S    
