data_mof_unit_30489.cif
_audit_creation_date              2012-12-10T18:00:15-0500
_audit_creation_method            fapswitch 2.2
_symmetry_space_group_name_H-M    P1
_symmetry_Int_Tables_number       1
_space_group_crystal_system       triclinic
_cell_length_a                    10.83068
_cell_length_b                    9.643963
_cell_length_c                    10.641644
_cell_angle_alpha                 89.701712
_cell_angle_beta                  92.601624
_cell_angle_gamma                 90.011238
_cell_volume                      1110.36620464

loop_
_atom_site_label
_atom_site_type_symbol
_atom_type_description
_atom_site_fract_x
_atom_site_fract_y
_atom_site_fract_z
_atom_type_partial_charge
C1    C     C_R   0.871619 0.500009 0.500137 -0.033228
C2    C     C_R   0.128381 0.499991 0.499863 -0.033228
C3    C     C_R   0.262428 0.499994 0.499773 0.804337
C4    C     C_R   0.737572 0.500006 0.500227 0.804337
C5    C     C_R   0.499399 0.500437 0.259724 0.839515
C6    C     C_R   0.500601 0.499563 0.740275 0.839515
C7    C     C_3   0.497255 0.633309 0.039740 -0.239521
C8    C     C_3   0.502745 0.366691 0.960260 -0.239525
C9    C     C_3   0.601300 0.568837 0.962574 -0.291020
C10   C     C_3   0.398700 0.431163 0.037425 -0.291023
C11   C     C_3   0.399894 0.561168 0.953236 0.465900
C12   C     C_3   0.600105 0.438832 0.046764 0.465901
C13   C     C_3   0.501415 0.498376 0.877023 -0.067931
C14   C     C_3   0.498585 0.501624 0.122977 -0.067931
C15   C     C_R   0.407270 0.073615 0.438021 0.417955
C16   C     C_R   0.592730 0.926385 0.561978 0.417955
C17   C     C_R   0.592658 0.073030 0.562060 0.415583
C18   C     C_R   0.407342 0.926970 0.437940 0.415583
C19   C     C_R   0.063816 0.374039 0.499040 -0.159140
C20   C     C_R   0.936184 0.625961 0.500960 -0.159140
C21   C     C_R   0.936046 0.374047 0.499137 -0.139895
C22   C     C_R   0.063954 0.625953 0.500862 -0.139895
Cu1   Cu    Cu3+1 0.500000 0.640660 0.500000 0.968800
Cu2   Cu    Cu3+1 0.500000 0.359340 0.500000 0.968800
H1    H     H_    0.492288 0.741807 0.073515 0.173537
H2    H     H_    0.507712 0.258192 0.926484 0.173537
H3    H     H_    0.684963 0.622254 0.930072 0.166128
H4    H     H_    0.315036 0.377746 0.069928 0.166128
H5    H     H_    0.111678 0.275478 0.498344 0.199411
H6    H     H_    0.888322 0.724521 0.501656 0.199411
H7    H     H_    0.888070 0.275492 0.498353 0.200139
H8    H     H_    0.111930 0.724508 0.501647 0.200139
N1    N     N_R   0.500000 0.852070 0.500000 -0.329111
N2    N     N_R   0.500000 0.147930 0.500000 -0.329111
O1    O     O_R   0.319640 0.618740 0.499990 -0.570751
O2    O     O_R   0.680360 0.381260 0.500010 -0.570751
O3    O     O_R   0.680360 0.618740 0.500010 -0.582035
O4    O     O_R   0.319640 0.381260 0.499990 -0.582035
O5    O     O_R   0.499970 0.618770 0.316850 -0.616794
O6    O     O_R   0.500030 0.381230 0.683150 -0.616794
O7    O     O_R   0.500030 0.618770 0.683150 -0.581024
O8    O     O_R   0.499970 0.381230 0.316850 -0.581024
O9    O     O_3   0.311297 0.137487 0.371484 -0.683970
H9    H     H_    0.343014 0.223280 0.334847 0.358269
O10   O     O_3   0.688703 0.862512 0.628516 -0.683970
H10   H     H_    0.656986 0.776720 0.665153 0.358269
O11   O     O_3   0.688242 0.136337 0.629053 -0.684890
H11   H     H_    0.656140 0.221670 0.665442 0.355780
O12   O     O_3   0.311758 0.863663 0.370947 -0.684890
H12   H     H_    0.343860 0.778330 0.334558 0.355780
O13   O     O_3   0.294587 0.625378 0.899033 -0.711168
H13   H     H_    0.246223 0.655788 0.970802 0.325128
O14   O     O_3   0.705413 0.374622 0.100967 -0.711168
H14   H     H_    0.753774 0.344206 0.029198 0.325127

loop_
_geom_bond_atom_site_label_1
_geom_bond_atom_site_label_2
_ccdc_geom_bond_type
C16   O10   S    
C2    C22   A    
C15   C18   A    
Cu2   O4    S    
O9    H9    S    
C4    O2    A    
C1    C21   A    
C8    C13   S    
Cu1   O3    S    
C16   N1    A    
C8    H2    S    
C15   N2    A    
C12   O14   S    
Cu1   O7    S    
C3    O1    A    
C8    C12   S    
C1    C4    S    
C2    C3    S    
C12   C14   S    
C15   O9    S    
C17   N2    A    
C20   H6    S    
O14   H14   S    
C6    C13   S    
C7    C11   S    
C21   H7    S    
C5    C14   S    
Cu2   O2    S    
C22   H8    S    
Cu1   O5    S    
C19   C21   A    
C20   C22   A    
Cu1   O1    S    
C10   C11   S    
C5    O5    A    
C9    C12   S    
C6    O6    A    
C11   O13   S    
C18   N1    A    
Cu1   Cu2   S    
O13   H13   S    
C19   H5    S    
C17   O11   S    
C11   C13   S    
Cu2   O8    S    
C4    O3    A    
C9    H3    S    
C5    O8    A    
C8    C10   S    
O12   H12   S    
C10   C14   S    
C10   H4    S    
C7    C9    S    
C9    C13   S    
C1    C20   A    
Cu2   O6    S    
C2    C19   A    
O10   H10   S    
C7    C14   S    
Cu2   N2    S    
O11   H11   S    
C18   O12   S    
C3    O4    A    
C16   C17   A    
Cu1   N1    S    
C6    O7    A    
C7    H1    S    
