data_mof_unit_40609.cif
_audit_creation_date              2012-10-26T19:41:55-0400
_audit_creation_method            fapswitch 2.2
_symmetry_space_group_name_H-M    P1
_symmetry_Int_Tables_number       1
_space_group_crystal_system       triclinic
_cell_length_a                    10.650522
_cell_length_b                    10.811741
_cell_length_c                    9.608548
_cell_angle_alpha                 89.72384
_cell_angle_beta                  89.484789
_cell_angle_gamma                 93.400312
_cell_volume                      1104.4224864

loop_
_atom_site_label
_atom_site_type_symbol
_atom_type_description
_atom_site_fract_x
_atom_site_fract_y
_atom_site_fract_z
_atom_type_partial_charge
C1    C     C_R   0.493754 0.262342 0.500565 0.539903
C2    C     C_R   0.401239 0.058313 0.593020 0.019821
C3    C     C_R   0.484106 0.127710 0.501524 0.000900
C4    C     C_R   0.259252 0.499058 0.500538 0.542991
C5    C     C_R   0.560509 0.067877 0.407568 -0.144512
C6    C     C_R   0.560824 0.940318 0.406893 -0.151228
C7    C     C_R   0.484349 0.869888 0.499797 0.006477
C8    C     C_R   0.667898 0.665757 0.141766 -0.086243
C9    C     C_R   0.750246 0.746957 0.068535 -0.171832
C10   C     C_R   0.750169 0.747372 0.925013 -0.165151
C11   C     C_R   0.667717 0.666614 0.853779 -0.083471
C12   C     C_3   0.965915 0.588148 0.405810 -0.125663
C13   C     C_R   0.582116 0.582131 0.924063 0.158888
C14   C     C_R   0.582231 0.581851 0.073606 0.161032
C15   C     C_R   0.422595 0.421208 0.075076 0.005022
C16   C     C_R   0.495226 0.736922 0.499849 0.520996
C17   C     C_R   0.423206 0.420837 0.927319 0.018523
C18   C     C_R   0.740448 0.503724 0.499399 0.543627
C19   C     C_3   0.031251 0.420179 0.592235 0.080079
C20   C     C_3   0.948737 0.390852 0.464602 -0.121721
C21   C     C_3   0.877057 0.505810 0.498233 0.015189
C22   C     C_3   0.957771 0.534396 0.626705 -0.114849
C23   C     C_3   0.040396 0.473045 0.372486 -0.131286
C24   C     C_3   0.049551 0.616077 0.534306 -0.146042
C25   C     C_2   0.060776 0.328558 0.702034 0.558850
C26   C     C_3   0.122054 0.500843 0.501373 0.018267
C27   C     C_R   0.316219 0.115226 0.682993 -0.089552
C28   C     C_R   0.236844 0.044440 0.772543 -0.089737
C29   C     C_R   0.234908 0.916118 0.768943 -0.124583
C30   C     C_R   0.314149 0.857678 0.677789 -0.107322
C31   C     C_R   0.400812 0.927312 0.591303 0.028395
Cu1   Cu    Cu3+1 0.499990 0.499990 0.640660 0.938127
Cu2   Cu    Cu3+1 0.500010 0.500010 0.359340 0.927994
H1    H     H_    0.904966 0.298771 0.436111 0.135176
H2    H     H_    0.361357 0.355083 0.873296 0.133741
H3    H     H_    0.922045 0.559521 0.731142 0.136765
H4    H     H_    0.092260 0.708508 0.562602 0.115608
H5    H     H_    0.935740 0.657215 0.329037 0.114361
H6    H     H_    0.076034 0.447888 0.268060 0.136985
H7    H     H_    0.307746 0.214065 0.683743 0.149757
H8    H     H_    0.174376 0.088966 0.843179 0.139935
H9    H     H_    0.130777 0.300766 0.893107 0.308396
H10   H     H_    0.623203 0.120482 0.336751 0.135365
H11   H     H_    0.170279 0.861491 0.835551 0.117729
H12   H     H_    0.304195 0.757854 0.674870 0.152710
H13   H     H_    0.623913 0.896441 0.335888 0.117954
H14   H     H_    0.359083 0.356489 0.131068 0.115268
H15   H     H_    0.675752 0.672494 0.251531 0.174208
H16   H     H_    0.814767 0.809928 0.123871 0.114181
H17   H     H_    0.814741 0.810600 0.868104 0.127434
H18   H     H_    0.675834 0.674173 0.743842 0.180310
N1    N     N_R   0.501210 0.501210 0.147910 -0.245033
N2    N     N_R   0.501250 0.501290 0.852040 -0.244865
O1    O     O_R   0.499990 0.319640 0.618810 -0.503975
O2    O     O_R   0.121955 0.369629 0.822625 -0.715855
O3    O     O_R   0.500000 0.319660 0.381240 -0.501807
O4    O     O_R   0.316850 0.499960 0.618770 -0.486187
O5    O     O_R   0.316860 0.499980 0.381190 -0.504034
O6    O     O_R   0.500000 0.680340 0.618760 -0.533015
O7    O     O_R   0.500010 0.680360 0.381190 -0.518284
O8    O     O_R   0.683140 0.500020 0.618810 -0.516625
O9    O     O_R   0.683150 0.500040 0.381230 -0.517885
O10   O     O_2   0.026239 0.219553 0.688504 -0.550204

loop_
_geom_bond_atom_site_label_1
_geom_bond_atom_site_label_2
_ccdc_geom_bond_type
C4    O4    A    
C8    C9    A    
Cu2   O5    S    
C4    C26   S    
C1    O1    A    
C8    H15   S    
C18   O8    A    
C6    C7    A    
H9    O2    S    
C18   C21   S    
C22   H3    S    
C9    C10   A    
C28   H8    S    
C30   H12   S    
C19   C20   S    
C20   C23   S    
C15   H14   S    
C27   H7    S    
C20   H1    S    
Cu1   Cu2   S    
Cu2   O3    S    
C15   N1    A    
C24   H4    S    
C5    H10   S    
C13   C14   A    
Cu2   N1    S    
C11   C13   A    
C12   C23   S    
C6    H13   S    
C2    C27   A    
Cu1   O4    S    
C23   H6    S    
Cu1   O1    S    
C28   C29   A    
C1    O3    A    
C24   C26   S    
Cu1   O8    S    
C2    C3    A    
Cu2   O7    S    
C13   N2    A    
C29   H11   S    
C12   H5    S    
C5    C6    A    
C19   C25   S    
C22   C24   S    
C11   H18   S    
C10   C11   A    
C14   N1    A    
C29   C30   A    
C10   H17   S    
C17   N2    A    
Cu1   N2    S    
C19   C22   S    
C9    H16   S    
C20   C21   S    
C25   O10   D    
C23   C26   S    
C4    O5    A    
C27   C28   A    
C15   C17   A    
C19   C26   S    
C12   C24   S    
C30   C31   A    
C7    C16   S    
C8    C14   A    
C17   H2    S    
Cu1   O6    S    
C3    C5    A    
C21   C22   S    
C16   O7    A    
Cu2   O9    S    
C12   C21   S    
C7    C31   A    
C18   O9    A    
C25   O2    S    
C2    C31   A    
C1    C3    S    
C16   O6    A    
