data_mof_unit_37115.cif
_audit_creation_date              2012-10-26T21:05:22-0400
_audit_creation_method            fapswitch 2.2
_symmetry_space_group_name_H-M    P1
_symmetry_Int_Tables_number       1
_space_group_crystal_system       triclinic
_cell_length_a                    9.615538
_cell_length_b                    10.795937
_cell_length_c                    13.880241
_cell_angle_alpha                 92.303371
_cell_angle_beta                  84.890953
_cell_angle_gamma                 91.001416
_cell_volume                      1433.86632853

loop_
_atom_site_label
_atom_site_type_symbol
_atom_type_description
_atom_site_fract_x
_atom_site_fract_y
_atom_site_fract_z
_atom_type_partial_charge
C1    C     C_R   0.501062 0.737233 0.502405 0.592575
C2    C     C_R   0.494390 0.939527 0.592166 0.182316
C3    C     C_R   0.470722 0.068004 0.592031 0.213661
C4    C     C_R   0.477422 0.501807 0.682798 0.654461
C5    C     C_R   0.493847 0.128847 0.503432 -0.035862
C6    C     C_R   0.869910 0.335331 0.371637 -0.075674
C7    C     C_R   0.948469 0.253687 0.310062 -0.158913
C8    C     C_R   0.091641 0.252885 0.310864 -0.157432
C9    C     C_R   0.157164 0.333961 0.373059 -0.072651
C10   C     C_R   0.081313 0.418500 0.437526 0.162465
C11   C     C_R   0.931893 0.418884 0.437192 0.159544
C12   C     C_1   0.464395 0.507066 0.786020 0.105300
C13   C     C_R   0.920091 0.577216 0.559648 0.014835
C14   C     C_R   0.067828 0.577264 0.559576 0.016094
C15   C     C_R   0.498062 0.263097 0.503839 0.584746
C16   C     C_R   0.522574 0.498577 0.317207 0.499980
C17   C     C_1   0.535883 0.493495 0.214010 -0.037678
C18   C     C_2   0.557292 0.481208 0.023062 0.094534
C19   C     C_2   0.449261 0.516714 0.976715 -0.050195
C20   C     C_1   0.455759 0.511764 0.872907 0.040157
C21   C     C_1   0.546400 0.488048 0.127106 -0.053773
C22   C     C_R   0.531972 0.863626 0.323906 -0.081955
C23   C     C_R   0.547731 0.924562 0.236876 -0.101487
C24   C     C_R   0.548212 0.053358 0.237383 -0.112983
C25   C     C_R   0.532044 0.121664 0.324884 -0.110011
C26   C     C_R   0.515536 0.061610 0.414187 -0.027740
C27   C     C_R   0.516309 0.931185 0.413705 -0.022510
C28   C     C_R   0.505053 0.871429 0.502750 -0.043415
Cu1   Cu    Cu3+1 0.359340 0.500010 0.500010 1.009589
Cu2   Cu    Cu3+1 0.640660 0.499990 0.499990 1.006893
H1    H     H_    0.354440 0.550479 0.016998 0.111563
H2    H     H_    0.531089 0.221553 0.321610 0.092101
H3    H     H_    0.860206 0.640588 0.608607 0.167504
H4    H     H_    0.765868 0.492183 0.990847 0.246789
H5    H     H_    0.699318 0.346580 0.992824 0.238929
H6    H     H_    0.672579 0.990146 0.758714 0.357053
H7    H     H_    0.505580 0.235161 0.819991 0.369181
H8    H     H_    0.761279 0.328611 0.364236 0.175442
H9    H     H_    0.897524 0.190726 0.261145 0.132582
H10   H     H_    0.152821 0.189269 0.262610 0.134657
H11   H     H_    0.267390 0.326217 0.367065 0.174619
H12   H     H_    0.117836 0.640711 0.608476 0.147667
H13   H     H_    0.533346 0.763480 0.320018 0.121502
H14   H     H_    0.559971 0.871585 0.168833 0.133188
H15   H     H_    0.560415 0.100589 0.169741 0.125189
N1    N     N_R   0.852210 0.498790 0.499090 -0.250143
N2    N     N_R   0.148080 0.498710 0.499060 -0.245465
N3    N     N_3   0.682781 0.436123 0.970565 -0.589636
O1    O     O_R   0.381190 0.680360 0.500010 -0.500309
O2    O     O_2   0.626304 0.763570 0.683656 -0.322024
O3    O     O_3   0.578861 0.963113 0.786251 -0.433640
O4    O     O_2   0.302758 0.248302 0.677075 -0.267692
O5    O     O_2   0.327756 0.067012 0.770510 -0.193012
O6    O     O_3   0.538618 0.221625 0.750781 -0.530539
O7    O     O_R   0.618760 0.680340 0.500000 -0.474137
O8    O     O_R   0.364420 0.499990 0.637850 -0.464533
O9    O     O_R   0.601990 0.499960 0.637840 -0.456887
O10   O     O_R   0.381240 0.319660 0.500000 -0.489705
O11   O     O_R   0.618810 0.319640 0.499990 -0.516884
O12   O     O_R   0.398010 0.500040 0.362160 -0.529300
O13   O     O_R   0.635580 0.500010 0.362150 -0.530648
O14   O     O_2   0.384238 0.807219 0.740926 -0.239925
S1    S     S_3+6 0.520349 0.864147 0.701816 0.057754
S2    S     S_3+6 0.404074 0.151783 0.699832 0.053887

loop_
_geom_bond_atom_site_label_1
_geom_bond_atom_site_label_2
_ccdc_geom_bond_type
C4    O9    A    
C1    C28   S    
C23   C24   A    
C6    H8    S    
C24   C25   A    
C13   H3    S    
C6    C7    A    
O14   S1    D    
Cu1   O8    S    
C4    C12   S    
C18   C21   S    
H7    O6    S    
Cu2   O7    S    
C9    H11   S    
C19   C20   S    
Cu1   O12   S    
C14   H12   S    
C19   H1    S    
Cu2   O11   S    
C12   C20   T    
C25   H2    S    
C2    C3    A    
C1    O7    A    
C7    C8    A    
Cu1   O1    S    
C13   C14   A    
C4    O8    A    
O2    S1    D    
C26   C27   A    
Cu1   Cu2   S    
H6    O3    S    
O6    S2    S    
Cu1   N2    S    
C16   O12   A    
C24   H15   S    
C16   O13   A    
O5    S2    D    
C14   N2    A    
C22   C27   A    
C22   C23   A    
O4    S2    D    
C13   N1    A    
C15   O10   A    
C15   O11   A    
C5    C15   S    
H4    N3    S    
C10   C11   A    
H5    N3    S    
C5    C26   A    
Cu2   O9    S    
C6    C11   A    
O3    S1    S    
Cu1   O10   S    
C18   C19   D    
C9    C10   A    
Cu2   O13   S    
C27   C28   A    
C7    H9    S    
C2    S1    S    
C16   C17   S    
C11   N1    A    
C2    C28   A    
C8    H10   S    
C25   C26   A    
C3    S2    S    
C10   N2    A    
C1    O1    A    
Cu2   N1    S    
C17   C21   T    
C23   H14   S    
C22   H13   S    
C8    C9    A    
C3    C5    A    
C18   N3    S    
