data_mof_unit_28363.cif
_audit_creation_date              2012-12-10T18:48:23-0500
_audit_creation_method            fapswitch 2.2
_symmetry_space_group_name_H-M    P1
_symmetry_Int_Tables_number       1
_space_group_crystal_system       triclinic
_cell_length_a                    10.539414
_cell_length_b                    9.988124
_cell_length_c                    11.491657
_cell_angle_alpha                 89.999953
_cell_angle_beta                  91.200654
_cell_angle_gamma                 89.999881
_cell_volume                      1209.44934129

loop_
_atom_site_label
_atom_site_type_symbol
_atom_type_description
_atom_site_fract_x
_atom_site_fract_y
_atom_site_fract_z
_atom_type_partial_charge
C1    C     C_R   0.260719 0.500000 0.499822 0.858156
C2    C     C_R   0.932315 0.500008 0.393638 -0.243028
C3    C     C_R   0.937335 0.499993 0.606246 -0.191619
C4    C     C_R   0.062665 0.500008 0.393754 -0.191619
C5    C     C_R   0.871681 0.500000 0.499990 0.029107
C6    C     C_R   0.128319 0.500000 0.500010 0.029107
C7    C     C_R   0.577005 0.071730 0.575608 -0.022272
C8    C     C_R   0.422995 0.928270 0.424391 -0.022271
C9    C     C_R   0.422994 0.071730 0.424392 -0.022271
C10   C     C_R   0.577005 0.928270 0.575609 -0.022271
C11   C     C_R   0.661879 0.142273 0.659264 0.189906
C12   C     C_R   0.739281 0.500000 0.500178 0.858156
C13   C     C_R   0.789705 0.162970 0.632239 -0.118586
C14   C     C_R   0.875437 0.209616 0.717382 -0.155878
C15   C     C_R   0.834102 0.236929 0.829669 -0.133349
C16   C     C_R   0.707476 0.214700 0.857714 -0.142497
C17   C     C_R   0.622048 0.165415 0.773419 -0.119170
C18   C     C_R   0.338124 0.857727 0.340732 0.189905
C19   C     C_R   0.377961 0.834587 0.226577 -0.119173
C20   C     C_R   0.292536 0.785302 0.142279 -0.142494
C21   C     C_R   0.165909 0.763069 0.170320 -0.133346
C22   C     C_R   0.124569 0.790380 0.282606 -0.155881
C23   C     C_R   0.499860 0.500000 0.282311 0.905386
C24   C     C_R   0.210298 0.837026 0.367753 -0.118583
C25   C     C_R   0.338116 0.142273 0.340740 0.189903
C26   C     C_R   0.210290 0.162966 0.367769 -0.118590
C27   C     C_R   0.124555 0.209618 0.282631 -0.155864
C28   C     C_R   0.165886 0.236941 0.170345 -0.133352
C29   C     C_R   0.292512 0.214715 0.142295 -0.142502
C30   C     C_R   0.377944 0.165426 0.226585 -0.119159
C31   C     C_R   0.661881 0.857726 0.659263 0.189903
C32   C     C_R   0.622050 0.834577 0.773417 -0.119163
C33   C     C_R   0.707479 0.785287 0.857710 -0.142501
C34   C     C_R   0.500140 0.500000 0.717689 0.905386
C35   C     C_R   0.834106 0.763059 0.829662 -0.133350
C36   C     C_R   0.875440 0.790379 0.717377 -0.155867
C37   C     C_R   0.789707 0.837031 0.632236 -0.118587
C38   C     C_1   0.500081 0.500000 0.161749 -0.190078
C39   C     C_1   0.499919 0.500000 0.838251 -0.190079
C40   C     C_1   0.500083 0.500000 0.059378 -0.042710
C41   C     C_1   0.499917 0.500000 0.940622 -0.042710
C42   C     C_R   0.067685 0.499992 0.606362 -0.243027
H1    H     H_    0.120957 0.499986 0.688092 0.122573
H2    H     H_    0.474829 0.855858 0.202845 0.113245
H3    H     H_    0.324093 0.766292 0.054784 0.131993
H4    H     H_    0.099497 0.726219 0.104723 0.120453
H5    H     H_    0.025891 0.775887 0.303602 0.140139
H6    H     H_    0.176589 0.860178 0.453860 0.115260
H7    H     H_    0.176588 0.139805 0.453877 0.115255
H8    H     H_    0.025878 0.224106 0.303633 0.140140
H9    H     H_    0.099469 0.273795 0.104754 0.120454
H10   H     H_    0.324062 0.233735 0.054799 0.131996
H11   H     H_    0.474811 0.144161 0.202846 0.113248
H12   H     H_    0.879043 0.500014 0.311908 0.122573
H13   H     H_    0.525182 0.855843 0.797154 0.113246
H14   H     H_    0.675927 0.766270 0.945205 0.131996
H15   H     H_    0.900521 0.726205 0.895255 0.120453
H16   H     H_    0.974117 0.775888 0.696376 0.140139
H17   H     H_    0.823411 0.860190 0.546129 0.115257
H18   H     H_    0.887699 0.499988 0.687909 0.147046
H19   H     H_    0.112301 0.500012 0.312091 0.147046
H20   H     H_    0.823410 0.139816 0.546131 0.115258
H21   H     H_    0.974114 0.224107 0.696384 0.140140
H22   H     H_    0.900517 0.273779 0.895264 0.120455
H23   H     H_    0.675922 0.233713 0.945210 0.131994
H24   H     H_    0.525180 0.144147 0.797154 0.113247
N1    N     N_R   0.500000 0.857200 0.500000 -0.118740
N2    N     N_R   0.500000 0.142800 0.500000 -0.118740
O1    O     O_R   0.316770 0.614620 0.499990 -0.616569
O2    O     O_R   0.683230 0.385380 0.500010 -0.616568
O3    O     O_R   0.683230 0.614620 0.500010 -0.616565
O4    O     O_R   0.316770 0.385380 0.499990 -0.616564
O5    O     O_R   0.500020 0.614670 0.334450 -0.612735
O6    O     O_R   0.499980 0.385330 0.665550 -0.612736
O7    O     O_R   0.499980 0.614670 0.665550 -0.612737
O8    O     O_R   0.500020 0.385330 0.334450 -0.612739
Zn1   Zn    Zn3+2 0.500000 0.653120 0.500000 0.944008
Zn2   Zn    Zn3+2 0.500000 0.346880 0.500000 0.944008

loop_
_geom_bond_atom_site_label_1
_geom_bond_atom_site_label_2
_ccdc_geom_bond_type
C7    C10   A    
C3    C42   A    
O2    Zn2   S    
O1    Zn1   S    
C19   C20   A    
N1    Zn1   S    
C23   O8    A    
C9    C25   S    
C39   C41   T    
C10   N1    A    
C7    C11   S    
C26   C27   A    
C18   C24   A    
C36   C37   A    
O8    Zn2   S    
C36   H16   S    
C28   H9    S    
C15   C16   A    
C18   C19   A    
O4    Zn2   S    
C7    N2    A    
C10   C31   S    
C11   C17   A    
C13   H20   S    
C35   C36   A    
C8    C9    A    
C15   H22   S    
C32   H13   S    
C20   H3    S    
C27   H8    S    
C34   O7    A    
C3    H18   S    
C33   H14   S    
C22   H5    S    
C21   C22   A    
C23   O5    A    
N2    Zn2   S    
C30   H11   S    
C1    O4    A    
C34   C39   S    
C24   H6    S    
C5    C12   S    
C4    C6    A    
C2    H12   S    
C26   H7    S    
C16   C17   A    
C25   C26   A    
C4    H19   S    
C8    C18   S    
C31   C37   A    
C2    C4    A    
C29   C30   A    
C31   C32   A    
C17   H24   S    
O7    Zn1   S    
C37   H17   S    
C34   O6    A    
C40   C41   S    
C12   O3    A    
C6    C42   A    
C22   C24   A    
C2    C5    A    
C42   H1    S    
O3    Zn1   S    
C19   H2    S    
C21   H4    S    
C25   C30   A    
C12   O2    A    
C28   C29   A    
C1    C6    S    
C3    C5    A    
C23   C38   S    
C35   H15   S    
C32   C33   A    
C9    N2    A    
C38   C40   T    
C11   C13   A    
C14   H21   S    
C33   C35   A    
C1    O1    A    
C20   C21   A    
C8    N1    A    
O6    Zn2   S    
C27   C28   A    
O5    Zn1   S    
C14   C15   A    
C16   H23   S    
C13   C14   A    
C29   H10   S    
