data_mof_unit_45421.cif
_audit_creation_date              2012-12-11T14:49:25-0500
_audit_creation_method            fapswitch 2.2
_symmetry_space_group_name_H-M    P1
_symmetry_Int_Tables_number       1
_space_group_crystal_system       triclinic
_cell_length_a                    16.898735
_cell_length_b                    16.736095
_cell_length_c                    19.423754
_cell_angle_alpha                 117.864053
_cell_angle_beta                  62.205004
_cell_angle_gamma                 100.858955
_cell_volume                      4293.09126078

loop_
_atom_site_label
_atom_site_type_symbol
_atom_type_description
_atom_site_fract_x
_atom_site_fract_y
_atom_site_fract_z
_atom_type_partial_charge
C1    C     C_R   0.041584 0.759338 0.010107 -0.135119
C2    C     C_R   0.251789 0.521091 0.827455 -0.126497
C3    C     C_R   0.182903 0.490252 0.088215 -0.136128
C4    C     C_R   0.764262 0.418478 0.164254 -0.143817
C5    C     C_R   0.988124 0.340553 0.759139 -0.145949
C6    C     C_R   0.257023 0.540840 0.065779 0.068339
C7    C     C_R   0.939649 0.264012 0.758601 0.083999
C8    C     C_R   0.258601 0.460118 0.745591 0.071373
C9    C     C_R   0.028108 0.222420 0.003390 0.066021
C10   C     C_R   0.924900 0.219791 0.623591 -0.253482
C11   C     C_R   0.902674 0.206168 0.696563 0.105092
C12   C     C_R   0.767523 0.436912 0.240208 0.084007
C13   C     C_R   0.850765 0.132739 0.706229 -0.246493
C14   C     C_R   0.832933 0.066306 0.638326 0.164947
C15   C     C_R   0.865798 0.074516 0.560810 0.029223
C16   C     C_R   0.804712 0.560404 0.961446 -0.119430
C17   C     C_R   0.907731 0.153883 0.555134 0.142871
C18   C     C_R   0.789087 0.988555 0.644470 -0.328886
C19   C     C_R   0.786336 0.914044 0.571353 -0.048357
C20   C     C_R   0.832781 0.916987 0.489985 0.105350
C21   C     C_R   0.866019 0.999790 0.486389 0.005382
C22   C     C_R   0.909240 0.005095 0.406515 0.152975
C23   C     C_R   0.723268 0.548807 0.022472 0.059895
C24   C     C_R   0.940546 0.087769 0.403781 -0.207925
C25   C     C_R   0.939899 0.162044 0.477989 -0.199695
C26   C     C_R   0.858014 0.838215 0.411947 -0.195361
C27   C     C_R   0.913481 0.842057 0.332767 0.084706
C28   C     C_R   0.952549 0.672849 0.249002 -0.133035
C29   C     C_R   0.930267 0.925985 0.330003 -0.244049
C30   C     C_R   0.424421 0.434369 0.671103 -0.233042
C31   C     C_R   0.341440 0.415686 0.667551 0.115468
C32   C     C_R   0.339058 0.362250 0.587318 -0.252020
C33   C     C_R   0.417642 0.341429 0.510877 0.145379
C34   C     C_R   0.961003 0.759584 0.255227 0.074509
C35   C     C_R   0.499744 0.371978 0.515022 0.033745
C36   C     C_R   0.503629 0.414129 0.595156 0.092053
C37   C     C_R   0.414127 0.298600 0.430877 -0.204421
C38   C     C_R   0.489348 0.295054 0.356632 -0.211059
C39   C     C_R   0.568404 0.334481 0.362046 0.155148
C40   C     C_R   0.738363 0.483626 0.040397 -0.122713
C41   C     C_R   0.575643 0.368529 0.440407 0.047823
C42   C     C_R   0.655622 0.407433 0.446128 0.023484
C43   C     C_R   0.662667 0.438054 0.524628 -0.060575
C44   C     C_R   0.585517 0.442135 0.598842 -0.187780
C45   C     C_R   0.250048 0.569434 0.012450 -0.140881
C46   C     C_R   0.636426 0.348717 0.293054 -0.256563
C47   C     C_R   0.709550 0.400050 0.302654 0.123021
C48   C     C_R   0.721851 0.423384 0.376446 -0.251804
C49   C     C_R   0.636692 0.592879 0.058065 0.127879
C50   C     C_R   0.323723 0.568612 0.100219 0.128073
C51   C     C_R   0.402577 0.538107 0.162733 -0.218080
C52   C     C_R   0.023077 0.753059 0.174098 -0.119080
C53   C     C_R   0.326999 0.529765 0.149259 -0.172927
C54   C     C_R   0.391205 0.626165 0.075411 -0.275467
C55   C     C_R   0.469266 0.629862 0.083558 0.184735
C56   C     C_R   0.921094 0.261587 0.835047 -0.134494
C57   C     C_R   0.476368 0.581945 0.124047 0.185743
C58   C     C_R   0.559798 0.567913 0.114748 -0.269149
C59   C     C_R   0.628154 0.650656 0.027573 -0.160978
C60   C     C_R   0.544117 0.670480 0.041726 -0.217635
C61   C     C_R   0.832496 0.182296 0.147186 0.118723
C62   C     C_R   0.963385 0.863471 0.994467 0.127583
C63   C     C_R   0.889499 0.950316 0.967650 -0.223479
C64   C     C_R   0.842777 0.487151 0.240041 -0.125614
C65   C     C_R   0.928777 0.869322 0.943611 -0.172927
C66   C     C_R   0.960815 0.941492 0.068562 -0.273212
C67   C     C_R   0.172520 0.451402 0.751002 -0.127612
C68   C     C_R   0.920400 0.022783 0.093792 0.188121
C69   C     C_R   0.883300 0.026819 0.043473 0.189307
C70   C     C_R   0.839152 0.106826 0.070922 -0.283909
C71   C     C_R   0.869972 0.178816 0.196400 -0.154899
C72   C     C_R   0.913811 0.099435 0.170020 -0.226594
C73   C     C_R   0.963438 0.690315 0.933927 -0.132379
C74   C     C_R   0.991475 0.774526 0.977188 0.058911
C75   C     C_2   0.736814 0.834803 0.583488 0.503051
C76   C     C_2   0.748642 0.467196 0.531255 0.534307
C77   C     C_R   0.051064 0.307625 0.051847 -0.126210
C78   C     C_R   0.972884 0.238621 0.975340 -0.117113
H1    H     H_    0.084016 0.807515 0.036378 0.088403
H2    H     H_    0.842943 0.773518 0.413493 0.159433
H3    H     H_    0.967925 0.930180 0.269035 0.112942
H4    H     H_    0.971919 0.092998 0.343079 0.122474
H5    H     H_    0.970447 0.223499 0.473440 0.130176
H6    H     H_    0.427861 0.471122 0.732492 0.119187
H7    H     H_    0.276037 0.343214 0.583255 0.117821
H8    H     H_    0.483795 0.267161 0.296303 0.129860
H9    H     H_    0.627447 0.326824 0.235327 0.113439
H10   H     H_    0.815980 0.602253 0.929728 0.091406
H11   H     H_    0.778879 0.461540 0.382865 0.107015
H12   H     H_    0.873890 0.219443 0.862758 0.083853
H13   H     H_    0.588340 0.470458 0.660513 0.170585
H14   H     H_    0.564563 0.527969 0.143262 0.119515
H15   H     H_    0.686034 0.675316 0.987653 0.120416
H16   H     H_    0.274654 0.487548 0.171958 0.115499
H17   H     H_    0.388469 0.660053 0.040901 0.117440
H18   H     H_    0.809619 0.111099 0.033767 0.117624
H19   H     H_    0.910326 0.651103 0.298632 0.104097
H20   H     H_    0.864499 0.237705 0.255310 0.121406
H21   H     H_    0.862017 0.952478 0.928049 0.127479
H22   H     H_    0.941654 0.097650 0.209519 0.123157
H23   H     H_    0.152087 0.408985 0.700398 0.096457
H24   H     H_    0.930282 0.810774 0.886021 0.120427
H25   H     H_    0.985954 0.938006 0.109256 0.116036
H26   H     H_    0.690951 0.456033 0.083792 0.095660
H27   H     H_    0.048853 0.808210 0.157125 0.085884
H28   H     H_    0.874144 0.501466 0.281742 0.084762
H29   H     H_    0.932990 0.675113 0.891436 0.087582
H30   H     H_    0.288296 0.620308 0.992267 0.089191
H31   H     H_    0.002381 0.371997 0.717280 0.091439
H32   H     H_    0.829830 0.122909 0.763428 0.117310
H33   H     H_    0.723378 0.369597 0.136173 0.084624
H34   H     H_    0.091396 0.321289 0.085684 0.098470
H35   H     H_    0.725332 0.825213 0.638948 0.015132
H36   H     H_    0.351823 0.273345 0.426641 0.131084
H37   H     H_    0.811922 0.449432 0.473809 -0.016620
H38   H     H_    0.406731 0.502378 0.195343 0.128279
H39   H     H_    0.539113 0.709383 0.012202 0.130844
H40   H     H_    0.940484 0.188034 0.937862 0.096514
H41   H     H_    0.304850 0.543503 0.847606 0.097631
H42   H     H_    0.159460 0.468333 0.138560 0.085049
H43   H     H_    0.962005 0.277582 0.616086 0.119684
H44   H     H_    0.759699 0.984696 0.705782 0.129954
N1    N     N_R   0.036080 0.671900 0.995420 -0.037684
N2    N     N_R   0.867430 0.509300 0.948100 -0.039824
N3    N     N_R   0.003360 0.617250 0.167070 -0.041827
N4    N     N_R   0.825450 0.461270 0.995400 -0.041603
N5    N     N_R   0.045340 0.665280 0.119770 -0.040590
N6    N     N_R   0.883740 0.497640 0.167070 -0.039781
N7    N     N_R   0.987050 0.628910 0.948110 -0.038026
N8    N     N_R   0.174550 0.538730 0.004600 -0.039368
N9    N     N_R   0.954660 0.334720 0.880230 -0.039436
N10   N     N_R   0.116260 0.502360 0.832930 -0.042132
N11   N     N_R   0.012950 0.371090 0.051890 -0.042740
N12   N     N_R   0.963920 0.328100 0.004580 -0.043131
N13   N     N_R   0.165290 0.545350 0.880240 -0.042184
N14   N     N_R   0.132570 0.490700 0.051900 -0.038256
N15   N     N_R   0.996640 0.382750 0.832930 -0.039593
N16   N     N_R   0.834710 0.454650 0.119760 -0.038267
Ni1   Ni    Ni4+2 0.104370 0.604370 0.000010 0.215361
Ni2   Ni    Ni4+2 0.895630 0.395630 0.999990 0.209082
Ni3   Ni    Ni4+2 0.991920 0.505780 0.891500 0.218260
Ni4   Ni    Ni4+2 0.008080 0.494220 0.108500 0.210408
O1    O     O_2   0.704100 0.782429 0.535060 -0.581197
O2    O     O_2   0.750050 0.510189 0.601643 -0.590497

loop_
_geom_bond_atom_site_label_1
_geom_bond_atom_site_label_2
_ccdc_geom_bond_type
C28   H19   S    
C61   C70   A    
C66   C68   A    
C63   C65   A    
C6    C45   A    
C27   C29   A    
C41   C42   A    
C14   C18   A    
C67   N10   A    
C3    C6    A    
C58   H14   S    
C39   C41   A    
C7    C11   S    
N4    Ni2   S    
C26   C27   A    
C50   C54   A    
N5    Ni1   S    
C38   H8    S    
C1    C74   A    
C7    C56   A    
C22   C29   A    
C18   C19   A    
N12   Ni2   S    
C30   C31   A    
C12   C64   A    
C23   C49   S    
N7    Ni3   S    
C10   C17   A    
C23   C40   A    
N1    Ni1   S    
C43   C76   S    
C76   H37   S    
C3    N14   A    
C73   C74   A    
N6    N16   A    
N14   Ni4   S    
N9    Ni2   S    
C13   C14   A    
C54   C55   A    
C63   C69   A    
C68   C69   A    
C64   N6    A    
C63   H21   S    
C51   C57   A    
C24   H4    S    
C4    C12   A    
C45   H30   S    
C61   C71   A    
C56   H12   S    
C28   C34   A    
C45   N8    A    
C55   C60   A    
N1    N7    A    
C77   N11   A    
C65   H24   S    
C12   C47   S    
N8    Ni1   S    
C52   N5    A    
C27   C34   S    
C71   H20   S    
C73   N7    A    
C50   C53   A    
C62   C66   A    
C24   C25   A    
C3    H42   S    
C5    C7    A    
C42   C48   A    
C37   H36   S    
C33   C37   A    
C49   C58   A    
C51   C53   A    
C35   C36   A    
C77   H34   S    
C70   H18   S    
C43   C44   A    
C1    N1    A    
C29   H3    S    
C37   C38   A    
N9    N15   A    
C40   H26   S    
C47   C48   A    
C15   C21   A    
N3    Ni4   S    
C68   C72   A    
C40   N4    A    
N11   Ni4   S    
C60   H39   S    
C9    C77   A    
C6    C50   S    
C5    N15   A    
C78   N12   A    
C13   H32   S    
C54   H17   S    
C44   H13   S    
C75   O1    D    
C18   H44   S    
C39   C46   A    
C75   H35   S    
C76   O2    D    
C4    H33   S    
C52   H27   S    
C16   C23   A    
C48   H11   S    
C55   C57   A    
N11   N12   A    
C1    H1    S    
C22   C24   A    
N2    Ni3   S    
C36   C44   A    
C42   C43   A    
C28   N3    A    
C67   H23   S    
N2    N4    A    
C46   H9    S    
C72   H22   S    
N10   Ni3   S    
C15   C17   A    
N15   Ni3   S    
C46   C47   A    
C62   C65   A    
C78   H40   S    
C53   H16   S    
C8    C31   S    
C66   H25   S    
C31   C32   A    
N8    N14   A    
C51   H38   S    
C2    H41   S    
C64   H28   S    
N16   Ni2   S    
C59   H15   S    
N13   Ni1   S    
C34   C52   A    
C2    N13   A    
C49   C59   A    
C30   C36   A    
C17   C25   A    
C32   C33   A    
C19   C20   A    
C19   C75   S    
C16   N2    A    
C71   C72   A    
C25   H5    S    
C11   C13   A    
C57   C58   A    
C38   C39   A    
C20   C26   A    
N10   N13   A    
C16   H10   S    
C32   H7    S    
C33   C35   A    
C10   H43   S    
C9    C78   A    
C30   H6    S    
C69   C70   A    
C35   C41   A    
C26   H2    S    
C56   N9    A    
C73   H29   S    
C10   C11   A    
C4    N16   A    
C59   C60   A    
C20   C21   A    
C8    C67   A    
C2    C8    A    
N3    N5    A    
C14   C15   A    
C62   C74   S    
C5    H31   S    
C21   C22   A    
N6    Ni4   S    
