data_mof_unit_36076.cif
_audit_creation_date              2012-12-10T16:49:31-0500
_audit_creation_method            fapswitch 2.2
_symmetry_space_group_name_H-M    P1
_symmetry_Int_Tables_number       1
_space_group_crystal_system       triclinic
_cell_length_a                    7.858761
_cell_length_b                    8.746258
_cell_length_c                    12.775551
_cell_angle_alpha                 87.208745
_cell_angle_beta                  86.252828
_cell_angle_gamma                 91.175019
_cell_volume                      874.960181239

loop_
_atom_site_label
_atom_site_type_symbol
_atom_type_description
_atom_site_fract_x
_atom_site_fract_y
_atom_site_fract_z
_atom_type_partial_charge
C1    C     C_R   0.456955 0.206515 0.499842 0.968864
C2    C     C_R   0.646804 0.361902 0.144281 -0.086731
C3    C     C_R   0.510546 0.408913 0.874826 0.123846
C4    C     C_R   0.500883 0.604744 0.124601 0.104567
C5    C     C_R   0.540611 0.441208 0.977532 0.074613
C6    C     C_R   0.478680 0.577747 0.019599 0.081028
C7    C     C_2   0.436336 0.047429 0.489125 -0.017202
C8    C     C_2   0.559689 0.951587 0.516694 -0.083930
C9    C     C_2   0.741186 0.246948 0.204999 0.979395
C10   C     C_2   0.268867 0.764453 0.790921 0.940754
C11   C     C_R   0.541926 0.793262 0.502698 0.908534
C12   C     C_R   0.463684 0.507109 0.699474 0.884189
C13   C     C_R   0.536681 0.495844 0.300333 0.938897
C14   C     C_R   0.566193 0.488471 0.188495 -0.166103
C15   C     C_R   0.436003 0.519240 0.811057 -0.148358
C16   C     C_R   0.389384 0.680451 0.957251 -0.175213
C17   C     C_R   0.634946 0.341178 0.038313 -0.175991
C18   C     C_R   0.366094 0.652355 0.852896 -0.092371
H1    H     H_    0.333898 0.781684 0.989192 0.207554
H2    H     H_    0.695773 0.243062 0.005352 0.200946
H3    H     H_    0.743265 0.097591 0.329457 0.361373
H4    H     H_    0.082746 0.802287 0.692026 0.365049
I1    I     I_    0.458245 0.825343 0.185654 -0.250279
I2    I     I_    0.557474 0.187183 0.817318 -0.205872
I3    I     I_    0.991252 0.647108 0.331361 -0.098620
I4    I     I_    0.010319 0.349529 0.667137 -0.048539
I5    I     I_    0.207492 0.995206 0.412257 -0.150894
I6    I     I_    0.786816 0.003439 0.594213 -0.205033
N1    N     N_2   0.054030 0.541640 0.471970 0.027401
N2    N     N_2   0.945970 0.458360 0.528030 0.033427
O1    O     O_R   0.609680 0.261530 0.506880 -0.586786
O2    O     O_R   0.666609 0.176348 0.297291 -0.799431
O3    O     O_2   0.295684 0.901485 0.797808 -0.588408
O4    O     O_R   0.139193 0.714644 0.730098 -0.748910
O5    O     O_R   0.390320 0.738470 0.493120 -0.599256
O6    O     O_R   0.323330 0.288220 0.488910 -0.603695
O7    O     O_R   0.676670 0.711780 0.511090 -0.600888
O8    O     O_R   0.619510 0.488830 0.661140 -0.593158
O9    O     O_R   0.380490 0.511170 0.338860 -0.584979
O10   O     O_R   0.333160 0.515520 0.643180 -0.579207
O11   O     O_R   0.666840 0.484480 0.356820 -0.610190
O12   O     O_2   0.882662 0.209192 0.171355 -0.575180
Zn1   Zn    Zn3+2 0.691200 0.482180 0.511990 1.082293
Zn2   Zn    Zn3+2 0.308800 0.517820 0.488010 1.092495

loop_
_geom_bond_atom_site_label_1
_geom_bond_atom_site_label_2
_ccdc_geom_bond_type
O7    Zn1   S    
C15   C18   A    
C12   O10   A    
N1    N2    D    
C12   C15   S    
O10   Zn2   S    
C13   O11   A    
C9    O12   D    
C3    C15   A    
C7    C8    D    
C10   O4    S    
C13   C14   S    
C2    C17   A    
C4    C14   A    
O5    Zn2   S    
O11   Zn1   S    
I3    N1    S    
C3    I2    S    
O9    Zn2   S    
O1    Zn1   S    
C10   C18   S    
C8    C11   S    
C2    C14   A    
C16   C18   A    
I4    N2    S    
C10   O3    D    
C16   H1    S    
N1    Zn2   S    
C12   O8    A    
C5    C6    A    
H4    O4    S    
H3    O2    S    
O8    Zn1   S    
N2    Zn1   S    
C13   O9    A    
C5    C17   A    
C6    C16   A    
C1    O1    A    
C17   H2    S    
C7    I5    S    
C8    I6    S    
C4    C6    A    
C11   O7    A    
C4    I1    S    
C9    O2    S    
C1    C7    S    
C2    C9    S    
C11   O5    A    
O6    Zn2   S    
C1    O6    A    
C3    C5    A    
