data_mof_unit_45253.cif
_audit_creation_date              2012-12-11T20:26:34-0500
_audit_creation_method            fapswitch 2.2
_symmetry_space_group_name_H-M    P1
_symmetry_Int_Tables_number       1
_space_group_crystal_system       triclinic
_cell_length_a                    8.203409
_cell_length_b                    17.372199
_cell_length_c                    18.771964
_cell_angle_alpha                 103.094669
_cell_angle_beta                  91.315719
_cell_angle_gamma                 98.131048
_cell_volume                      2575.25762011

loop_
_atom_site_label
_atom_site_type_symbol
_atom_type_description
_atom_site_fract_x
_atom_site_fract_y
_atom_site_fract_z
_atom_type_partial_charge
Ba1   Ba    Ba6+2 0.853800 0.535410 0.467450 1.685706
Ba2   Ba    Ba6+2 0.336030 0.464660 0.532560 1.725375
C1    C     C_3   0.692923 0.815083 0.288659 -0.348459
C2    C     C_R   0.900047 0.419126 0.087013 -0.133393
C3    C     C_R   0.758596 0.443964 0.951325 -0.102789
C4    C     C_3   0.113508 0.704093 0.279331 0.446205
C5    C     C_R   0.923668 0.474332 0.976776 0.031842
C6    C     C_R   0.703453 0.440878 0.880156 -0.080966
C7    C     C_R   0.809337 0.469356 0.831338 -0.049947
C8    C     C_R   0.969457 0.509141 0.857844 0.005503
C9    C     C_R   0.026791 0.512076 0.931135 0.030281
C10   C     C_R   0.759909 0.458982 0.756769 0.000135
C11   C     C_R   0.872100 0.484972 0.708789 0.152959
C12   C     C_3   0.651634 0.736351 0.311567 0.320586
C13   C     C_R   0.023921 0.532105 0.735165 0.062791
C14   C     C_R   0.073063 0.544707 0.810751 -0.075128
C15   C     C_R   0.146965 0.507583 0.073481 0.016122
C16   C     C_3   0.088085 0.732708 0.209134 0.226642
C17   C     C_R   0.206781 0.504535 0.145051 -0.064787
C18   C     C_R   0.107368 0.461515 0.189052 -0.045035
C19   C     C_R   0.959621 0.413020 0.155807 0.433372
C20   C     C_R   0.224089 0.590056 0.840562 -0.014481
C21   C     C_R   0.280565 0.592952 0.911838 -0.072250
C22   C     C_R   0.187500 0.551243 0.957639 0.004006
C23   C     C_3   0.458287 0.333666 0.304676 0.333541
C24   C     C_R   0.248537 0.548330 0.028921 0.034881
C25   C     C_R   0.411190 0.581536 0.056002 -0.097370
C26   C     C_R   0.368566 0.542353 0.171454 -0.020487
C27   C     C_R   0.469398 0.578269 0.125129 -0.094437
C28   C     C_3   0.241952 0.709419 0.629964 0.329170
C29   C     C_R   0.425734 0.542540 0.243132 -0.004794
C30   C     C_R   0.319415 0.509181 0.288857 -0.315270
C31   C     C_R   0.162653 0.467669 0.263581 0.064585
C32   C     C_2   0.444944 0.717479 0.477866 -0.283261
C33   C     C_3   0.366371 0.764644 0.431706 -0.037977
C34   C     C_3   0.407602 0.302371 0.223725 -0.354254
C35   C     C_2   0.418464 0.853008 0.456436 -0.120199
C36   C     C_2   0.554773 0.882972 0.501273 0.005040
C37   C     C_2   0.640375 0.827178 0.533459 -0.085477
C38   C     C_1   0.578392 0.750271 0.521289 0.073253
C39   C     C_R   0.800599 0.137923 0.532616 -0.127044
C40   C     C_3   0.265768 0.800577 0.648566 0.191630
C41   C     C_R   0.859584 0.219248 0.542532 -0.016523
C42   C     C_R   0.617183 0.237138 0.475969 0.015810
C43   C     C_R   0.557826 0.155703 0.464991 -0.117440
C44   C     C_R   0.647783 0.105710 0.494296 0.022131
C45   C     C_3   0.034704 0.287873 0.720985 0.796995
C46   C     C_2   0.619944 0.969878 0.519886 -0.067345
C47   C     C_2   0.586286 0.019202 0.477255 -0.076219
C48   C     C_R   0.764839 0.269033 0.516905 -0.271990
C49   C     C_3   0.951181 0.288140 0.367036 0.381653
C50   C     C_3   0.922781 0.197101 0.343364 0.223051
C51   C     C_3   0.720740 0.659918 0.698469 0.464273
C52   C     C_3   0.723941 0.693100 0.781378 0.605710
C53   C     C_3   0.961465 0.233947 0.770336 -0.372786
C54   C     C_3   0.528598 0.261508 0.677819 0.380509
C55   C     C_3   0.496421 0.180380 0.696916 -0.355755
C56   C     C_R   0.987116 0.468588 0.046393 -0.027588
H1    H     H_    0.704976 0.743897 0.368163 0.075188
H2    H     H_    0.352374 0.358130 0.332439 0.005803
H3    H     H_    0.384425 0.352410 0.199069 0.041453
H4    H     H_    0.506810 0.273106 0.194615 0.119949
H5    H     H_    0.640200 0.809060 0.232274 0.113067
H6    H     H_    0.146757 0.695419 0.163440 -0.023387
H7    H     H_    0.932043 0.313977 0.700074 -0.130542
H8    H     H_    0.061755 0.211748 0.797073 0.135639
H9    H     H_    0.890814 0.267730 0.813385 0.057785
H10   H     H_    0.661619 0.274301 0.668408 -0.089383
H11   H     H_    0.454663 0.258331 0.626647 0.089621
H12   H     H_    0.298525 0.822126 0.598763 0.042192
H13   H     H_    0.045107 0.642513 0.272204 0.010365
H14   H     H_    0.576931 0.414640 0.864003 0.117867
H15   H     H_    0.302814 0.622869 0.808887 0.152424
H16   H     H_    0.595831 0.604266 0.141185 0.108948
H17   H     H_    0.667603 0.422632 0.985692 0.076965
H18   H     H_    0.788127 0.380182 0.064124 0.052324
H19   H     H_    0.247237 0.701782 0.286374 -0.169663
H20   H     H_    0.509478 0.996227 0.427134 0.078022
H21   H     H_    0.877561 0.099913 0.551308 0.071859
H22   H     H_    0.699241 0.993067 0.569369 0.077266
H23   H     H_    0.148367 0.822142 0.666522 0.046664
H24   H     H_    0.347217 0.890890 0.434124 0.084754
H25   H     H_    0.444078 0.131064 0.432210 0.082247
H26   H     H_    0.404421 0.653495 0.465940 0.077680
H27   H     H_    0.812462 0.331682 0.523573 0.116201
H28   H     H_    0.150091 0.687852 0.582874 0.019551
H29   H     H_    0.345283 0.830242 0.750394 0.326263
H30   H     H_    0.834536 0.309281 0.384045 -0.103472
H31   H     H_    0.044081 0.307104 0.413822 0.028591
H32   H     H_    0.828492 0.177739 0.296963 0.106002
H33   H     H_    0.129920 0.164323 0.365429 0.313756
H34   H     H_    0.874591 0.170668 0.388671 -0.053749
H35   H     H_    0.748497 0.657108 0.870704 0.309583
H36   H     H_    0.597581 0.781408 0.798964 0.312559
H37   H     H_    0.639878 0.862671 0.326808 0.071676
H38   H     H_    0.564825 0.382209 0.310747 0.056048
H39   H     H_    0.293162 0.258187 0.216855 0.168942
H40   H     H_    0.096982 0.378360 0.803605 0.259247
H41   H     H_    0.876448 0.181986 0.737195 0.071240
H42   H     H_    0.532418 0.133854 0.651517 0.070966
H43   H     H_    0.363370 0.164885 0.705499 0.155225
H44   H     H_    0.569695 0.181735 0.747793 0.110052
H45   H     H_    0.842250 0.642125 0.683975 -0.175462
H46   H     H_    0.780417 0.506367 0.622896 0.297494
H47   H     H_    0.774628 0.329670 0.159560 0.285644
H48   H     H_    0.362775 0.512379 0.344474 0.064229
H49   H     H_    0.398740 0.628898 0.929296 0.089853
H50   H     H_    0.499305 0.609453 0.024474 0.071500
H51   H     H_    0.751928 0.850648 0.568405 0.083881
H52   H     H_    0.954342 0.725044 0.193642 0.109711
H53   H     H_    0.276438 0.816749 0.219772 0.301689
H54   H     H_    0.359790 0.688625 0.614395 0.002469
H55   H     H_    0.622016 0.607539 0.682506 0.029585
H56   H     H_    0.828610 0.832677 0.290088 0.184188
H57   H     H_    0.833665 0.740606 0.798119 -0.020751
H58   H     H_    0.515872 0.721897 0.309938 -0.039006
O1    O     O_2   0.871520 0.445720 0.321500 -0.424924
O2    O     O_2   0.194482 0.221274 0.529910 -0.506567
O3    O     O_3   0.114979 0.241219 0.665296 -0.594916
O4    O     O_3   0.121030 0.451930 0.411150 -0.511494
O5    O     O_3   0.581210 0.598010 0.542960 -0.510979
O6    O     O_2   0.335820 0.303580 0.452320 -0.464539
O7    O     O_3   0.502532 0.270920 0.333144 -0.630029
O8    O     O_2   0.421762 0.466590 0.755212 -0.430428
O9    O     O_3   0.482457 0.319860 0.735538 -0.566110
O10   O     O_3   0.662190 0.593100 0.375060 -0.483401
O11   O     O_2   0.760373 0.528444 0.244320 -0.486069
O12   O     O_3   0.691224 0.720384 0.664054 -0.646353
O13   O     O_3   0.004388 0.318284 0.307248 -0.575199
O14   O     O_3   0.717674 0.676344 0.262990 -0.616320
O15   O     O_2   0.853880 0.696450 0.547730 -0.470617
O16   O     O_3   0.085100 0.636210 0.413950 -0.490719
O17   O     O_2   0.047255 0.783289 0.483374 -0.497130
O18   O     O_3   0.393423 0.832016 0.702652 -0.714724
O19   O     O_3   0.069762 0.168897 0.320655 -0.691474
O20   O     O_3   0.737837 0.631962 0.817344 -0.785910
O21   O     O_3   0.577505 0.724066 0.800246 -0.722169
O22   O     O_3   0.152174 0.349935 0.761395 -0.666419
O23   O     O_3   0.056332 0.756167 0.339454 -0.571848
O24   O     O_3   0.833604 0.462764 0.634887 -0.720630
O25   O     O_3   0.878266 0.356096 0.188355 -0.701563
O26   O     O_3   0.154461 0.813799 0.219030 -0.694569
O27   O     O_2   0.318180 0.554310 0.678550 -0.466921
O28   O     O_3   0.068680 0.548140 0.588860 -0.461512
O29   O     O_3   0.527520 0.406960 0.624950 -0.455809
O30   O     O_3   0.188012 0.681876 0.691232 -0.646931
O31   O     O_3   0.608500 0.402060 0.457050 -0.475594
O32   O     O_3   0.104610 0.363860 0.586060 -0.434671
P1    P     P_3+3 0.038810 0.422920 0.331160 1.056312
P2    P     P_3+3 0.678260 0.686080 0.568600 0.987236
P3    P     P_3+3 0.138087 0.737468 0.419694 0.961170
P4    P     P_3+3 0.150900 0.577150 0.668860 1.031771
P5    P     P_3+3 0.068756 0.260953 0.580374 0.979263
P6    P     P_3+3 0.639599 0.583962 0.280762 0.932916
P7    P     P_3+3 0.517807 0.301261 0.428832 0.959989
P8    P     P_3+3 0.548242 0.414221 0.718888 1.048772

loop_
_geom_bond_atom_site_label_1
_geom_bond_atom_site_label_2
_ccdc_geom_bond_type
C25   C27   A    
Ba2   O28   S    
O6    P7    D    
C50   H32   S    
C17   C18   A    
O17   P3    D    
H35   O20   S    
C53   H8    S    
C49   O13   S    
O7    P7    S    
C51   C52   S    
C47   H20   S    
Ba2   O29   S    
C5    C9    A    
C55   H44   S    
C44   C47   S    
O4    P1    S    
C33   P3    S    
H40   O22   S    
C32   C38   D    
C15   C24   A    
C26   C27   A    
C33   C35   S    
C22   C24   A    
Ba1   Ba2   S    
H47   O25   S    
C36   C37   S    
C52   O21   S    
Ba2   O32   S    
C13   C14   A    
C9    C22   A    
C40   H12   S    
O5    P2    S    
O2    P5    D    
C32   C33   S    
C4    O23   S    
C48   H27   S    
O29   P8    S    
C6    C7    A    
C21   C22   A    
Ba1   P1    S    
C34   H39   S    
C23   H2    S    
C28   H28   S    
O31   P7    S    
C7    C8    A    
C5    C56   A    
C36   C46   S    
H53   O26   S    
O9    P8    S    
C15   C56   A    
Ba1   O16   S    
C45   O3    S    
C21   H49   S    
O3    P5    S    
C30   H48   S    
Ba2   O27   S    
C39   C41   A    
H29   O18   S    
C43   H25   S    
C40   H23   S    
C32   H26   S    
C10   P8    S    
C34   H4    S    
O11   P6    D    
C13   P4    S    
C51   H55   S    
C28   O30   S    
Ba2   O6    S    
Ba2   P4    S    
C4    H13   S    
C4    C16   S    
C6    H14   S    
C49   C50   S    
C11   O24   S    
C16   O26   S    
Ba1   O10   S    
C37   C38   D    
C3    C5    A    
Ba2   O4    S    
C4    H19   S    
C27   H16   S    
Ba2   O31   S    
C43   C44   A    
C55   H42   S    
H46   O24   S    
C28   H54   S    
Ba1   O4    S    
C3    H17   S    
O13   P1    S    
C35   C36   D    
C12   H1    S    
C51   O12   S    
O16   P3    S    
C29   C30   A    
C39   C44   A    
C52   O20   S    
C52   H57   S    
O1    P1    D    
C24   C25   A    
C38   P2    S    
Ba1   P2    S    
O14   P6    S    
Ba1   O1    S    
C54   O9    S    
C10   C11   A    
C17   C26   A    
C23   O7    S    
C1    C12   S    
O30   P4    S    
C18   C31   A    
O10   P6    S    
O12   P2    S    
O27   P4    D    
C11   C13   A    
C35   H24   S    
C50   H34   S    
C54   C55   S    
C53   H41   S    
C34   H3    S    
C29   P6    S    
C42   C43   A    
C45   C53   S    
C12   O14   S    
Ba2   O5    S    
C42   C48   A    
H36   O21   S    
C46   C47   D    
C14   C20   A    
C42   P7    S    
C26   C29   A    
C16   H52   S    
Ba1   O15   S    
C1    H56   S    
C49   H30   S    
C39   H21   S    
C3    C6    A    
C53   H9    S    
C41   C48   A    
C1    H5    S    
C55   H43   S    
C40   O18   S    
C54   H10   S    
C30   C31   A    
C46   H22   S    
O8    P8    D    
C19   O25   S    
O28   P4    S    
Ba1   O28   S    
C31   P1    S    
C49   H31   S    
C2    C19   A    
C16   H6    S    
C25   H50   S    
C51   H45   S    
C12   H58   S    
C45   O22   S    
O23   P3    S    
C15   C17   A    
C7    C10   A    
Ba1   O5    S    
C2    H18   S    
Ba1   O31   S    
C8    C9    A    
C23   C34   S    
C37   H51   S    
H33   O19   S    
C18   C19   A    
C23   H38   S    
C1    H37   S    
C54   H11   S    
O32   P5    S    
C2    C56   A    
C50   O19   S    
C20   C21   A    
C28   C40   S    
O15   P2    D    
C8    C14   A    
C20   H15   S    
C41   P5    S    
C45   H7    S    
