data_mof_unit_57693.cif
_audit_creation_date              2012-12-10T18:54:27-0500
_audit_creation_method            fapswitch 2.2
_symmetry_space_group_name_H-M    P1
_symmetry_Int_Tables_number       1
_space_group_crystal_system       triclinic
_cell_length_a                    19.414281
_cell_length_b                    18.163525
_cell_length_c                    9.084554
_cell_angle_alpha                 90.005702
_cell_angle_beta                  90.179453
_cell_angle_gamma                 90.005475
_cell_volume                      3203.4866888

loop_
_atom_site_label
_atom_site_type_symbol
_atom_type_description
_atom_site_fract_x
_atom_site_fract_y
_atom_site_fract_z
_atom_type_partial_charge
C1    C     C_R   0.367414 0.499996 0.499696 0.801778
C2    C     C_R   0.632585 0.500004 0.500297 0.801778
C3    C     C_R   0.454313 0.720962 0.413661 0.085419
C4    C     C_R   0.545687 0.279038 0.586337 0.085465
C5    C     C_R   0.545685 0.720981 0.586338 0.085167
C6    C     C_R   0.454314 0.279019 0.413664 0.085201
C7    C     C_R   0.453441 0.798273 0.412016 -0.287058
C8    C     C_R   0.546559 0.201727 0.587982 -0.287050
C9    C     C_R   0.546556 0.798292 0.587980 -0.287100
C10   C     C_R   0.453442 0.201708 0.412023 -0.287094
C11   C     C_R   0.499999 0.838442 0.499998 0.112198
C12   C     C_R   0.500001 0.161557 0.500003 0.112194
C13   C     C_R   0.513372 0.961326 0.629845 -0.180006
C14   C     C_R   0.486627 0.038674 0.370157 -0.180004
C15   C     C_R   0.486626 0.961311 0.370156 -0.180052
C16   C     C_R   0.513374 0.038689 0.629846 -0.180050
C17   C     C_R   0.500001 0.078713 0.500002 0.119628
C18   C     C_R   0.499998 0.921287 0.500000 0.119625
C19   C     C_R   0.499967 0.499998 0.220421 0.853745
C20   C     C_R   0.500033 0.500002 0.779578 0.853749
C21   C     C_1   0.499988 0.499997 0.065479 -0.193907
C22   C     C_1   0.500013 0.500003 0.934521 -0.193910
C23   C     C_R   0.744561 0.433337 0.504342 -0.201715
C24   C     C_R   0.255439 0.566673 0.496362 -0.201772
C25   C     C_R   0.255435 0.433295 0.501139 -0.202129
C26   C     C_R   0.744564 0.566700 0.498059 -0.202185
C27   C     C_R   0.816847 0.432100 0.504722 0.095181
C28   C     C_R   0.183153 0.567914 0.495962 0.095178
C29   C     C_R   0.183147 0.432051 0.500981 0.095172
C30   C     C_R   0.816851 0.567943 0.498173 0.095174
C31   C     C_R   0.852676 0.500019 0.501287 0.002717
C32   C     C_R   0.147324 0.499984 0.498611 0.002725
C33   C     C_R   0.708420 0.500014 0.500863 -0.103563
C34   C     C_R   0.291578 0.499988 0.499106 -0.103569
C35   C     C_R   0.964618 0.501590 0.633977 -0.196018
C36   C     C_R   0.035383 0.498415 0.365912 -0.195975
C37   C     C_R   0.036322 0.501577 0.633289 -0.194571
C38   C     C_R   0.963678 0.498418 0.366602 -0.194536
C39   C     C_R   0.071707 0.499991 0.499260 0.091729
C40   C     C_R   0.928292 0.500008 0.500631 0.091721
Cu1   Cu    Cu3+1 0.500000 0.573360 0.500000 0.934963
Cu2   Cu    Cu3+1 0.500000 0.426640 0.500000 0.934993
H1    H     H_    0.715595 0.382599 0.506791 0.150095
H2    H     H_    0.284406 0.617418 0.494528 0.150171
H3    H     H_    0.284397 0.382550 0.503020 0.150586
H4    H     H_    0.715600 0.617438 0.495576 0.150649
H5    H     H_    0.937359 0.502818 0.737798 0.130240
H6    H     H_    0.062642 0.497188 0.262091 0.130226
H7    H     H_    0.064313 0.502796 0.736588 0.130602
H8    H     H_    0.935687 0.497191 0.263303 0.130589
H9    H     H_    0.418174 0.690755 0.345830 0.115759
H10   H     H_    0.581827 0.309245 0.654167 0.115692
H11   H     H_    0.581823 0.690789 0.654172 0.116219
H12   H     H_    0.418175 0.309211 0.345832 0.116150
H13   H     H_    0.415857 0.826247 0.343841 0.127246
H14   H     H_    0.584144 0.173753 0.656157 0.127243
H15   H     H_    0.584139 0.826282 0.656156 0.127263
H16   H     H_    0.415859 0.173718 0.343849 0.127259
H17   H     H_    0.522711 0.932866 0.732668 0.127068
H18   H     H_    0.477288 0.067134 0.267333 0.127070
H19   H     H_    0.477286 0.932839 0.267332 0.127061
H20   H     H_    0.522713 0.067161 0.732669 0.127062
N1    N     N_R   0.500000 0.683620 0.500000 -0.169745
N2    N     N_R   0.500000 0.316380 0.500000 -0.169728
O1    O     O_R   0.400190 0.561980 0.499980 -0.592745
O2    O     O_R   0.599810 0.438020 0.500020 -0.592725
O3    O     O_R   0.599810 0.561980 0.500020 -0.592913
O4    O     O_R   0.400190 0.438020 0.499980 -0.592895
O5    O     O_R   0.500000 0.561940 0.288400 -0.580862
O6    O     O_R   0.500000 0.438060 0.711600 -0.580854
O7    O     O_R   0.500000 0.561940 0.711600 -0.580641
O8    O     O_R   0.500000 0.438060 0.288400 -0.580635
C41   C     C_3   0.857449 0.360076 0.508661 -0.393284
C42   C     C_3   0.814616 0.288933 0.513299 -0.372161
C43   C     C_3   0.861047 0.221137 0.517667 -0.844863
H21   H     H_    0.893996 0.219038 0.417994 0.252472
H22   H     H_    0.894343 0.222298 0.617320 0.251849
H23   H     H_    0.828856 0.170631 0.521018 0.241898
H24   H     H_    0.781706 0.288618 0.613239 0.217007
H25   H     H_    0.781395 0.285372 0.413645 0.221519
H26   H     H_    0.890847 0.357989 0.409537 0.203611
H27   H     H_    0.891428 0.360936 0.607406 0.203374
C44   C     C_3   0.142553 0.639949 0.492802 -0.393296
C45   C     C_3   0.185388 0.711103 0.488873 -0.372127
C46   C     C_3   0.138961 0.778912 0.485188 -0.844857
H28   H     H_    0.105670 0.778011 0.385514 0.251871
H29   H     H_    0.106004 0.780758 0.584871 0.252430
H30   H     H_    0.171161 0.829420 0.482368 0.241920
H31   H     H_    0.218610 0.714413 0.588560 0.221487
H32   H     H_    0.218300 0.711666 0.388941 0.217039
H33   H     H_    0.108554 0.639346 0.394077 0.203438
H34   H     H_    0.109171 0.641787 0.591971 0.203540
C47   C     C_3   0.142540 0.360011 0.503360 -0.393539
C48   C     C_3   0.185365 0.288836 0.505752 -0.371796
C49   C     C_3   0.138931 0.221013 0.507850 -0.844923
H35   H     H_    0.105891 0.221368 0.607472 0.252339
H36   H     H_    0.105725 0.219717 0.408067 0.251908
H37   H     H_    0.171127 0.170493 0.509607 0.242062
H38   H     H_    0.218339 0.286082 0.406057 0.217111
H39   H     H_    0.218526 0.287712 0.605726 0.221501
H40   H     H_    0.108969 0.360227 0.602306 0.203737
H41   H     H_    0.108729 0.358567 0.404379 0.203278
C50   C     C_3   0.857459 0.639973 0.494986 -0.393564
C51   C     C_3   0.814634 0.711143 0.492185 -0.371763
C52   C     C_3   0.861071 0.778959 0.489522 -0.844904
H42   H     H_    0.894324 0.780422 0.589223 0.251918
H43   H     H_    0.894065 0.778428 0.389831 0.252309
H44   H     H_    0.828878 0.829479 0.487493 0.242074
H45   H     H_    0.781431 0.712095 0.392267 0.221452
H46   H     H_    0.781703 0.714072 0.591925 0.217172
H47   H     H_    0.891364 0.641625 0.593809 0.203399
H48   H     H_    0.890935 0.639540 0.395897 0.203618

loop_
_geom_bond_atom_site_label_1
_geom_bond_atom_site_label_2
_ccdc_geom_bond_type
C15   C18   A    
C51   H46   S    
C11   C18   S    
C47   C48   S    
Cu2   N2    S    
C41   C42   S    
C49   H35   S    
C7    H13   S    
C4    C8    A    
C35   H5    S    
C8    H14   S    
C49   H37   S    
Cu1   O3    S    
C46   H28   S    
C7    C11   A    
C44   H34   S    
C52   H43   S    
C16   H20   S    
C13   C18   A    
C4    H10   S    
C5    H11   S    
C10   H16   S    
C29   C32   A    
C3    C7    A    
C51   H45   S    
Cu2   O6    S    
C1    O4    A    
C23   H1    S    
C31   C40   S    
C5    N1    A    
C50   H47   S    
Cu1   Cu2   S    
C32   C39   S    
C6    N2    A    
C16   C17   A    
C23   C33   A    
C12   C17   S    
C1    O1    A    
C20   O7    A    
C23   C27   A    
C25   C34   A    
Cu1   O7    S    
C42   H25   S    
C21   C22   T    
C28   C44   S    
Cu2   O4    S    
C14   C17   A    
C20   O6    A    
C19   O8    A    
C45   H32   S    
C6    H12   S    
C41   H26   S    
C51   C52   S    
C29   C47   S    
C1    C34   S    
C46   H29   S    
C25   C29   A    
C52   H44   S    
C42   C43   S    
C27   C31   A    
C28   C32   A    
C45   C46   S    
C2    O3    A    
C47   H40   S    
C3    H9    S    
Cu1   O1    S    
C24   C34   A    
C50   H48   S    
C30   C50   S    
C43   H21   S    
C5    C9    A    
C9    C11   A    
C26   C33   A    
C44   C45   S    
C48   H39   S    
C8    C12   A    
Cu2   O8    S    
C15   H19   S    
C43   H22   S    
C37   H7    S    
C10   C12   A    
C13   H17   S    
C2    C33   S    
C20   C22   S    
C26   C30   A    
C42   H24   S    
C24   H2    S    
C19   O5    A    
C45   H31   S    
Cu1   N1    S    
C25   H3    S    
C41   H27   S    
C44   H33   S    
Cu1   O5    S    
C46   H30   S    
C35   C37   A    
C36   C39   A    
C24   C28   A    
C2    O2    A    
C47   H41   S    
C6    C10   A    
C49   H36   S    
C38   H8    S    
C3    N1    A    
C14   H18   S    
C52   H42   S    
C4    N2    A    
C36   C38   A    
C35   C40   A    
C37   C39   A    
C38   C40   A    
C30   C31   A    
C48   H38   S    
C36   H6    S    
C9    H15   S    
C48   C49   S    
C43   H23   S    
C26   H4    S    
C13   C16   A    
C50   C51   S    
Cu2   O2    S    
C14   C15   A    
C27   C41   S    
C19   C21   S    
