data_mof_unit_44200.cif
_audit_creation_date              2013-03-05T16:33:15-0500
_audit_creation_method            fapswitch 2.2
_symmetry_space_group_name_H-M    P1
_symmetry_Int_Tables_number       1
_space_group_crystal_system       triclinic
_cell_length_a                    27.807571
_cell_length_b                    10.790873
_cell_length_c                    9.531399
_cell_angle_alpha                 89.782312
_cell_angle_beta                  89.888234
_cell_angle_gamma                 90.361499
_cell_volume                      2859.98437647

loop_
_atom_site_label
_atom_site_type_symbol
_atom_site_description
_atom_site_fract_x
_atom_site_fract_y
_atom_site_fract_z
_atom_type_partial_charge
O1    O     O_R   0.500000 0.319640 0.618810 -0.551450
O2    O     O_R   0.500010 0.319680 0.381230 -0.574384
C1    C     C_R   0.502436 0.262565 0.500319 0.844943
O3    O     O_R   0.430260 0.500000 0.618780 -0.530815
O4    O     O_R   0.430270 0.500040 0.381190 -0.600295
C2    C     C_R   0.407417 0.498636 0.500196 0.889806
Cu1   Cu    Cu3+1 0.500000 0.499980 0.640670 0.975469
Cu2   Cu    Cu3+1 0.500000 0.500020 0.359330 0.981496
O5    O     O_R   0.499990 0.680320 0.618770 -0.609002
O6    O     O_R   0.500000 0.680360 0.381190 -0.584101
O7    O     O_R   0.569730 0.499960 0.618810 -0.604162
O8    O     O_R   0.569740 0.500000 0.381220 -0.529804
C3    C     C_R   0.500296 0.737629 0.499846 0.803222
C4    C     C_R   0.592625 0.500215 0.499788 0.821296
C5    C     C_R   0.177437 0.390307 0.462328 0.627393
O9    O     O_2   0.201900 0.284323 0.441271 -0.509679
N1    N     N_R   0.201967 0.498370 0.485875 -0.439721
C6    C     C_R   0.178453 0.607800 0.505442 0.571525
C7    C     C_R   0.280008 0.534638 0.374406 -0.183626
C8    C     C_R   0.329941 0.536195 0.379052 -0.278867
C9    C     C_R   0.327818 0.454712 0.617880 0.289542
C10   C     C_R   0.276766 0.459383 0.614920 0.365430
C11   C     C_R   0.253456 0.496557 0.491425 0.294594
C12   C     C_R   0.101879 0.500230 0.482531 -0.047657
C13   C     C_R   0.126926 0.389254 0.460082 -0.081102
C14   C     C_R   0.101320 0.280552 0.431688 -0.230876
C15   C     C_R   0.128002 0.610929 0.503676 -0.014626
C16   C     C_R   0.354323 0.497269 0.500128 -0.108194
H1    H     H_    0.120580 0.196617 0.406035 0.186313
C17   C     C_R   0.645781 0.500931 0.500170 -0.102776
C18   C     C_R   0.974353 0.387516 0.491849 0.057715
C19   C     C_R   0.975167 0.615969 0.493168 0.044964
C20   C     C_R   0.949523 0.501987 0.495361 0.060332
C21   C     C_R   0.947690 0.277637 0.516938 -0.121200
C22   C     C_R   0.897799 0.278765 0.525844 -0.164704
C23   C     C_R   0.872725 0.390166 0.515060 -0.040900
C24   C     C_R   0.898511 0.502386 0.502604 -0.044699
C25   C     C_R   0.873226 0.614966 0.497889 -0.026135
C26   C     C_R   0.822760 0.612992 0.502243 0.558805
N2    N     N_R   0.798426 0.502667 0.511547 -0.438005
C27   C     C_R   0.822281 0.392334 0.518787 0.615919
C28   C     C_R   0.720564 0.472796 0.630790 0.471171
C29   C     C_R   0.670116 0.471503 0.625059 -0.431770
C30   C     C_R   0.672530 0.531442 0.378471 0.397873
C31   C     C_R   0.722978 0.531535 0.384709 -0.300087
C32   C     C_R   0.746830 0.502503 0.509462 0.290293
O10   O     O_2   0.797227 0.285058 0.527837 -0.511278
C33   C     C_R   0.025021 0.387189 0.470012 0.001313
C34   C     C_R   0.050855 0.500634 0.484052 0.007264
C35   C     C_R   0.026151 0.614774 0.499161 0.065249
C36   C     C_R   0.050842 0.278759 0.431495 0.391976
H2    H     H_    0.649881 0.447159 0.718477 0.177012
H3    H     H_    0.878978 0.191709 0.542504 0.191228
H4    H     H_    0.964696 0.189785 0.536644 0.197746
O11   O     O_2   0.203848 0.712935 0.527411 -0.514815
C37   C     C_R   0.103348 0.721825 0.523796 -0.135293
H5    H     H_    0.349565 0.568063 0.287351 0.193174
H6    H     H_    0.261751 0.564367 0.279950 0.174014
H7    H     H_    0.122581 0.807914 0.541918 0.190437
C38   C     C_R   0.948735 0.727416 0.485997 -0.198641
C39   C     C_R   0.898742 0.726642 0.487891 -0.131639
O12   O     O_2   0.798158 0.720349 0.497554 -0.532328
C40   C     C_R   0.053425 0.724021 0.521245 -0.194859
H8    H     H_    0.965696 0.817034 0.475098 0.147506
H9    H     H_    0.880151 0.814440 0.481908 0.189952
H10   H     H_    0.744041 0.554216 0.292269 0.161043
H11   H     H_    0.037153 0.812593 0.541375 0.143232
C41   C     C_R   0.492478 0.063549 0.620316 -0.061240
C42   C     C_R   0.508631 0.129608 0.503057 -0.164605
C43   C     C_R   0.531151 0.063554 0.392365 0.395332
C44   C     C_R   0.527918 0.934122 0.391411 -0.185117
H12   H     H_    0.543611 0.883750 0.304937 0.165548
C45   C     C_R   0.504652 0.870627 0.501241 -0.090571
C46   C     C_R   0.490368 0.936371 0.619272 -0.128071
C47   C     C_3   0.444897 0.930608 0.703960 0.147314
C48   C     C_3   0.447171 0.072469 0.705556 0.769399
H13   H     H_    0.449269 0.885821 0.808635 0.075992
C49   C     C_R   0.535343 0.560216 0.073406 0.292260
N3    N     N_R   0.500300 0.500930 0.147930 -0.199574
C50   C     C_R   0.467622 0.431231 0.074911 -0.050856
H14   H     H_    0.440869 0.377363 0.131210 0.165368
C51   C     C_R   0.467488 0.431662 0.925948 -0.009102
H15   H     H_    0.440578 0.378446 0.870407 0.220669
N4    N     N_R   0.500310 0.500890 0.852020 -0.214401
C52   C     C_R   0.536257 0.558546 0.925935 0.212958
C53   C     C_3   0.550481 0.693631 0.920050 -0.167741
C54   C     C_3   0.546827 0.694571 0.079877 -0.525341
H16   H     H_    0.522820 0.753299 0.870312 0.183732
H17   H     H_    0.580888 0.712010 0.137429 0.226200
H18   H     H_    0.515812 0.749780 0.117645 0.200222
O13   O     O_3   0.352343 0.405441 0.730747 -0.725358
H19   H     H_    0.331601 0.342993 0.777892 0.335732
O14   O     O_3   0.649049 0.562045 0.255634 -0.732177
H20   H     H_    0.673109 0.581213 0.181591 0.317969
O15   O     O_3   0.555557 0.120472 0.283490 -0.712136
H21   H     H_    0.568903 0.200051 0.317731 0.330311
O16   O     O_3   0.405990 0.884807 0.625759 -0.669589
H22   H     H_    0.406100 0.793563 0.638951 0.330977
O17   O     O_3   0.248621 0.430689 0.730195 -0.709431
H23   H     H_    0.267478 0.446356 0.816401 0.332449
O18   O     O_3   0.409838 0.130576 0.631969 -0.656442
H24   H     H_    0.380906 0.123801 0.692675 0.361243
O19   O     O_3   0.454351 0.124199 0.839474 -0.756920
H25   H     H_    0.482770 0.084058 0.882811 0.300268
C55   C     C_3   0.602717 0.717063 0.868165 -0.328913
C56   C     C_3   0.604422 0.788931 0.729179 -0.370396
C57   C     C_3   0.655983 0.821378 0.687097 -0.773269
H26   H     H_    0.672701 0.882878 0.766719 0.262716
H27   H     H_    0.677790 0.736081 0.676780 0.265862
H28   H     H_    0.655921 0.870517 0.584519 0.253815
H29   H     H_    0.588360 0.732599 0.644650 0.238378
H30   H     H_    0.583739 0.876252 0.739266 0.221553
H31   H     H_    0.622666 0.773310 0.946693 0.212844
H32   H     H_    0.622281 0.628123 0.856765 0.200890
O20   O     O_3   0.745018 0.446294 0.753098 -0.699354
H33   H     H_    0.721384 0.428278 0.828637 0.322906
O21   O     O_3   0.026730 0.175431 0.381946 -0.749950
H34   H     H_    0.050053 0.109343 0.358855 0.325889

loop_
_geom_bond_atom_site_label_1
_geom_bond_atom_site_label_2
_geom_bond_distance
_ccdc_geom_bond_type
C49   C54   1.484136 S    
O14   H20   0.991838 S    
C22   H3    1.083496 S    
C45   C46   1.390895 A    
O15   H21   0.990065 S    
C12   C15   1.409491 A    
C15   C37   1.396552 A    
O16   H22   0.992145 S    
Cu1   Cu2   2.681561 S    
C56   H30   1.111405 S    
C31   C32   1.398153 A    
Cu1   O7    1.949781 S    
N1    C11   1.433124 S    
C55   H31   1.112290 S    
C23   C24   1.407917 A    
C1    C42   1.446249 S    
O4    C2    1.299082 A    
O7    C4    1.299787 A    
C53   H16   1.111907 S    
C29   H2    1.082973 S    
C5    C13   1.404751 A    
C56   C57   1.526299 S    
C41   C46   1.373324 A    
O20   H33   0.991760 S    
C47   O16   1.403409 S    
Cu1   O5    1.956401 S    
C21   C22   1.389909 A    
C28   C32   1.401608 A    
O5    C3    1.289160 A    
C30   O14   1.381644 S    
O19   H25   0.993493 S    
C33   C36   1.425554 A    
C2    C16   1.476400 S    
C7    C8    1.389328 A    
C41   C42   1.395334 A    
Cu2   N3    2.014926 S    
C57   H26   1.110767 S    
C18   C20   1.419386 A    
C43   C44   1.399071 A    
C25   C39   1.397427 A    
C48   O19   1.409160 S    
Cu1   N4    2.014558 S    
C9    C10   1.421181 A    
C35   C40   1.414386 A    
C57   H27   1.109987 S    
C17   C30   1.413445 A    
C23   C27   1.403464 A    
C4    C17   1.478117 S    
O3    Cu1   1.950900 S    
C56   H29   1.104455 S    
C7    H6    1.082970 S    
C40   H11   1.077761 S    
C37   C40   1.388845 A    
C46   C47   1.499612 S    
O18   H24   0.992245 S    
C55   H32   1.111763 S    
C12   C13   1.406015 A    
O3    C2    1.297692 A    
O13   H19   0.990204 S    
C44   C45   1.403635 A    
C53   C54   1.526642 S    
C8    C16   1.403875 A    
C13   C14   1.395991 A    
C52   C53   1.508803 S    
C51   H15   1.080921 S    
C20   C24   1.420110 A    
C38   C39   1.390232 A    
O1    C1    1.290324 A    
C22   C23   1.397041 A    
C7    C11   1.395521 A    
C47   C48   1.531842 S    
C24   C25   1.408081 A    
O17   H23   0.990103 S    
Cu2   O8    1.950894 S    
N1    C6    1.366622 A    
C27   O10   1.349697 S    
C18   C21   1.413803 A    
N4    C52   1.371436 A    
C47   H13   1.114138 S    
C19   C35   1.419157 A    
C6    O11   1.349768 S    
C49   C52   1.405972 A    
C50   C51   1.419836 A    
N2    C27   1.368144 A    
C9    C16   1.415049 A    
C3    C45   1.439621 S    
C21   H4    1.078076 S    
C51   N4    1.368382 A    
C18   C33   1.423858 A    
C54   H17   1.110842 S    
C57   H28   1.110484 S    
C17   C29   1.406673 A    
C53   C55   1.552416 S    
C28   C29   1.403998 A    
N2    C32   1.434915 S    
C26   N2    1.368155 A    
C30   C31   1.404200 A    
C9    O13   1.381362 S    
C48   O18   1.403754 S    
C5    N1    1.366742 A    
C26   O12   1.349754 S    
C33   C34   1.422362 A    
C10   O17   1.380804 S    
O1    Cu1   1.957935 S    
O2    Cu2   1.956403 S    
C6    C15   1.403685 A    
O8    C4    1.298055 A    
C50   H14   1.081610 S    
O6    C3    1.290862 A    
O4    Cu2   1.949784 S    
C41   C48   1.501601 S    
C55   C56   1.532991 S    
C37   H7    1.083584 S    
C38   H8    1.077841 S    
C19   C20   1.417896 A    
C43   O15   1.379079 S    
C44   H12   1.081765 S    
C14   C36   1.403692 A    
C49   N3    1.359913 A    
C25   C26   1.403889 A    
C12   C34   1.418922 A    
C36   O21   1.382605 S    
O2    C1    1.291637 A    
C42   C43   1.422010 A    
N3    C50   1.368787 A    
C39   H9    1.083505 S    
C28   O20   1.380659 S    
C14   H1    1.083644 S    
Cu2   O6    1.957934 S    
C34   C35   1.421730 A    
C54   H18   1.111416 S    
C31   H10   1.083420 S    
C19   C38   1.414884 A    
C10   C11   1.403300 A    
C8    H5    1.083254 S    
O21   H34   0.992034 S    
C5    O9    1.349834 S    
