data_mof_unit_62530.cif
_audit_creation_date              2012-12-10T21:36:38-0500
_audit_creation_method            fapswitch 2.2
_symmetry_space_group_name_H-M    P1
_symmetry_Int_Tables_number       1
_space_group_crystal_system       triclinic
_cell_length_a                    10.532387
_cell_length_b                    16.126412
_cell_length_c                    16.817048
_cell_angle_alpha                 87.354473
_cell_angle_beta                  90.313946
_cell_angle_gamma                 92.807307
_cell_volume                      2849.88568067

loop_
_atom_site_label
_atom_site_type_symbol
_atom_type_description
_atom_site_fract_x
_atom_site_fract_y
_atom_site_fract_z
_atom_type_partial_charge
C1    C     C_R   0.502398 0.488659 0.652945 0.950992
C2    C     C_R   0.560978 0.237147 0.539112 0.246413
C3    C     C_R   0.442955 0.850261 0.463369 -0.308040
C4    C     C_R   0.557103 0.149741 0.536589 -0.308039
C5    C     C_R   0.526205 0.891073 0.516531 0.314972
C6    C     C_R   0.473791 0.108926 0.483466 0.314980
C7    C     C_R   0.603346 0.841816 0.565725 -0.280066
C8    C     C_R   0.396595 0.158182 0.434310 -0.280072
C9    C     C_R   0.596722 0.754883 0.561534 -0.021323
C10   C     C_R   0.403222 0.245115 0.438501 -0.021306
C11   C     C_R   0.742690 0.500279 0.500266 0.883322
C12   C     C_R   0.497603 0.511341 0.347055 0.950992
C13   C     C_R   0.257310 0.499721 0.499734 0.883319
C14   C     C_3   0.954284 0.453267 0.563633 -0.203508
C15   C     C_3   0.045716 0.546733 0.436368 -0.203485
C16   C     C_3   0.046410 0.531294 0.568444 -0.248272
C17   C     C_3   0.953590 0.468706 0.431558 -0.248290
C18   C     C_3   0.122813 0.499061 0.499729 -0.020421
C19   C     C_3   0.877187 0.500939 0.500273 -0.020425
C20   C     C_3   0.032297 0.422908 0.495019 0.175528
C21   C     C_3   0.967703 0.577092 0.504983 0.175528
C22   C     C_R   0.515220 0.481222 0.738769 -0.221639
C23   C     C_R   0.529753 0.471500 0.903745 0.058340
C24   C     C_R   0.484794 0.518777 0.261230 -0.221633
C25   C     C_R   0.560950 0.550359 0.779560 -0.311777
C26   C     C_R   0.439071 0.449640 0.220437 -0.311768
C27   C     C_R   0.569589 0.545562 0.861603 0.593497
C28   C     C_R   0.430449 0.454437 0.138394 0.593496
C29   C     C_R   0.470293 0.528497 0.096253 0.058339
C30   C     C_R   0.492548 0.400795 0.862860 0.617241
C31   C     C_R   0.507494 0.599202 0.137139 0.617245
C32   C     C_R   0.484805 0.405596 0.780313 -0.326477
C33   C     C_R   0.515221 0.594402 0.219686 -0.326507
C34   C     C_R   0.439077 0.762855 0.460851 0.246416
F1    F     F_    0.385290 0.386736 0.100059 -0.595340
F2    F     F_    0.614753 0.613261 0.899936 -0.595342
F3    F     F_    0.457175 0.328694 0.903357 -0.589577
F4    F     F_    0.542875 0.671302 0.096642 -0.589583
H1    H     H_    0.087627 0.558005 0.623101 0.158487
H2    H     H_    0.589521 0.608364 0.748084 0.203688
H3    H     H_    0.451818 0.351197 0.749253 0.208339
H4    H     H_    0.548205 0.648802 0.250747 0.208314
H5    H     H_    0.618765 0.114820 0.575886 0.164096
H6    H     H_    0.381344 0.885184 0.424037 0.164103
H7    H     H_    0.988029 0.299393 0.490218 0.181987
H8    H     H_    0.112948 0.333178 0.434301 0.184481
H9    H     H_    0.011964 0.700608 0.509793 0.182014
H10   H     H_    0.887029 0.666820 0.565693 0.184501
H11   H     H_    0.738040 0.262606 0.580334 0.164522
H12   H     H_    0.912373 0.441996 0.376901 0.158486
H13   H     H_    0.623575 0.255345 0.650747 0.179430
H14   H     H_    0.376702 0.744604 0.349177 0.179459
H15   H     H_    0.262056 0.737460 0.419496 0.164506
H16   H     H_    0.668550 0.870726 0.607351 0.163670
H17   H     H_    0.331344 0.129271 0.392713 0.163660
H18   H     H_    0.656561 0.717643 0.599863 0.137072
H19   H     H_    0.343341 0.282353 0.400201 0.137071
H20   H     H_    0.913394 0.414233 0.614201 0.154932
H21   H     H_    0.086605 0.585767 0.385801 0.154931
H22   H     H_    0.410493 0.391636 0.251913 0.203697
N1    N     N_2   0.520542 0.467694 0.987044 -0.040435
N2    N     N_3   0.354720 0.721699 0.406897 -0.398546
N3    N     N_2   0.479509 0.532303 0.012954 -0.040437
N4    N     N_R   0.515540 0.716920 0.509720 -0.086179
N5    N     N_R   0.484460 0.283080 0.490280 -0.086177
N6    N     N_2   0.535794 0.979851 0.522728 -0.169345
N7    N     N_2   0.464199 0.020148 0.477269 -0.169344
N8    N     N_3   0.070879 0.337807 0.489955 -0.427671
N9    N     N_3   0.929118 0.662193 0.510045 -0.427673
N10   N     N_3   0.645395 0.278305 0.593027 -0.398565
O1    O     O_R   0.494440 0.422540 0.612660 -0.603921
O2    O     O_R   0.505560 0.577460 0.387340 -0.603935
O3    O     O_R   0.504420 0.561850 0.618900 -0.630080
O4    O     O_R   0.495580 0.438150 0.381100 -0.630069
O5    O     O_R   0.681060 0.430360 0.496900 -0.610340
O6    O     O_R   0.318940 0.569640 0.503100 -0.610330
O7    O     O_R   0.691040 0.569670 0.503140 -0.617922
O8    O     O_R   0.308960 0.430330 0.496860 -0.617927
Zn1   Zn    Zn3+2 0.493340 0.406980 0.495830 0.969862
Zn2   Zn    Zn3+2 0.506660 0.593020 0.504170 0.969856

loop_
_geom_bond_atom_site_label_1
_geom_bond_atom_site_label_2
_ccdc_geom_bond_type
C15   C18   S    
C29   N3    S    
C16   C21   S    
N5    Zn1   S    
C12   O4    A    
C9    N4    A    
H10   N9    S    
C2    N5    A    
O1    Zn1   S    
C11   C19   S    
C1    O1    A    
C22   C32   A    
C13   C18   S    
C33   H4    S    
C28   C29   A    
C19   C21   S    
C24   C26   A    
C25   H2    S    
O7    Zn2   S    
C34   N2    S    
C17   C20   S    
C15   C17   S    
N1    N3    D    
H9    N9    S    
C11   O7    A    
C28   F1    S    
C22   C25   A    
C32   H3    S    
C31   C33   A    
H13   N10   S    
C23   C27   A    
N6    N7    D    
C12   O2    A    
C1    C22   S    
N4    Zn2   S    
C8    H17   S    
C14   H20   S    
C3    H6    S    
C23   C30   A    
C14   C20   S    
C10   H19   S    
C4    C6    A    
C5    C7    A    
O8    Zn1   S    
C6    C8    A    
C3    C34   A    
C30   F3    S    
C21   N9    S    
C2    C4    A    
H8    N8    S    
H15   N2    S    
C13   O6    A    
C23   N1    S    
H7    N8    S    
C34   N4    A    
C9    H18   S    
C8    C10   A    
C6    N7    S    
O4    Zn1   S    
C14   C16   S    
C10   N5    A    
C7    C9    A    
C13   O8    A    
C15   H21   S    
C14   C19   S    
C20   N8    S    
C16   C18   S    
O6    Zn2   S    
C5    N6    S    
C3    C5    A    
C17   H12   S    
C4    H5    S    
C27   F2    S    
C25   C27   A    
C12   C24   S    
C26   C28   A    
C24   C33   A    
C31   F4    S    
H11   N10   S    
C1    O3    A    
O2    Zn2   S    
H14   N2    S    
C30   C32   A    
C26   H22   S    
C17   C19   S    
O3    Zn2   S    
C18   C20   S    
C16   H1    S    
C15   C21   S    
C29   C31   A    
C11   O5    A    
C7    H16   S    
C2    N10   S    
O5    Zn1   S    
