data_mof_unit_46699.cif
_audit_creation_date              2012-12-11T14:00:05-0500
_audit_creation_method            fapswitch 2.2
_symmetry_space_group_name_H-M    P1
_symmetry_Int_Tables_number       1
_space_group_crystal_system       triclinic
_cell_length_a                    11.487379
_cell_length_b                    11.521572
_cell_length_c                    19.341007
_cell_angle_alpha                 90.25591
_cell_angle_beta                  89.589015
_cell_angle_gamma                 119.865092
_cell_volume                      2219.83034455

loop_
_atom_site_label
_atom_site_type_symbol
_atom_type_description
_atom_site_fract_x
_atom_site_fract_y
_atom_site_fract_z
_atom_type_partial_charge
C1    C     C_R   0.541929 0.479600 0.851290 0.649948
C2    C     C_R   0.480115 0.549239 0.353208 0.585346
C3    C     C_R   0.069865 0.520494 0.353764 0.582045
C4    C     C_R   0.450209 0.930643 0.353332 0.590056
C5    C     C_2   0.979999 0.468034 0.577033 -0.125478
C6    C     C_2   0.555643 0.482386 0.570112 -0.162092
C7    C     C_2   0.514085 0.068984 0.570515 -0.155817
C8    C     C_2   0.479416 0.999004 0.421684 -0.101291
C9    C     C_2   0.519112 0.518201 0.421116 -0.107682
C10   C     C_2   0.007464 0.485276 0.424223 -0.121390
C11   C     C_2   0.004631 0.382519 0.463108 0.178003
C12   C     C_R   0.524499 0.072079 0.854607 0.619720
C13   C     C_2   0.622502 0.614661 0.461073 0.223221
C14   C     C_2   0.382068 0.006622 0.461507 0.176149
C15   C     C_2   0.407939 0.059772 0.534184 0.094995
C16   C     C_2   0.650889 0.587716 0.532960 0.158989
C17   C     C_2   0.966514 0.362262 0.537906 0.108014
C18   C     C_2   0.009733 0.502275 0.913852 -0.048082
C19   C     C_2   0.504243 0.504050 0.920237 -0.038249
C20   C     C_2   0.516218 0.042253 0.928871 -0.058995
C21   C     C_2   0.496735 0.999160 0.079637 -0.049365
C22   C     C_2   0.485364 0.524554 0.071331 -0.071809
C23   C     C_R   0.934276 0.455551 0.851103 0.595674
C24   C     C_2   0.991962 0.492500 0.085519 -0.024880
C25   C     C_2   0.039984 0.573316 0.030639 0.223261
C26   C     C_2   0.400964 0.412532 0.035046 0.204510
C27   C     C_2   0.602040 0.011697 0.041677 0.187543
C28   C     C_2   0.595044 0.005262 0.963630 0.165072
C29   C     C_2   0.396217 0.414914 0.957033 0.218266
C30   C     C_2   0.961262 0.534177 0.969252 0.184038
C31   C     C_R   0.475614 0.547360 0.145427 0.597027
C32   C     C_R   0.066425 0.521443 0.148619 0.590263
C33   C     C_R   0.458078 0.937194 0.148515 0.624277
C34   C     C_R   0.577512 0.457302 0.640953 0.521910
C35   C     C_R   0.542318 0.119020 0.640866 0.520794
C36   C     C_R   0.927728 0.448489 0.646970 0.543636
Cr1   Cr    Cr6+3 0.464030 0.233680 0.750360 1.193619
Cr2   Cr    Cr6+3 0.766320 0.230350 0.750360 1.193167
Cr3   Cr    Cr6+3 0.769650 0.535970 0.750360 1.196423
Cr4   Cr    Cr6+3 0.233680 0.464030 0.249640 1.224561
Cr5   Cr    Cr6+3 0.230350 0.766320 0.249640 1.211991
Cr6   Cr    Cr6+3 0.535970 0.769650 0.249640 1.218700
H1    H     H_    0.971683 0.548523 0.445748 0.110878
H2    H     H_    0.457636 0.077524 0.956356 0.134382
H3    H     H_    0.587491 0.585685 0.945710 0.172147
H4    H     H_    0.102086 0.498318 0.917563 0.173568
H5    H     H_    0.091617 0.119389 0.422807 0.401299
H6    H     H_    0.865969 0.974652 0.429968 0.408831
H7    H     H_    0.024394 0.909369 0.430069 0.412675
H8    H     H_    0.343767 0.218338 0.477212 0.304538
H9    H     H_    0.989781 0.724351 0.519656 0.383109
H10   H     H_    0.775351 0.147905 0.485370 0.291056
H11   H     H_    0.184991 0.816288 0.931468 0.370224
H12   H     H_    0.460024 0.417109 0.438679 0.066436
H13   H     H_    0.176882 0.061917 0.032642 0.400583
H14   H     H_    0.930756 0.077865 0.028354 0.414087
H15   H     H_    0.841323 0.132118 0.904522 0.370947
H16   H     H_    0.143515 0.110834 0.870214 0.382967
H17   H     H_    0.706298 0.444623 0.070064 0.348752
H18   H     H_    0.579888 0.037590 0.439844 0.083480
H19   H     H_    0.578465 0.034361 0.549403 0.140791
H20   H     H_    0.457630 0.416010 0.549143 0.131670
H21   H     H_    0.024094 0.567380 0.555899 0.087766
H22   H     H_    0.901006 0.395599 0.081057 0.129671
H23   H     H_    0.551497 0.617085 0.045115 0.148445
H24   H     H_    0.415328 0.003334 0.054976 0.170709
O1    O     O_R   0.434100 0.092480 0.829780 -0.467728
O2    O     O_R   0.362730 0.477510 0.175360 -0.448116
O3    O     O_R   0.114780 0.637270 0.175360 -0.454695
O4    O     O_R   0.522490 0.885220 0.175360 -0.449956
O5    O     O_R   0.432250 0.092620 0.670380 -0.437597
O6    O     O_R   0.907380 0.339630 0.670380 -0.456910
O7    O     O_R   0.660370 0.567750 0.670380 -0.425650
O8    O     O_R   0.092620 0.432250 0.329620 -0.416015
O9    O     O_R   0.339630 0.907380 0.329620 -0.417474
O10   O     O_R   0.567750 0.660370 0.329620 -0.421909
O11   O     O_R   0.475790 0.362860 0.676880 -0.452761
O12   O     O_R   0.907520 0.341620 0.829780 -0.493669
O13   O     O_R   0.637140 0.112930 0.676880 -0.436237
O14   O     O_R   0.887070 0.524210 0.676880 -0.475120
O15   O     O_R   0.362860 0.475790 0.323120 -0.452894
O16   O     O_R   0.112930 0.637140 0.323120 -0.458664
O17   O     O_R   0.524210 0.887070 0.323120 -0.456126
O18   O     O_3   0.666667 0.333333 0.749450 -0.384358
O19   O     O_3   0.333333 0.666667 0.250550 -0.361386
O20   O     O_2   0.972918 0.206945 0.360997 -0.276813
O21   O     O_2   0.200961 0.357218 0.410788 -0.273424
O22   O     O_3   0.053967 0.145171 0.462091 -0.347183
O23   O     O_R   0.658380 0.565900 0.829780 -0.429032
O24   O     O_2   0.791983 0.779128 0.362591 -0.268814
O25   O     O_2   0.624412 0.830734 0.417848 -0.286436
O26   O     O_3   0.842643 0.910145 0.468079 -0.335655
O27   O     O_2   0.225334 0.021060 0.361749 -0.281028
O28   O     O_2   0.160852 0.799608 0.414686 -0.291434
O29   O     O_3   0.090589 0.945350 0.467789 -0.370630
O30   O     O_2   0.157750 0.963767 0.583596 -0.116801
O31   O     O_2   0.293674 0.173895 0.632321 -0.180987
O32   O     O_3   0.264161 0.186986 0.507342 -0.417759
O33   O     O_2   0.804506 0.836386 0.582129 -0.075315
O34   O     O_R   0.092480 0.434100 0.170220 -0.453997
O35   O     O_2   0.880796 0.700208 0.627044 -0.234308
O36   O     O_3   0.911516 0.724640 0.499142 -0.497224
O37   O     O_2   0.039052 0.185168 0.579953 -0.062915
O38   O     O_2   0.832822 0.125133 0.631450 -0.175165
O39   O     O_3   0.814902 0.096582 0.505140 -0.448611
O40   O     O_2   0.175297 0.827689 0.065310 -0.254750
O41   O     O_2   0.300935 0.705241 0.060353 -0.308993
O42   O     O_3   0.239062 0.774816 0.944982 -0.529170
O43   O     O_2   0.382004 0.249229 0.139471 -0.270482
O44   O     O_2   0.175542 0.244076 0.103575 -0.204299
O45   O     O_R   0.341620 0.907520 0.170220 -0.437306
O46   O     O_3   0.272897 0.128312 0.025200 -0.479502
O47   O     O_2   0.771060 0.125007 0.148613 -0.258985
O48   O     O_2   0.745343 0.914934 0.103595 -0.203390
O49   O     O_3   0.886111 0.132284 0.032268 -0.482501
O50   O     O_2   0.703842 0.843928 0.965228 -0.217274
O51   O     O_2   0.585771 0.843212 0.860798 -0.225175
O52   O     O_3   0.821797 0.046688 0.882546 -0.437809
O53   O     O_2   0.126764 0.282202 0.959623 -0.259746
O54   O     O_2   0.235336 0.380280 0.849266 -0.272612
O55   O     O_3   0.234399 0.165701 0.889925 -0.455149
O56   O     O_R   0.565900 0.658380 0.170220 -0.461570
O57   O     O_2   0.826234 0.654170 0.935868 -0.196445
O58   O     O_2   0.700192 0.406875 0.939345 -0.368205
O59   O     O_3   0.763180 0.539064 0.055576 -0.516788
O60   O     O_R   0.477510 0.362730 0.824640 -0.438667
O61   O     O_R   0.637270 0.114780 0.824640 -0.461398
O62   O     O_R   0.885220 0.522490 0.824640 -0.447556
S1    S     S_3+6 0.054983 0.270413 0.425160 0.084040
S2    S     S_3+6 0.675906 0.929768 0.917789 0.102535
S3    S     S_3+6 0.243082 0.310587 0.913155 0.073811
S4    S     S_3+6 0.807433 0.532013 0.973194 -0.003023
S5    S     S_3+6 0.722824 0.783692 0.428518 0.109421
S6    S     S_3+6 0.214678 0.945360 0.427266 0.055502
S7    S     S_3+6 0.280848 0.096016 0.568801 0.138666
S8    S     S_3+6 0.813033 0.713490 0.565312 0.132055
S9    S     S_3+6 0.913532 0.192034 0.568619 0.150596
S10   S     S_3+6 0.193744 0.724183 0.027159 0.009703
S11   S     S_3+6 0.305464 0.256493 0.078488 0.088438
S12   S     S_3+6 0.752736 0.044620 0.084058 0.081726

loop_
_geom_bond_atom_site_label_1
_geom_bond_atom_site_label_2
_ccdc_geom_bond_type
Cr5   O45   S    
C14   S6    S    
C1    O23   A    
O57   S4    D    
O54   S3    D    
O26   S5    S    
H11   O42   S    
C4    C8    S    
Cr2   O61   S    
C12   O61   A    
H9    O36   S    
O58   S4    D    
O44   S11   D    
O39   S9    S    
Cr3   O18   S    
O37   S9    D    
C34   O11   A    
C21   H24   S    
O40   S10   D    
C21   C33   S    
Cr2   O13   S    
C5    C36   S    
C18   H4    S    
Cr6   O4    S    
O38   S9    D    
C5    H21   S    
C3    O8    A    
C9    C13   D    
C7    H19   S    
C4    O9    A    
C22   C26   D    
C15   S7    S    
O53   S3    D    
Cr1   O18   S    
C33   O45   A    
O48   S12   D    
C20   C28   D    
C7    C15   D    
C21   C27   D    
C35   O5    A    
C24   H22   S    
O46   S11   S    
C13   S5    S    
O22   S1    S    
O55   S3    S    
C11   S1    S    
C20   H2    S    
O30   S7    D    
C31   O2    A    
C12   O1    A    
Cr2   O6    S    
H8    O32   S    
C1    C19   S    
C22   C31   S    
C18   C23   S    
C1    O60   A    
C26   S11   S    
C36   O14   A    
O24   S5    D    
Cr2   O12   S    
Cr1   O11   S    
O32   S7    S    
O29   S6    S    
H7    O29   S    
C32   O34   A    
Cr4   O19   S    
C24   C32   S    
C22   H23   S    
O52   S2    S    
Cr5   O9    S    
O25   S5    D    
C12   C20   S    
C3    O16   A    
O47   S12   D    
O50   S2    D    
Cr6   O19   S    
C24   C25   D    
O51   S2    D    
C33   O4    A    
C18   C30   D    
H10   O39   S    
O27   S6    D    
Cr1   O5    S    
Cr4   O2    S    
O31   S7    D    
C16   S8    S    
C2    O10   A    
Cr6   O56   S    
H13   O46   S    
Cr5   O3    S    
Cr1   O60   S    
O35   S8    D    
C25   C30   S    
C11   C17   S    
H16   O55   S    
C8    C14   D    
Cr3   O62   S    
Cr2   O18   S    
C10   H1    S    
C7    C35   S    
Cr4   O15   S    
Cr6   O17   S    
C31   O56   A    
Cr4   O34   S    
C19   H3    S    
O20   S1    D    
C32   O3    A    
H17   O59   S    
Cr5   O19   S    
Cr6   O10   S    
C27   S12   S    
O43   S11   D    
Cr3   O14   S    
C6    H20   S    
O41   S10   D    
C25   S10   S    
C3    C10   S    
H5    O22   S    
O42   S10   S    
O59   S4    S    
O21   S1    D    
C29   S3    S    
C4    O17   A    
C30   S4    S    
Cr5   O16   S    
Cr1   O1    S    
C35   O13   A    
O28   S6    D    
H14   O49   S    
Cr4   O8    S    
O33   S8    D    
C28   S2    S    
Cr3   O7    S    
C23   O12   A    
O36   S8    S    
C10   C11   D    
C34   O7    A    
C6    C16   D    
C6    C34   S    
C5    C17   D    
O49   S12   S    
C26   C29   S    
H6    O26   S    
C13   C16   S    
C27   C28   S    
C14   C15   S    
H15   O52   S    
C2    O15   A    
C17   S9    S    
C9    H12   S    
C2    C9    S    
Cr3   O23   S    
C8    H18   S    
C36   O6    A    
C23   O62   A    
C19   C29   D    
