data_mof_unit_37481.cif
_audit_creation_date              2012-12-10T16:43:27-0500
_audit_creation_method            fapswitch 2.2
_symmetry_space_group_name_H-M    P1
_symmetry_Int_Tables_number       1
_space_group_crystal_system       triclinic
_cell_length_a                    10.865103
_cell_length_b                    8.751662
_cell_length_c                    7.534158
_cell_angle_alpha                 102.758512
_cell_angle_beta                  94.946332
_cell_angle_gamma                 94.26302
_cell_volume                      692.893589038

loop_
_atom_site_label
_atom_site_type_symbol
_atom_type_description
_atom_site_fract_x
_atom_site_fract_y
_atom_site_fract_z
_atom_type_partial_charge
C1    C     C_R   0.498332 0.200357 0.454269 0.924592
C2    C     C_R   0.083344 0.632540 0.645434 -0.004116
C3    C     C_R   0.133024 0.527693 0.505432 -0.128729
C4    C     C_R   0.056180 0.427137 0.365061 -0.225410
C5    C     C_R   0.928956 0.420490 0.360274 0.318118
C6    C     C_R   0.874479 0.514946 0.505176 -0.157928
C7    C     C_2   0.491958 0.032473 0.433684 -0.394867
C8    C     C_2   0.538665 0.966250 0.566637 0.194584
C9    C     C_R   0.264622 0.511784 0.502733 0.886677
C10   C     C_R   0.511754 0.799602 0.545550 0.783575
C11   C     C_R   0.738279 0.505190 0.500787 0.810788
C12   C     C_R   0.159131 0.752286 0.776316 0.627438
C13   C     C_R   0.110686 0.837853 0.928026 -0.144592
C14   C     C_R   0.985834 0.814681 0.946643 -0.131707
C15   C     C_R   0.907350 0.711792 0.809270 -0.056490
C16   C     C_R   0.953039 0.618761 0.653558 -0.031287
Cu1   Cu    Cu3+1 0.513920 0.517380 0.684380 1.216489
Cu2   Cu    Cu3+1 0.486080 0.482620 0.315620 1.180767
H1    H     H_    0.096966 0.349442 0.258460 0.244452
H2    H     H_    0.169997 0.923921 0.031045 0.166266
H3    H     H_    0.948455 0.880830 0.065605 0.210680
H4    H     H_    0.811969 0.709747 0.833149 0.236223
H5    H     H_    0.438597 0.961389 0.310503 0.151169
N1    N     N_2   0.465100 0.456430 0.038520 0.138761
N2    N     N_2   0.534900 0.543570 0.961480 0.218978
O1    O     O_R   0.509050 0.286130 0.619770 -0.501745
O2    O     O_R   0.485540 0.256780 0.308360 -0.570156
O3    O     O_R   0.331410 0.514680 0.655740 -0.506994
O4    O     O_R   0.307900 0.485330 0.344330 -0.560063
O5    O     O_R   0.514460 0.743220 0.691640 -0.527456
O6    O     O_R   0.490950 0.713870 0.380230 -0.597377
O7    O     O_R   0.692100 0.514670 0.655670 -0.573222
O8    O     O_R   0.668590 0.485320 0.344260 -0.484149
F1    F     F_    0.632302 0.626812 0.068734 -0.531263
F2    F     F_    0.278278 0.794586 0.754883 -0.693638
S1    S     S_3+6 0.844455 0.285362 0.171468 0.098772
O9    O     O_2   0.782865 0.377370 0.048807 -0.128669
O10   O     O_2   0.928510 0.181001 0.062953 -0.261487
O11   O     O_3   0.736934 0.172291 0.244214 -0.493003
H6    H     H_    0.784870 0.110842 0.316687 0.346435
S2    S     S_3+6 0.645636 0.066617 0.755082 0.102512
O12   O     O_2   0.720718 0.953363 0.829033 -0.282849
O13   O     O_2   0.732810 0.183462 0.697028 -0.229332
O14   O     O_3   0.566163 0.159180 0.921201 -0.422726
H7    H     H_    0.523617 0.073522 0.966482 0.358110
S3    S     S_3+6 0.320111 0.359281 0.944398 0.164581
O15   O     O_2   0.226283 0.477388 0.949047 -0.271067
O16   O     O_2   0.315611 0.259504 0.754556 -0.297058
O17   O     O_3   0.274988 0.236100 0.073901 -0.518681
H8    H     H_    0.316123 0.139507 0.030946 0.346095

loop_
_geom_bond_atom_site_label_1
_geom_bond_atom_site_label_2
_ccdc_geom_bond_type
C3    C9    S    
C2    C16   A    
S2    O12   D    
C10   O5    A    
C4    H1    S    
C9    O4    A    
N2    F1    S    
N1    S3    S    
S1    O10   D    
C2    C3    A    
C2    C12   A    
C7    C8    D    
Cu2   O4    S    
C1    C7    S    
C13   C14   A    
C8    S2    S    
C12   F2    S    
Cu1   O5    S    
S2    O13   D    
S3    O17   S    
C5    C6    A    
C7    H5    S    
Cu1   O1    S    
C14   H3    S    
S1    O9    D    
Cu2   O8    S    
C11   O7    A    
Cu1   Cu2   S    
S3    O16   D    
C6    C11   S    
C1    O1    A    
S2    O14   S    
Cu2   N1    S    
O14   H7    S    
C6    C16   A    
C3    C4    A    
C5    S1    S    
C11   O8    A    
N1    N2    D    
C8    C10   S    
O17   H8    S    
O11   H6    S    
C1    O2    A    
Cu1   O7    S    
S3    O15   D    
C4    C5    A    
Cu2   O6    S    
C13   H2    S    
C12   C13   A    
C14   C15   A    
Cu1   O3    S    
C10   O6    A    
S1    O11   S    
C15   H4    S    
Cu2   O2    S    
C15   C16   A    
C9    O3    A    
Cu1   N2    S    
