data_mof_unit_15972.cif
_audit_creation_date              2012-12-11T18:09:16-0500
_audit_creation_method            fapswitch 2.2
_symmetry_space_group_name_H-M    P1
_symmetry_Int_Tables_number       1
_space_group_crystal_system       triclinic
_cell_length_a                    8.235764
_cell_length_b                    12.760641
_cell_length_c                    19.111942
_cell_angle_alpha                 99.677518
_cell_angle_beta                  91.959105
_cell_angle_gamma                 98.304777
_cell_volume                      1955.67580506

loop_
_atom_site_label
_atom_site_type_symbol
_atom_type_description
_atom_site_fract_x
_atom_site_fract_y
_atom_site_fract_z
_atom_type_partial_charge
Ba1   Ba    Ba6+2 0.853180 0.547790 0.465300 1.641021
Ba2   Ba    Ba6+2 0.336650 0.452300 0.534710 1.661890
C1    C     C_3   0.704676 0.882979 0.208599 -0.383706
C2    C     C_R   0.021119 0.545707 0.727252 0.051914
C3    C     C_R   0.857388 0.415512 0.812134 -0.156959
C4    C     C_3   0.108439 0.755794 0.268252 0.403925
C5    C     C_R   0.786292 0.423256 0.746023 0.025432
C6    C     C_R   0.335465 0.583720 0.188952 -0.162705
C7    C     C_R   0.403685 0.575763 0.255250 0.008375
C8    C     C_R   0.125873 0.435891 0.199180 -0.156646
C9    C     C_R   0.166806 0.455038 0.273274 0.057647
C10   C     C_R   0.987781 0.495109 0.846135 0.003925
C11   C     C_R   0.878662 0.477336 0.700815 -0.257116
C12   C     C_3   0.651980 0.806124 0.259464 0.341595
C13   C     C_R   0.201453 0.507187 0.155175 -0.007111
C14   C     C_R   0.310839 0.521098 0.299822 -0.239448
C15   C     C_R   0.757503 0.436950 0.957734 -0.085944
C16   C     C_3   0.101776 0.785697 0.194216 -0.390809
C17   C     C_R   0.651723 0.383817 0.000364 0.447719
C18   C     C_R   0.701279 0.396072 0.072492 -0.155944
C19   C     C_R   0.854881 0.452333 0.096825 -0.144202
C20   C     C_R   0.978494 0.474079 0.049946 0.013721
C21   C     C_R   0.927804 0.469802 0.976646 -0.027942
C22   C     C_R   0.146277 0.502918 0.075777 0.003301
C23   C     C_3   0.464843 0.296024 0.320075 0.321455
C24   C     C_R   0.261397 0.531127 0.025050 0.046551
C25   C     C_R   0.211855 0.534614 0.952603 -0.027845
C26   C     C_R   0.043149 0.501317 0.925808 0.008611
C27   C     C_R   0.430907 0.553577 0.044433 -0.097643
C28   C     C_3   0.231686 0.786260 0.617088 0.290015
C29   C     C_R   0.540507 0.609350 0.006066 -0.145877
C30   C     C_R   0.493524 0.621073 0.937489 0.449516
C31   C     C_R   0.338415 0.569119 0.908983 -0.078923
C32   C     C_R   0.765238 0.180057 0.523344 -0.284980
C33   C     C_R   0.424511 0.807875 0.472424 -0.361039
C34   C     C_3   0.446161 0.268935 0.239256 -0.410319
C35   C     C_R   0.408822 0.976807 0.434249 0.356749
C36   C     C_R   0.337262 0.872521 0.438735 -0.036215
C37   C     C_R   0.575274 0.849148 0.509721 0.070174
C38   C     C_R   0.641732 0.960045 0.513802 -0.084399
C39   C     C_R   0.556413 0.025301 0.475706 -0.108998
C40   C     C_3   0.235127 0.907164 0.628755 -0.327903
C41   C     C_R   0.620629 0.136582 0.481767 0.051614
C42   C     C_R   0.856147 0.115872 0.555666 -0.012876
C43   C     C_R   0.792205 0.007094 0.553007 -0.057964
C44   C     C_3   0.958067 0.211583 0.379720 0.297566
C45   C     C_3   0.105718 0.249746 0.728855 0.337178
C46   C     C_3   0.926142 0.089503 0.361565 -0.347477
C47   C     C_3   0.725684 0.698135 0.675813 0.300413
C48   C     C_3   0.754931 0.730166 0.755549 -0.375142
C49   C     C_3   0.798024 0.015421 0.747067 0.189110
C50   C     C_3   0.576914 0.084967 0.886927 0.172748
C51   C     C_3   0.404860 0.271890 0.012218 0.170031
C52   C     C_3   0.712836 0.756489 0.932566 0.123556
C53   C     C_3   0.392754 0.993586 0.318877 0.241341
C54   C     C_3   0.134644 0.233283 0.805391 -0.356879
C55   C     C_3   0.566082 0.176021 0.716237 0.420146
C56   C     C_3   0.558062 0.093433 0.766556 0.698327
C57   C     C_R   0.058739 0.567553 0.801759 -0.143789
H1    H     H_    0.684722 0.847316 0.315256 0.029447
H2    H     H_    0.836432 0.669824 0.653200 0.001824
H3    H     H_    0.619698 0.632186 0.664736 0.086326
H4    H     H_    0.834166 0.921346 0.221823 0.130684
H5    H     H_    0.871331 0.787200 0.768902 0.084351
H6    H     H_    0.762949 0.657961 0.779721 0.114342
H7    H     H_    0.650692 0.768885 0.777433 0.172974
H8    H     H_    0.626239 0.947066 0.212194 0.054135
H9    H     H_    0.347565 0.316403 0.340798 0.005110
H10   H     H_    0.563481 0.366089 0.335188 0.088027
H11   H     H_    0.340156 0.204144 0.222253 0.102164
H12   H     H_    0.323922 0.945712 0.673378 0.131012
H13   H     H_    0.425446 0.340743 0.216714 0.072213
H14   H     H_    0.559731 0.241663 0.217957 0.126317
H15   H     H_    0.692053 0.838620 0.152969 0.109330
H16   H     H_    0.170775 0.867320 0.195034 0.094652
H17   H     H_    0.200890 0.315442 0.718768 0.120653
H18   H     H_    0.983441 0.274206 0.723073 -0.039653
H19   H     H_    0.174816 0.312222 0.840315 0.112379
H20   H     H_    0.020179 0.195174 0.825484 0.087758
H21   H     H_    0.696495 0.204964 0.708195 -0.159445
H22   H     H_    0.505434 0.136504 0.663653 -0.018824
H23   H     H_    0.272890 0.939245 0.580493 0.078919
H24   H     H_    0.424621 0.067425 0.771705 -0.021607
H25   H     H_    0.022502 0.680235 0.268253 0.089374
H26   H     H_    0.142753 0.639744 0.823345 0.058694
H27   H     H_    0.805489 0.349046 0.836633 0.112991
H28   H     H_    0.394127 0.647080 0.163412 0.065780
H29   H     H_    0.032691 0.368396 0.177716 0.069052
H30   H     H_    0.833897 0.471666 0.646207 0.061870
H31   H     H_    0.356884 0.524061 0.353957 0.059893
H32   H     H_    0.698571 0.456463 0.911641 0.114822
H33   H     H_    0.617770 0.372437 0.111429 0.078522
H34   H     H_    0.111437 0.926957 0.641442 0.116838
H35   H     H_    0.234519 0.740895 0.280445 -0.092334
H36   H     H_    0.874136 0.479715 0.152777 0.147365
H37   H     H_    0.483859 0.526895 0.089047 0.090241
H38   H     H_    0.666010 0.633593 0.027721 0.063303
H39   H     H_    0.323851 0.555734 0.852541 0.131052
H40   H     H_    0.862423 0.960476 0.580992 0.085729
H41   H     H_    0.812860 0.264606 0.527374 0.057970
H42   H     H_    0.370686 0.725300 0.472233 0.082429
H43   H     H_    0.155591 0.727998 0.155467 0.072938
H44   H     H_    0.973408 0.783225 0.174604 0.142728
H45   H     H_    0.844052 0.241454 0.396961 -0.006536
H46   H     H_    0.356348 0.767787 0.606541 0.013085
H47   H     H_    0.145716 0.750857 0.570379 0.072728
H48   H     H_    0.516848 0.784593 0.251511 -0.065670
H49   H     H_    0.230953 0.181986 0.809371 0.151129
H50   H     H_    0.835385 0.011936 0.802894 0.051114
H51   H     H_    0.848278 0.950866 0.712721 0.092449
H52   H     H_    0.854865 0.090846 0.731849 0.046573
H53   H     H_    0.590390 0.998478 0.873438 0.037444
H54   H     H_    0.446284 0.092965 0.895853 0.028489
H55   H     H_    0.650494 0.119092 0.937399 0.056285
H56   H     H_    0.055192 0.235766 0.423371 0.082454
H57   H     H_    0.358885 0.320334 0.059124 0.034022
H58   H     H_    0.478225 0.212460 0.028636 -0.004077
H59   H     H_    0.295525 0.226054 0.979498 0.059735
H60   H     H_    0.820423 0.725648 0.953814 0.047643
H61   H     H_    0.654906 0.805444 0.975876 0.011342
H62   H     H_    0.759837 0.812093 0.896744 0.054732
H63   H     H_    0.367233 0.906067 0.302374 -0.036539
H64   H     H_    0.527482 0.018247 0.318567 0.016476
H65   H     H_    0.330077 0.029979 0.278831 0.077760
H66   H     H_    0.818402 0.063676 0.323101 0.084997
H67   H     H_    0.901348 0.054160 0.409884 0.092120
H68   H     H_    0.034863 0.059124 0.337566 0.176763
O1    O     O_2   0.875110 0.423180 0.326290 -0.455401
O2    O     O_2   0.196007 0.124789 0.550009 -0.458902
O3    O     O_3   0.113257 0.154403 0.680746 -0.626643
O4    O     O_3   0.123410 0.433040 0.414950 -0.502217
O5    O     O_3   0.577950 0.634370 0.536140 -0.499554
O6    O     O_2   0.341900 0.231310 0.465740 -0.424920
O7    O     O_3   0.505290 0.206243 0.345922 -0.633787
O8    O     O_2   0.467754 0.465741 0.757425 -0.484881
O9    O     O_3   0.480552 0.259485 0.745359 -0.616012
O10   O     O_3   0.661010 0.625070 0.369680 -0.468991
O11   O     O_2   0.702006 0.510049 0.247744 -0.502813
O12   O     O_3   0.692771 0.787974 0.648081 -0.619408
O13   O     O_3   0.006875 0.251595 0.318820 -0.636231
O14   O     O_3   0.732230 0.715652 0.244294 -0.593437
O15   O     O_2   0.847800 0.768730 0.534310 -0.475160
O16   O     O_3   0.082250 0.684470 0.405440 -0.497704
O17   O     O_2   0.001574 0.875043 0.452130 -0.469467
O18   O     O_3   0.625163 0.000448 0.736153 -0.690902
O19   O     O_3   0.635663 0.143078 0.833936 -0.664902
O20   O     O_3   0.494343 0.339175 0.970798 -0.633200
O21   O     O_3   0.599987 0.670404 0.893603 -0.649794
O22   O     O_3   0.335221 0.027636 0.386480 -0.628941
O23   O     O_3   0.066066 0.840165 0.318313 -0.584962
O24   O     O_2   0.314600 0.576860 0.673750 -0.464262
O25   O     O_3   0.066300 0.567050 0.585060 -0.501794
O26   O     O_3   0.528700 0.375020 0.630330 -0.474649
O27   O     O_3   0.181952 0.748676 0.678876 -0.631614
O28   O     O_3   0.611760 0.365720 0.463870 -0.499925
O29   O     O_3   0.107460 0.315620 0.594570 -0.497142
P1    P     P_3+3 0.042930 0.392230 0.337410 0.971050
P2    P     P_3+3 0.672230 0.754900 0.555730 0.979809
P3    P     P_3+3 0.123308 0.820757 0.403890 0.998870
P4    P     P_3+3 0.146790 0.607860 0.662600 0.973915
P5    P     P_3+3 0.065893 0.176464 0.594665 0.938640
P6    P     P_3+3 0.623699 0.609293 0.278361 0.932306
P7    P     P_3+3 0.521036 0.232057 0.438856 1.001904
P8    P     P_3+3 0.567244 0.380329 0.720890 0.965496

loop_
_geom_bond_atom_site_label_1
_geom_bond_atom_site_label_2
_ccdc_geom_bond_type
O25   P4    S    
C14   H31   S    
C16   H16   S    
C52   H61   S    
C40   H34   S    
C48   H5    S    
O8    P8    D    
C17   C18   A    
C40   H23   S    
Ba1   O1    S    
Ba1   O5    S    
C56   O18   S    
C50   H54   S    
C25   C31   A    
C18   H33   S    
C8    H29   S    
C24   C25   A    
C15   C21   A    
C54   H20   S    
C44   H56   S    
C10   C26   S    
C44   O13   S    
Ba1   P2    S    
C7    C14   A    
C22   C24   A    
C45   H17   S    
C31   H39   S    
C8    C13   A    
O10   P6    S    
C51   H58   S    
C49   O18   S    
C51   O20   S    
C54   H19   S    
O7    P7    S    
Ba1   O25   S    
O4    P1    S    
Ba1   Ba2   S    
C16   H43   S    
C2    C11   A    
Ba1   O28   S    
C1    H15   S    
C54   H49   S    
Ba1   O15   S    
C4    H25   S    
C46   H66   S    
C10   C57   A    
O12   P2    S    
C6    C7    A    
C4    H35   S    
C15   H32   S    
C32   H41   S    
C55   O9    S    
C49   H52   S    
C51   H57   S    
C37   P2    S    
Ba2   O29   S    
C53   H63   S    
O14   P6    S    
C49   H50   S    
C52   H60   S    
C28   H47   S    
C39   C41   A    
C55   H21   S    
C23   H9    S    
O15   P2    D    
O6    P7    D    
C34   H11   S    
O1    P1    D    
C53   O22   S    
C44   C46   S    
Ba2   O25   S    
C38   C43   A    
C4    C16   S    
C53   H64   S    
Ba2   O6    S    
C47   H2    S    
O23   P3    S    
C45   O3    S    
C33   C36   A    
C32   C42   A    
C3    C10   A    
C43   H40   S    
C37   C38   A    
C3    C5    A    
C51   H59   S    
C6    C13   A    
C19   H36   S    
C33   H42   S    
C44   H45   S    
C17   O20   S    
C33   C37   A    
C57   H26   S    
O27   P4    S    
C35   C36   A    
Ba1   O16   S    
O13   P1    S    
C9    C14   A    
Ba2   O5    S    
C29   C30   A    
C28   O27   S    
Ba2   O4    S    
O2    P5    D    
O11   P6    D    
Ba2   O28   S    
C21   C26   A    
O17   P3    D    
C23   O7    S    
C48   H7    S    
C1    C12   S    
C3    H27   S    
O3    P5    S    
C13   C22   S    
C52   H62   S    
O29   P5    S    
Ba2   O26   S    
C1    H4    S    
C8    C9    A    
C47   O12   S    
C28   H46   S    
C55   H22   S    
C23   H10   S    
C42   P5    S    
C45   H18   S    
C12   H48   S    
O26   P8    S    
Ba1   O10   S    
C42   C43   A    
C9    P1    S    
C52   O21   S    
O9    P8    S    
Ba2   O24   S    
C53   H65   S    
C38   C39   A    
C50   O19   S    
C47   H3    S    
C11   H30   S    
C1    H8    S    
C32   C41   A    
C35   O22   S    
Ba1   O4    S    
C36   P3    S    
C27   H37   S    
C56   O19   S    
O16   P3    S    
C30   O21   S    
C50   H55   S    
C49   H51   S    
C12   H1    S    
C5    P8    S    
C6    H28   S    
O28   P7    S    
O24   P4    D    
Ba1   P1    S    
C27   C29   A    
C56   H24   S    
C30   C31   A    
C46   H68   S    
C55   C56   S    
C2    P4    S    
C2    C57   A    
C40   H12   S    
C15   C17   A    
C20   C22   A    
C16   H44   S    
C29   H38   S    
C35   C39   A    
C7    P6    S    
C48   H6    S    
O5    P2    S    
C12   O14   S    
C34   H14   S    
C23   C34   S    
C46   H67   S    
C4    O23   S    
C5    C11   A    
C18   C19   A    
C24   C27   A    
Ba2   P4    S    
C47   C48   S    
C25   C26   A    
C50   H53   S    
C20   C21   A    
C28   C40   S    
C19   C20   A    
C34   H13   S    
C45   C54   S    
C41   P7    S    
