data_mof_unit_16250.cif
_audit_creation_date              2012-12-11T15:11:42-0500
_audit_creation_method            fapswitch 2.2
_symmetry_space_group_name_H-M    P1
_symmetry_Int_Tables_number       1
_space_group_crystal_system       triclinic
_cell_length_a                    19.927791
_cell_length_b                    7.156483
_cell_length_c                    14.08907
_cell_angle_alpha                 90.0
_cell_angle_beta                  104.655718
_cell_angle_gamma                 89.999955
_cell_volume                      1943.90822725

loop_
_atom_site_label
_atom_site_type_symbol
_atom_type_description
_atom_site_fract_x
_atom_site_fract_y
_atom_site_fract_z
_atom_type_partial_charge
O1    O     O_R   0.449830 0.506740 0.599960 -0.536111
O2    O     O_R   0.550170 0.006740 0.400040 -0.536111
O3    O     O_R   0.588980 0.179860 0.596720 -0.550526
O4    O     O_R   0.411020 0.679860 0.403280 -0.550526
C1    C     C_R   0.618853 0.343760 0.610516 0.716216
C2    C     C_R   0.381147 0.843760 0.389484 0.716216
O5    O     O_R   0.452740 0.177340 0.612040 -0.543755
O6    O     O_R   0.547260 0.677340 0.387960 -0.543754
O7    O     O_R   0.412960 0.002070 0.415460 -0.546116
O8    O     O_R   0.587040 0.502070 0.584540 -0.546116
C3    C     C_R   0.436838 0.344621 0.636567 0.699910
C4    C     C_R   0.563161 0.844621 0.363433 0.699910
O9    O     O_3   0.487110 0.337570 0.435490 -0.382333
O10   O     O_3   0.512890 0.837570 0.564510 -0.382333
V1    V     V_3+5 0.502390 0.064650 0.511970 1.429669
V2    V     V_3+5 0.497610 0.564650 0.488030 1.429669
C5    C     C_R   0.610940 0.655888 0.147987 -0.143478
C6    C     C_R   0.389060 0.155892 0.852014 -0.143479
H1    H     H_    0.521092 0.647038 0.202140 0.111741
H2    H     H_    0.478908 0.147040 0.797860 0.111741
H3    H     H_    0.591109 0.545393 0.095853 0.137867
H4    H     H_    0.408891 0.045395 0.904147 0.137866
C7    C     C_R   0.598116 0.838134 0.285040 -0.038680
C8    C     C_R   0.401884 0.338135 0.714961 -0.038679
C9    C     C_R   0.925141 0.928826 0.299532 0.601570
C10   C     C_R   0.074859 0.428823 0.700468 0.601570
C11   C     C_R   0.889406 0.965546 0.369839 -0.148024
C12   C     C_R   0.110594 0.465543 0.630161 -0.148024
C13   C     C_R   0.818028 0.944366 0.348228 -0.194649
C14   C     C_R   0.181972 0.444365 0.651772 -0.194650
C15   C     C_R   0.779865 0.880399 0.255253 0.017363
C16   C     C_R   0.220135 0.380400 0.744747 0.017363
C17   C     C_R   0.816139 0.835642 0.182302 -0.171309
C18   C     C_R   0.183861 0.335643 0.817698 -0.171309
C19   C     C_R   0.707233 0.847295 0.235993 0.040420
C20   C     C_R   0.292767 0.347297 0.764008 0.040420
C21   C     C_R   0.674289 0.743409 0.151886 -0.037416
C22   C     C_R   0.325711 0.243413 0.848116 -0.037416
C23   C     C_R   0.704840 0.724599 0.073386 0.342945
C24   C     C_R   0.295160 0.224602 0.926615 0.342946
C25   C     C_R   0.776782 0.764429 0.089664 0.356324
C26   C     C_R   0.223218 0.264431 0.910336 0.356325
C27   C     C_R   0.666248 0.903398 0.299999 -0.173524
C28   C     C_R   0.333752 0.403400 0.700001 -0.173524
C29   C     C_R   0.571396 0.711594 0.209630 -0.175726
C30   C     C_R   0.428605 0.211596 0.790371 -0.175727
C31   C     C_R   0.890175 0.867059 0.205446 -0.162170
C32   C     C_R   0.109825 0.367058 0.794554 -0.162169
H5    H     H_    0.686299 0.990509 0.363326 0.150911
H6    H     H_    0.313701 0.490509 0.636674 0.150911
H7    H     H_    0.794455 0.971864 0.407713 0.179159
H8    H     H_    0.205545 0.471862 0.592287 0.179158
H9    H     H_    0.917350 0.012755 0.442064 0.171952
H10   H     H_    0.082650 0.512750 0.557935 0.171952
C33   C     C_3   0.238911 0.843313 0.146960 -0.323675
C34   C     C_3   0.761089 0.343313 0.853040 -0.323676
H11   H     H_    0.229288 0.724434 0.096921 0.146167
H12   H     H_    0.770712 0.224432 0.903079 0.146166
H13   H     H_    0.236812 0.963506 0.097593 0.228715
H14   H     H_    0.763188 0.463505 0.902408 0.228715
C35   C     C_3   0.311556 0.830120 0.217264 -0.462225
C36   C     C_3   0.688444 0.330121 0.782736 -0.462227
H15   H     H_    0.344600 0.941388 0.198799 0.193071
H16   H     H_    0.655400 0.441391 0.801201 0.193071
H17   H     H_    0.336469 0.695256 0.207536 0.147465
H18   H     H_    0.663530 0.195257 0.792464 0.147466
H19   H     H_    0.170343 0.564709 0.241900 0.102072
H20   H     H_    0.829657 0.064709 0.758100 0.102072
H21   H     H_    0.284796 0.553526 0.340801 0.048493
H22   H     H_    0.715204 0.053525 0.659199 0.048493
C37   C     C_3   0.186520 0.700232 0.278093 -0.350425
C38   C     C_3   0.813479 0.200231 0.721906 -0.350426
C39   C     C_3   0.195829 0.042101 0.266204 -0.319239
C40   C     C_3   0.804171 0.542101 0.733796 -0.319240
C41   C     C_3   0.181501 0.861105 0.202416 0.028301
C42   C     C_3   0.818499 0.361105 0.797584 0.028301
H23   H     H_    0.157899 0.053360 0.311911 0.187411
H24   H     H_    0.842100 0.553360 0.688089 0.187411
H25   H     H_    0.188084 0.168714 0.220447 0.157202
H26   H     H_    0.811916 0.668713 0.779553 0.157204
C43   C     C_3   0.307753 0.851553 0.324460 0.032860
C44   C     C_3   0.692247 0.351553 0.675540 0.032860
C45   C     C_3   0.261119 0.691353 0.348268 0.503377
C46   C     C_3   0.738881 0.191353 0.651732 0.503376
C47   C     C_3   0.270806 0.040326 0.333989 -0.298610
C48   C     C_3   0.729193 0.540326 0.666011 -0.298609
H27   H     H_    0.300705 0.158951 0.314384 0.135082
H28   H     H_    0.699295 0.658951 0.685616 0.135081
H29   H     H_    0.268814 0.062435 0.411385 0.187860
H30   H     H_    0.731186 0.562435 0.588615 0.187861
H31   H     H_    0.148272 0.725676 0.322164 0.202928
H32   H     H_    0.851728 0.225676 0.677836 0.202928
O11   O     O_R   0.912980 0.203550 0.915410 -0.560465
O12   O     O_R   0.087020 0.703550 0.084590 -0.560465
O13   O     O_R   0.047270 0.535570 0.887960 -0.544083
O14   O     O_R   0.952730 0.035570 0.112040 -0.544082
C49   C     C_R   0.067858 0.368858 0.867593 0.794190
C50   C     C_R   0.932142 0.868858 0.132407 0.794190
O15   O     O_R   0.911030 0.532970 0.903270 -0.537698
O16   O     O_R   0.088970 0.032970 0.096730 -0.537699
O17   O     O_R   0.949820 0.708150 0.099970 -0.523086
O18   O     O_R   0.050180 0.208150 0.900030 -0.523086
C51   C     C_R   0.887668 0.364653 0.874080 0.720862
C52   C     C_R   0.112331 0.864653 0.125920 0.720862
O19   O     O_3   0.012900 0.375230 0.064480 -0.392054
O20   O     O_3   0.987100 0.875230 0.935520 -0.392055
V3    V     V_3+5 0.997610 0.648190 0.988040 1.461778
V4    V     V_3+5 0.002390 0.148190 0.011960 1.461778
O21   O     O_3   0.665926 0.658595 0.982022 -0.550394
C53   C     C_3   0.605396 0.771525 0.943807 0.079506
H33   H     H_    0.615895 0.923493 0.955583 0.101648
H34   H     H_    0.562489 0.739309 0.977437 0.126091
C54   C     C_3   0.573873 0.733961 0.834920 -0.712801
H35   H     H_    0.609598 0.770887 0.789263 0.209910
H36   H     H_    0.558408 0.584994 0.823592 0.206635
H37   H     H_    0.526349 0.819883 0.809122 0.181920
O22   O     O_3   0.334074 0.158599 0.017980 -0.550395
C55   C     C_3   0.394605 0.271527 0.056194 0.079498
H38   H     H_    0.384107 0.423494 0.044414 0.101651
H39   H     H_    0.437512 0.239299 0.022568 0.126096
C56   C     C_3   0.426125 0.233971 0.165082 -0.712803
H40   H     H_    0.390400 0.270904 0.210737 0.209911
H41   H     H_    0.441591 0.085006 0.176415 0.206635
H42   H     H_    0.473650 0.319894 0.190880 0.181920
F1    F     F_    0.257135 0.705593 0.444852 -0.715246
F2    F     F_    0.742865 0.205594 0.555148 -0.715245
F3    F     F_    0.994811 0.957937 0.322839 -0.702006
F4    F     F_    0.005189 0.457932 0.677160 -0.702006
O23   O     O_3   0.809604 0.712694 0.018527 -0.561808
C57   C     C_3   0.810738 0.865657 0.955874 0.113050
H43   H     H_    0.853755 0.844613 0.920532 0.166479
H44   H     H_    0.821838 0.000042 0.996521 0.083776
C58   C     C_3   0.743583 0.877062 0.876350 -0.798608
H45   H     H_    0.750910 0.941869 0.809999 0.163692
H46   H     H_    0.722623 0.737471 0.854470 0.271917
H47   H     H_    0.706479 0.963344 0.902701 0.217736
O24   O     O_3   0.190396 0.212695 0.981473 -0.561808
C59   C     C_3   0.189262 0.365657 0.044126 0.113048
H48   H     H_    0.146246 0.344611 0.079469 0.166479
H49   H     H_    0.178161 0.500042 0.003479 0.083777
C60   C     C_3   0.256417 0.377063 0.123649 -0.798607
H50   H     H_    0.249090 0.441864 0.190002 0.163690
H51   H     H_    0.277377 0.237471 0.145528 0.271920
H52   H     H_    0.293521 0.463345 0.097299 0.217738

loop_
_geom_bond_atom_site_label_1
_geom_bond_atom_site_label_2
_ccdc_geom_bond_type
O17   V3    S    
O15   C51   A    
C7    C29   A    
C33   H13   S    
C11   C13   A    
O22   C55   S    
C18   C26   A    
C38   C42   S    
O2    C4    A    
O11   C51   A    
C2    O7    A    
C23   C25   A    
O5    C3    A    
C32   C49   S    
O19   V3    S    
C4    C7    S    
C31   C50   S    
C40   C42   S    
C34   C42   S    
C16   C20   A    
C19   C21   A    
C5    C29   A    
O23   C57   S    
C60   H51   S    
O11   V4    S    
C38   H32   S    
C48   H28   S    
H22   C46   S    
O20   V3    S    
H2    C30   S    
C3    C8    S    
O16   C52   A    
C7    C27   A    
C35   H15   S    
C55   H38   S    
C56   H42   S    
C36   H16   S    
C53   H33   S    
O14   C50   A    
C58   H47   S    
C15   C17   A    
O18   V4    S    
C14   C16   A    
C19   C27   A    
C9    C31   A    
H19   C37   S    
C49   O18   A    
C10   C32   A    
C54   H37   S    
C33   C41   S    
C42   C51   S    
C24   C26   A    
C24   O22   S    
C36   C44   S    
O12   C52   A    
O6    V2    S    
C2    C43   S    
C40   H26   S    
C26   O24   S    
C39   C41   S    
C45   F1    S    
C6    C30   A    
C43   C45   S    
C37   C45   S    
C47   H27   S    
C46   F2    S    
O19   V4    S    
O12   V3    S    
C37   C41   S    
O16   V4    S    
C36   H18   S    
O4    C2    A    
C48   H30   S    
C60   H52   S    
C47   H29   S    
C27   H5    S    
C5    C21   A    
O5    V1    S    
C44   C48   S    
C5    H3    S    
H1    C29   S    
C34   H14   S    
H20   C38   S    
C55   C56   S    
C16   C18   A    
O4    V2    S    
C57   H44   S    
H21   C45   S    
C25   O23   S    
C6    C22   A    
O6    C4    A    
O13   C49   A    
C39   H25   S    
O1    V2    S    
C10   F4    S    
C40   C48   S    
O2    V1    S    
C53   C54   S    
C39   C47   S    
C56   H40   S    
C38   C46   S    
O13   V3    S    
C55   H39   S    
C44   C46   S    
C33   H11   S    
C41   C52   S    
C17   C31   A    
C34   C36   S    
C20   C28   A    
C57   C58   S    
C18   C32   A    
O3    V1    S    
C54   H35   S    
C13   H7    S    
C28   H6    S    
C14   H8    S    
C12   H10   S    
C6    H4    S    
O3    C1    A    
C59   C60   S    
C11   H9    S    
C59   H49   S    
C9    C11   A    
C50   O17   A    
O15   V3    S    
O24   C59   S    
C10   C12   A    
C8    C30   A    
C20   C22   A    
C57   H43   S    
C9    F3    S    
C17   C25   A    
C1    O8    A    
C13   C15   A    
C35   C43   S    
C60   H50   S    
C22   C24   A    
C1    C44   S    
C58   H45   S    
O20   V4    S    
C8    C28   A    
C33   C35   S    
C12   C14   A    
C34   H12   S    
C15   C19   A    
O7    V1    S    
C53   H34   S    
C56   H41   S    
C59   H48   S    
C35   H17   S    
C23   O21   S    
C37   H31   S    
C21   C23   A    
C40   H24   S    
O9    V2    S    
C58   H46   S    
C39   H23   S    
O10   V1    S    
O14   V4    S    
O8    V2    S    
O1    C3    A    
O21   C53   S    
C43   C47   S    
C54   H36   S    
