data_mof_unit_49590.cif
_audit_creation_date              2013-03-05T16:03:52-0500
_audit_creation_method            fapswitch 2.2
_symmetry_space_group_name_H-M    P1
_symmetry_Int_Tables_number       1
_space_group_crystal_system       triclinic
_cell_length_a                    6.938157
_cell_length_b                    18.051674
_cell_length_c                    19.216902
_cell_angle_alpha                 108.875614
_cell_angle_beta                  90.467782
_cell_angle_gamma                 90.704507
_cell_volume                      2277.03626594

loop_
_atom_site_label
_atom_site_type_symbol
_atom_site_description
_atom_site_fract_x
_atom_site_fract_y
_atom_site_fract_z
_atom_type_partial_charge
O1    O     O_R   0.505700 0.440210 0.561730 -0.606134
O2    O     O_R   0.169350 0.406300 0.412660 -0.596271
O3    O     O_R   0.005650 0.559790 0.438270 -0.562473
C1    C     C_R   0.338066 0.382842 0.384979 0.979644
O4    O     O_R   0.175560 0.430650 0.559600 -0.590668
O5    O     O_R   0.011900 0.584320 0.586250 -0.595622
C2    C     C_R   0.344759 0.415491 0.581244 0.943645
O6    O     O_R   0.499450 0.415680 0.413750 -0.593115
O7    O     O_3   0.341370 0.550390 0.508570 -0.242743
V1    V     V_3+5 0.063940 0.490650 0.498410 1.221331
O8    O     O_R   0.682570 0.593700 0.587340 -0.594098
C3    C     C_R   0.853298 0.615221 0.615858 0.922346
O9    O     O_R   0.676370 0.569350 0.440400 -0.559934
C4    C     C_R   0.846416 0.583679 0.418225 0.946287
V2    V     V_3+5 0.564750 0.509350 0.501590 1.226402
O10   O     O_3   0.837190 0.449610 0.491430 -0.275983
C5    C     C_R   0.985720 0.655614 0.259190 -0.092019
H1    H     H_    0.075083 0.636631 0.211103 0.196322
C6    C     C_R   0.998318 0.616088 0.310762 0.321440
C7    C     C_R   0.861518 0.631834 0.368378 -0.304392
C8    C     C_R   0.734093 0.694143 0.376889 -0.109968
H2    H     H_    0.630660 0.708744 0.421020 0.158962
C9    C     C_R   0.746421 0.741223 0.331473 -0.047911
H3    H     H_    0.656904 0.792370 0.343496 0.155482
C10   C     C_R   0.874208 0.722714 0.271951 0.076739
C11   C     C_R   0.731311 0.806688 0.203969 -0.082694
H4    H     H_    0.595095 0.801558 0.227624 0.211604
C12   C     C_R   0.740058 0.846422 0.152826 -0.122753
H5    H     H_    0.607583 0.865252 0.134798 0.169783
C13   C     C_R   0.916721 0.861699 0.125346 -0.185103
C14   C     C_R   0.082910 0.828753 0.144438 -0.233669
H6    H     H_    0.221380 0.837720 0.122575 0.171528
C15   C     C_R   0.073752 0.784922 0.192924 0.393404
C16   C     C_R   0.894927 0.773049 0.223529 -0.053401
H7    H     H_    0.912300 0.647001 0.946857 0.183909
C17   C     C_R   0.868321 0.902268 0.733208 0.298044
C18   C     C_R   0.888092 0.909963 0.663462 -0.142197
C19   C     C_R   0.910659 0.844714 0.601862 -0.143874
C20   C     C_R   0.904124 0.770476 0.608547 -0.159596
C21   C     C_R   0.887773 0.760258 0.678225 0.104945
C22   C     C_R   0.885417 0.827466 0.742769 -0.040734
C23   C     C_R   0.871466 0.684231 0.683763 -0.237451
C24   C     C_R   0.878031 0.674268 0.753908 0.076351
C25   C     C_R   0.896270 0.740680 0.818560 0.139140
C26   C     C_R   0.899505 0.817524 0.813619 -0.272620
C27   C     C_R   0.870735 0.598572 0.760817 -0.320113
C28   C     C_R   0.883738 0.587807 0.829822 0.410848
C29   C     C_R   0.902498 0.653512 0.892880 -0.192811
C30   C     C_R   0.908049 0.728570 0.887539 -0.216513
H8    H     H_    0.872162 0.966585 0.656277 0.188636
H9    H     H_    0.922270 0.851410 0.548049 0.161154
H10   H     H_    0.912620 0.721245 0.558394 0.105688
H11   H     H_    0.857033 0.547202 0.712489 0.149416
H12   H     H_    0.921427 0.776922 0.938375 0.112191
H13   H     H_    0.944175 0.413099 0.180469 0.153509
C31   C     C_R   0.573615 0.248453 0.382273 -0.291997
C32   C     C_R   0.677968 0.183220 0.384351 0.379012
C33   C     C_R   0.658166 0.113754 0.325489 -0.236545
C34   C     C_R   0.549734 0.111306 0.263395 0.112979
C35   C     C_R   0.482049 0.181181 0.254063 0.061804
C36   C     C_R   0.472287 0.248765 0.317883 0.067502
C37   C     C_R   0.413625 0.184251 0.185074 -0.270290
C38   C     C_R   0.300872 0.249057 0.183932 0.108519
C39   C     C_R   0.258117 0.309673 0.250676 0.093085
C40   C     C_R   0.352601 0.312339 0.317414 -0.274066
C41   C     C_R   0.225810 0.254172 0.116884 -0.134596
C42   C     C_R   0.100873 0.313422 0.115964 -0.049066
C43   C     C_R   0.045228 0.368181 0.181395 -0.029725
C44   C     C_R   0.125124 0.367478 0.247928 -0.119467
H14   H     H_    0.570100 0.297539 0.432294 0.178753
H15   H     H_    0.713631 0.059769 0.330243 0.197575
H16   H     H_    0.262391 0.212615 0.064262 0.118197
H17   H     H_    0.046356 0.316553 0.064150 0.174833
H18   H     H_    0.081377 0.413328 0.296501 0.145435
C45   C     C_R   0.545400 0.294723 0.694875 0.006219
H19   H     H_    0.684903 0.275253 0.707071 0.137389
C46   C     C_R   0.534462 0.340454 0.648305 -0.067309
H20   H     H_    0.666734 0.355598 0.626276 0.167680
C47   C     C_R   0.355526 0.366277 0.630486 -0.197844
C48   C     C_R   0.188020 0.345639 0.661321 -0.071301
H21   H     H_    0.047943 0.364688 0.649314 0.161297
C49   C     C_R   0.199500 0.301042 0.708971 -0.000762
H22   H     H_    0.068663 0.287182 0.732877 0.158222
C50   C     C_R   0.378138 0.274541 0.725786 0.133082
C51   C     C_R   0.300203 0.152765 0.758253 0.215712
C52   C     C_R   0.313072 0.108399 0.805914 -0.093069
H23   H     H_    0.245409 0.050875 0.789990 0.179104
C53   C     C_R   0.417010 0.135936 0.872406 -0.246322
C54   C     C_R   0.510182 0.209848 0.891205 0.084796
C55   C     C_R   0.497941 0.255265 0.843481 0.313354
C56   C     C_R   0.390658 0.227200 0.776730 -0.183328
O11   O     O_R   0.273230 0.084330 0.086440 -0.590427
O12   O     O_R   0.596660 0.069390 0.940470 -0.527754
O13   O     O_R   0.760270 0.915710 0.913690 -0.556258
C57   C     C_R   0.427255 0.086199 0.920737 1.065811
O14   O     O_R   0.603330 0.093680 0.087390 -0.584641
O15   O     O_R   0.766990 0.940160 0.061660 -0.599759
C58   C     C_R   0.434061 0.116510 0.115572 0.972594
O16   O     O_R   0.266510 0.059870 0.938470 -0.601501
O17   O     O_3   0.431050 0.949630 0.991510 -0.270837
V3    V     V_3+5 0.708490 0.009340 0.001580 1.263851
O18   O     O_R   0.096270 0.930570 0.059390 -0.589835
C59   C     C_R   0.927144 0.913405 0.078924 0.968995
O19   O     O_R   0.089600 0.906290 0.912460 -0.597257
C60   C     C_R   0.918963 0.886155 0.882583 0.980241
V4    V     V_3+5 0.207670 0.990600 0.998190 1.226261
O20   O     O_3   0.935250 0.050360 0.008480 -0.259049
N1    N     N_R   0.786230 0.966499 0.788598 0.217206
O21   O     O_R   0.869459 0.035195 0.807009 -0.417143
O22   O     O_R   0.603841 0.961530 0.801656 -0.430460
N2    N     N_R   0.879072 0.510355 0.835850 0.260423
O23   O     O_R   0.904552 0.500293 0.899353 -0.296495
O24   O     O_R   0.850570 0.449152 0.777953 -0.417191
N3    N     N_R   0.789740 0.185628 0.448598 0.246115
O25   O     O_R   0.876691 0.123425 0.452178 -0.358377
O26   O     O_R   0.814371 0.251001 0.502427 -0.427903
N4    N     N_R   0.160127 0.565712 0.305900 0.215659
O27   O     O_R   0.281862 0.581984 0.360797 -0.366699
O28   O     O_R   0.223357 0.525872 0.241229 -0.410483
I1    I     I_    0.411828 0.002095 0.211835 -0.403197
I2    I     I_    0.154744 0.100544 0.656080 -0.313333
I3    I     I_    0.650595 0.257788 0.995634 -0.319816
N5    N     N_R   0.593073 0.330315 0.863387 0.257179
O29   O     O_R   0.779068 0.335638 0.873368 -0.309660
O30   O     O_R   0.496333 0.392672 0.866808 -0.312626
N6    N     N_R   0.248715 0.754828 0.211723 0.198494
O31   O     O_R   0.296472 0.768291 0.280417 -0.435454
O32   O     O_R   0.350317 0.707271 0.160064 -0.409422

loop_
_geom_bond_atom_site_label_1
_geom_bond_atom_site_label_2
_geom_bond_distance
_ccdc_geom_bond_type
C25   C30   1.413417 A    
V3    O20   1.716266 S    
O13   C60   1.293487 A    
C34   I1    2.111413 S    
C17   N1    1.424564 S    
C55   N5    1.433871 S    
N2    O23   1.301579 A    
C1    O6    1.293181 A    
O19   V4    2.006608 S    
N3    O25   1.302094 A    
C51   C56   1.411504 A    
O11   C58   1.288201 A    
N5    O29   1.300883 A    
C46   H20   1.082230 S    
N1    O21   1.300609 A    
C12   H5    1.076586 S    
C11   H4    1.067943 S    
C18   C19   1.385125 A    
C17   C18   1.399113 A    
N4    O28   1.300973 A    
O5    C3    1.290644 A    
C13   C14   1.403200 A    
C57   O16   1.297624 A    
C33   H15   1.082768 S    
N5    O30   1.301270 A    
V4    O20   2.166452 S    
C30   H12   1.081504 S    
C31   C32   1.401200 A    
C35   C37   1.422659 A    
C1    C40   1.500622 S    
C15   N6    1.426628 S    
C3    C23   1.487352 S    
C37   C58   1.499981 S    
O8    V2    2.006504 S    
C11   C16   1.398704 A    
C41   H16   1.080659 S    
C6    C7    1.423983 A    
O13   V3    2.004045 S    
C43   C44   1.393287 A    
O14   C58   1.311585 A    
C13   C59   1.486742 S    
C9    H3    1.081675 S    
C14   C15   1.405340 A    
C51   I2    2.123427 S    
C42   H17   1.080966 S    
C50   C56   1.495999 S    
C11   C12   1.392878 A    
O7    V1    2.170881 S    
C10   C16   1.502713 S    
C21   C23   1.413700 A    
C41   C42   1.389414 A    
C53   C57   1.487895 S    
C34   C35   1.415367 A    
O12   C57   1.301260 A    
O9    C4    1.308612 A    
C17   C22   1.426617 A    
H7    C29   1.082742 S    
O19   C60   1.306400 A    
C26   C60   1.496684 S    
C15   C16   1.420617 A    
C46   C47   1.409410 A    
C42   C43   1.385748 A    
C4    C7    1.490750 S    
O14   V3    1.998009 S    
C48   C49   1.403669 A    
O12   V3    1.996404 S    
C20   C21   1.414744 A    
O4    C2    1.303673 A    
H13   C43   1.082807 S    
C52   H23   1.082760 S    
C19   H9    1.082815 S    
C33   C34   1.393628 A    
C51   C52   1.401172 A    
C38   C39   1.427070 A    
C35   C36   1.425613 A    
O2    C1    1.307344 A    
C45   H19   1.083165 S    
C37   C38   1.421226 A    
C28   C29   1.398506 A    
C5    H1    1.079558 S    
C44   H18   1.076740 S    
N2    O24   1.301271 A    
C39   C44   1.414785 A    
C53   C54   1.411273 A    
C45   C46   1.402357 A    
O15   C59   1.299565 A    
O3    C4    1.291189 A    
O1    V2    1.997422 S    
O11   V4    2.014359 S    
C29   C30   1.391599 A    
O6    V2    2.008901 S    
C31   H14   1.076818 S    
O9    V2    1.993452 S    
C24   C25   1.423674 A    
C23   C24   1.416861 A    
C55   C56   1.418036 A    
O2    V1    1.998091 S    
C25   C26   1.420640 A    
C2    C47   1.494870 S    
O16   V4    1.992719 S    
C27   C28   1.403427 A    
C21   C22   1.427501 A    
N6    O32   1.301641 A    
O1    C2    1.299799 A    
O17   V4    1.713325 S    
C14   H6    1.082815 S    
C48   H21   1.082556 S    
O5    V1    2.004263 S    
N3    O26   1.301618 A    
O8    C3    1.301815 A    
C32   N3    1.440970 S    
C49   C50   1.406233 A    
C5    C10   1.399945 A    
C39   C40   1.422103 A    
C8    C9    1.403793 A    
O7    V2    1.713531 S    
O4    V1    1.996340 S    
O3    V1    1.998755 S    
V1    O10   1.716239 S    
N4    O27   1.300547 A    
C18   H8    1.081597 S    
C32   C33   1.395093 A    
C19   C20   1.387259 A    
N6    O31   1.301835 A    
C28   N2    1.439786 S    
C27   H11   1.081949 S    
C12   C13   1.397780 A    
O17   V3    2.170830 S    
C5    C6    1.398789 A    
N1    O22   1.299739 A    
C20   H10   1.081751 S    
C52   C53   1.401788 A    
C9    C10   1.408055 A    
O18   C59   1.298981 A    
C45   C50   1.404700 A    
C24   C27   1.415315 A    
C38   C41   1.416695 A    
C47   C48   1.408560 A    
C36   C40   1.427123 A    
C7    C8    1.407587 A    
C6    N4    1.438018 S    
C49   H22   1.083177 S    
C54   I3    2.132807 S    
O18   V4    1.993406 S    
C22   C26   1.432435 A    
C31   C36   1.419788 A    
C54   C55   1.416820 A    
C8    H2    1.083346 S    
O15   V3    1.998745 S    
V2    O10   2.166560 S    
