data_mof_unit_17984.cif
_audit_creation_date              2012-12-10T16:38:06-0500
_audit_creation_method            fapswitch 2.2
_symmetry_space_group_name_H-M    P1
_symmetry_Int_Tables_number       1
_space_group_crystal_system       triclinic
_cell_length_a                    28.116905
_cell_length_b                    18.560588
_cell_length_c                    16.954299
_cell_angle_alpha                 89.864751
_cell_angle_beta                  60.829818
_cell_angle_gamma                 90.2025
_cell_volume                      7725.6199126

loop_
_atom_site_label
_atom_site_type_symbol
_atom_type_description
_atom_site_fract_x
_atom_site_fract_y
_atom_site_fract_z
_atom_type_partial_charge
C1    C     C_R   0.701030 0.266419 0.677042 0.909958
C2    C     C_R   0.097157 0.502760 0.509407 0.070443
C3    C     C_R   0.190973 0.212775 0.908327 0.067311
C4    C     C_R   0.616054 0.327010 0.049005 -0.202189
C5    C     C_R   0.383948 0.672993 0.950987 -0.202629
C6    C     C_R   0.388313 0.316347 0.949882 -0.208731
C7    C     C_R   0.611692 0.683651 0.050110 -0.209124
C8    C     C_R   0.116054 0.827010 0.049005 -0.202189
C9    C     C_R   0.883948 0.172993 0.950987 -0.202629
C10   C     C_R   0.888313 0.816347 0.949882 -0.208731
C11   C     C_R   0.111692 0.183651 0.050110 -0.209123
C12   C     C_R   0.644971 0.312419 0.094645 0.360751
C13   C     C_R   0.403032 0.997264 0.490374 0.070413
C14   C     C_R   0.355033 0.687595 0.905346 0.360578
C15   C     C_R   0.360096 0.300829 0.903180 0.354009
C16   C     C_R   0.639908 0.699175 0.096813 0.354475
C17   C     C_R   0.144971 0.812419 0.094645 0.360751
C18   C     C_R   0.855033 0.187595 0.905346 0.360578
C19   C     C_R   0.860096 0.800829 0.903180 0.354009
C20   C     C_R   0.139908 0.199175 0.096813 0.354475
C21   C     C_R   0.744418 0.196075 0.793280 -0.203642
C22   C     C_R   0.255582 0.803921 0.206717 -0.200015
C23   C     C_R   0.226126 0.280523 0.233895 -0.163273
C24   C     C_R   0.597157 0.002760 0.509407 0.070443
C25   C     C_R   0.773878 0.719483 0.766096 -0.165795
C26   C     C_R   0.244418 0.696074 0.793280 -0.203642
C27   C     C_R   0.755582 0.303922 0.206717 -0.200015
C28   C     C_R   0.726126 0.780523 0.233895 -0.163274
C29   C     C_R   0.273878 0.219483 0.766096 -0.165795
C30   C     C_R   0.774712 0.182133 0.836599 -0.140674
C31   C     C_R   0.225291 0.817868 0.163394 -0.139501
C32   C     C_R   0.196868 0.267136 0.188820 -0.135965
C33   C     C_R   0.803136 0.732873 0.811171 -0.136265
C34   C     C_R   0.274712 0.682133 0.836600 -0.140674
C35   C     C_R   0.075444 0.385152 0.581742 -0.211428
C36   C     C_R   0.725291 0.317869 0.163394 -0.139502
C37   C     C_R   0.696868 0.767136 0.188820 -0.135965
C38   C     C_R   0.303136 0.232873 0.811171 -0.136265
C39   C     C_R   0.070135 0.104645 0.938165 0.896794
C40   C     C_R   0.929868 0.895351 0.061832 0.898265
C41   C     C_R   0.927161 0.101708 0.064287 0.902733
C42   C     C_R   0.072840 0.898294 0.935710 0.901274
C43   C     C_R   0.570135 0.604645 0.938165 0.896794
C44   C     C_R   0.429868 0.395351 0.061832 0.898265
C45   C     C_R   0.427161 0.601708 0.064287 0.902733
C46   C     C_R   0.924632 0.614985 0.418331 -0.204025
C47   C     C_R   0.572840 0.398294 0.935710 0.901274
C48   C     C_R   0.569846 0.120330 0.433814 0.071957
C49   C     C_R   0.430376 0.879660 0.565862 0.071631
C50   C     C_R   0.473704 0.116200 0.421022 0.085381
C51   C     C_R   0.526422 0.883888 0.578912 0.086975
C52   C     C_R   0.069846 0.620330 0.433814 0.071957
C53   C     C_R   0.930376 0.379660 0.565862 0.071631
C54   C     C_R   0.973704 0.616200 0.421022 0.085381
C55   C     C_R   0.026422 0.383889 0.578912 0.086975
C56   C     C_R   0.557011 0.177412 0.393243 -0.145543
C57   C     C_R   0.882970 0.377760 0.558610 -0.173628
C58   C     C_R   0.443180 0.822607 0.606513 -0.145694
C59   C     C_R   0.509424 0.175257 0.386472 -0.156131
C60   C     C_R   0.490713 0.824822 0.613436 -0.156924
C61   C     C_R   0.057011 0.677412 0.393243 -0.145543
C62   C     C_R   0.943180 0.322607 0.606513 -0.145694
C63   C     C_R   0.009424 0.675257 0.386472 -0.156131
C64   C     C_R   0.990713 0.324822 0.613436 -0.156924
C65   C     C_R   0.486676 0.058393 0.461130 0.029408
C66   C     C_R   0.513493 0.941655 0.538692 0.029615
C67   C     C_R   0.534803 0.060308 0.467300 0.028277
C68   C     C_R   0.117297 0.622178 0.440942 -0.180723
C69   C     C_R   0.465394 0.939711 0.532446 0.028055
C70   C     C_R   0.986676 0.558393 0.461130 0.029408
C71   C     C_R   0.013493 0.441654 0.538692 0.029615
C72   C     C_R   0.034804 0.560308 0.467300 0.028277
C73   C     C_R   0.965394 0.439711 0.532446 0.028055
C74   C     C_R   0.951910 0.498268 0.494062 -0.023753
C75   C     C_R   0.048278 0.501762 0.505714 -0.027173
C76   C     C_R   0.451910 0.998268 0.494062 -0.023753
C77   C     C_R   0.548278 0.001763 0.505714 -0.027174
C78   C     C_R   0.869824 0.435497 0.518381 0.004663
C79   C     C_R   0.575444 0.885152 0.581742 -0.211428
C80   C     C_R   0.130433 0.564455 0.481207 0.015294
C81   C     C_R   0.113353 0.442031 0.540757 0.004495
C82   C     C_R   0.886751 0.558060 0.459246 -0.005782
C83   C     C_R   0.369824 0.935497 0.518381 0.004663
C84   C     C_R   0.630433 0.064455 0.481207 0.015294
C85   C     C_R   0.613353 0.942031 0.540757 0.004495
C86   C     C_R   0.386751 0.058060 0.459246 -0.005783
C87   C     C_R   0.822592 0.435697 0.509269 -0.237688
C88   C     C_R   0.177663 0.564280 0.490334 -0.211527
C89   C     C_R   0.168604 0.439068 0.522783 -0.243163
C90   C     C_R   0.424632 0.114985 0.418331 -0.204025
C91   C     C_R   0.831465 0.560973 0.477330 -0.261430
C92   C     C_R   0.322592 0.935696 0.509269 -0.237688
C93   C     C_R   0.677663 0.064280 0.490333 -0.211526
C94   C     C_R   0.668604 0.939068 0.522783 -0.243164
C95   C     C_R   0.331465 0.060973 0.477330 -0.261429
C96   C     C_R   0.797739 0.500182 0.513850 0.371766
C97   C     C_R   0.202437 0.499773 0.486222 0.260827
C98   C     C_R   0.297739 0.000182 0.513850 0.371766
C99   C     C_R   0.702437 0.999773 0.486222 0.260822
C100  C     C_R   0.382970 0.877760 0.558610 -0.173628
C101  C     C_R   0.298969 0.733580 0.322956 0.908968
C102  C     C_R   0.617297 0.122178 0.440942 -0.180723
C103  C     C_R   0.717923 0.262004 0.957469 -0.028923
C104  C     C_R   0.282077 0.737997 0.042527 -0.028944
C105  C     C_R   0.279672 0.268848 0.045076 -0.025365
C106  C     C_R   0.720333 0.731152 0.954916 -0.025535
C107  C     C_R   0.217923 0.762003 0.957469 -0.028923
C108  C     C_R   0.782077 0.237997 0.042527 -0.028944
C109  C     C_R   0.779672 0.768849 0.045076 -0.025365
C110  C     C_R   0.220333 0.231152 0.954916 -0.025535
C111  C     C_R   0.766179 0.220799 0.913626 0.092988
C112  C     C_R   0.295382 0.274894 0.325435 0.924234
C113  C     C_R   0.233823 0.779203 0.086369 0.091401
C114  C     C_R   0.223109 0.252169 0.095599 0.087171
C115  C     C_R   0.776895 0.747835 0.904393 0.086949
C116  C     C_R   0.266179 0.720799 0.913626 0.092989
C117  C     C_R   0.733823 0.279203 0.086369 0.091401
C118  C     C_R   0.723109 0.752170 0.095599 0.087171
C119  C     C_R   0.276895 0.247835 0.904393 0.086949
C120  C     C_R   0.800627 0.213126 0.953191 -0.043237
C121  C     C_R   0.199375 0.786879 0.046803 -0.043718
C122  C     C_R   0.193807 0.228681 0.050844 -0.047972
C123  C     C_R   0.704605 0.725138 0.674576 0.923934
C124  C     C_R   0.806197 0.771322 0.949148 -0.047507
C125  C     C_R   0.300627 0.713126 0.953191 -0.043237
C126  C     C_R   0.699375 0.286879 0.046803 -0.043718
C127  C     C_R   0.693808 0.728681 0.050844 -0.047972
C128  C     C_R   0.306197 0.271322 0.949148 -0.047507
C129  C     C_R   0.639003 0.316983 0.955167 -0.001853
C130  C     C_R   0.360998 0.683016 0.044827 -0.000582
C131  C     C_R   0.363134 0.312566 0.044354 0.005867
C132  C     C_R   0.636872 0.687427 0.955638 0.005026
C133  C     C_R   0.139003 0.816983 0.955167 -0.001853
C134  C     C_R   0.201030 0.766419 0.677042 0.909959
C135  C     C_R   0.860998 0.183016 0.044827 -0.000582
C136  C     C_R   0.863134 0.812566 0.044354 0.005867
C137  C     C_R   0.136872 0.187427 0.955638 0.005026
C138  C     C_R   0.614000 0.341801 0.903870 -0.120151
C139  C     C_R   0.386002 0.658200 0.096125 -0.122229
C140  C     C_R   0.388670 0.338231 0.094486 -0.128820
C141  C     C_R   0.611337 0.661757 0.905507 -0.125285
C142  C     C_R   0.113999 0.841801 0.903870 -0.120150
C143  C     C_R   0.886002 0.158200 0.096125 -0.122228
C144  C     C_R   0.888670 0.838231 0.094486 -0.128820
C145  C     C_R   0.798969 0.233580 0.322956 0.908968
C146  C     C_R   0.111337 0.161757 0.905507 -0.125285
C147  C     C_R   0.633234 0.319638 0.816133 -0.238856
C148  C     C_R   0.366769 0.680367 0.183861 -0.236357
C149  C     C_R   0.367601 0.319455 0.183722 -0.247149
C150  C     C_R   0.632407 0.680525 0.816268 -0.253345
C151  C     C_R   0.133234 0.819638 0.816133 -0.238857
C152  C     C_R   0.866768 0.180367 0.183861 -0.236357
C153  C     C_R   0.867601 0.819455 0.183722 -0.247149
C154  C     C_R   0.132407 0.180525 0.816268 -0.253345
C155  C     C_R   0.677897 0.275334 0.774972 -0.117971
C156  C     C_R   0.795381 0.774894 0.325435 0.924234
C157  C     C_R   0.322102 0.724664 0.225026 -0.119315
C158  C     C_R   0.315390 0.292789 0.230793 -0.083004
C159  C     C_R   0.684614 0.707204 0.769201 -0.079391
C160  C     C_R   0.177897 0.775334 0.774972 -0.117971
C161  C     C_R   0.822102 0.224664 0.225026 -0.119314
C162  C     C_R   0.815390 0.792789 0.230793 -0.083004
C163  C     C_R   0.184614 0.207204 0.769201 -0.079390
C164  C     C_R   0.704041 0.249884 0.824723 0.080590
C165  C     C_R   0.295957 0.750111 0.175275 0.078362
C166  C     C_R   0.283252 0.284704 0.186766 0.073670
C167  C     C_R   0.204605 0.225138 0.674576 0.923934
C168  C     C_R   0.716752 0.715294 0.813227 0.072364
C169  C     C_R   0.204041 0.749884 0.824723 0.080590
C170  C     C_R   0.795957 0.250111 0.175275 0.078362
C171  C     C_R   0.783252 0.784704 0.186766 0.073670
C172  C     C_R   0.216752 0.215294 0.813227 0.072364
C173  C     C_R   0.700661 0.129184 0.505740 0.943468
C174  C     C_R   0.299500 0.870853 0.493899 0.955030
C175  C     C_R   0.306171 0.127945 0.473321 0.931461
C176  C     C_R   0.693832 0.872050 0.526735 0.920739
C177  C     C_R   0.200661 0.629184 0.505740 0.943469
C178  C     C_R   0.903032 0.497264 0.490374 0.070413
C179  C     C_R   0.799500 0.370853 0.493899 0.955030
C180  C     C_R   0.806171 0.627945 0.473321 0.931461
C181  C     C_R   0.193832 0.372050 0.526735 0.920740
C182  C     C_R   0.687230 0.276763 0.912193 0.075665
C183  C     C_R   0.312770 0.723234 0.087803 0.075888
C184  C     C_R   0.309033 0.287220 0.091665 0.067539
C185  C     C_R   0.690973 0.712776 0.908327 0.067311
C186  C     C_R   0.187230 0.776763 0.912193 0.075666
C187  C     C_R   0.812770 0.223234 0.087803 0.075887
C188  C     C_R   0.809033 0.787220 0.091665 0.067539
Cl1   Cl    Cl    0.605796 0.314000 0.213630 -0.690740
Cl2   Cl    Cl    0.394210 0.686052 0.786358 -0.695726
Cl3   Cl    Cl    0.391646 0.336263 0.792098 -0.624648
Cl4   Cl    Cl    0.608356 0.663748 0.207899 -0.618996
Cl5   Cl    Cl    0.105796 0.814000 0.213630 -0.690740
Cl6   Cl    Cl    0.894210 0.186052 0.786358 -0.695726
Cl7   Cl    Cl    0.891646 0.836263 0.792098 -0.624648
Cl8   Cl    Cl    0.108356 0.163748 0.207899 -0.618996
H1    H     H_    0.999981 0.279836 0.644425 0.183375
H2    H     H_    0.916468 0.658917 0.384721 0.165739
H3    H     H_    0.855124 0.332956 0.589307 0.176740
H4    H     H_    0.145164 0.666960 0.410211 0.176280
H5    H     H_    0.583568 0.841273 0.615475 0.164812
H6    H     H_    0.416468 0.158916 0.384721 0.165739
H7    H     H_    0.355124 0.832956 0.589307 0.176740
H8    H     H_    0.645164 0.166960 0.410211 0.176280
H9    H     H_    0.614532 0.340076 0.777780 0.205513
H10   H     H_    0.385476 0.659939 0.222209 0.209774
H11   H     H_    0.390125 0.331984 0.218861 0.198047
H12   H     H_    0.000129 0.720274 0.355563 0.185467
H13   H     H_    0.609884 0.667992 0.781128 0.191804
H14   H     H_    0.114532 0.840076 0.777780 0.205513
H15   H     H_    0.885477 0.159939 0.222209 0.209774
H16   H     H_    0.890125 0.831984 0.218861 0.198047
H17   H     H_    0.109884 0.167992 0.781128 0.191804
H18   H     H_    0.573794 0.341378 0.090095 0.201054
H19   H     H_    0.426208 0.658624 0.909898 0.200269
H20   H     H_    0.430387 0.333031 0.910422 0.194413
H21   H     H_    0.569618 0.666968 0.089571 0.194875
H22   H     H_    0.073794 0.841378 0.090095 0.201054
H23   H     H_    0.916574 0.276062 0.632220 0.201923
H24   H     H_    0.926208 0.158624 0.909898 0.200269
H25   H     H_    0.930387 0.833031 0.910422 0.194413
H26   H     H_    0.069618 0.166967 0.089571 0.194875
H27   H     H_    0.751742 0.161134 0.737790 0.181192
H28   H     H_    0.248258 0.838862 0.262206 0.187966
H29   H     H_    0.202931 0.292437 0.305150 0.183111
H30   H     H_    0.797074 0.707572 0.694840 0.183470
H31   H     H_    0.251742 0.661134 0.737790 0.181192
H32   H     H_    0.748258 0.338862 0.262206 0.187966
H33   H     H_    0.702931 0.792437 0.305150 0.183111
H34   H     H_    0.083629 0.723942 0.367505 0.202043
H35   H     H_    0.297074 0.207572 0.694840 0.183470
H36   H     H_    0.802845 0.137723 0.811562 0.206900
H37   H     H_    0.197164 0.862285 0.188426 0.208760
H38   H     H_    0.153351 0.272998 0.227798 0.200234
H39   H     H_    0.846653 0.727016 0.772191 0.200750
H40   H     H_    0.302845 0.637723 0.811562 0.206900
H41   H     H_    0.697164 0.362285 0.188426 0.208760
H42   H     H_    0.653351 0.772998 0.227798 0.200234
H43   H     H_    0.346653 0.227016 0.772191 0.200750
H44   H     H_    0.653401 0.518179 0.578492 0.371268
H45   H     H_    0.499981 0.779836 0.644425 0.183375
H46   H     H_    0.286663 0.505683 0.525264 0.340738
H47   H     H_    0.153401 0.018179 0.578492 0.371267
H48   H     H_    0.786660 0.005681 0.525267 0.340734
H49   H     H_    0.500129 0.220274 0.355563 0.185467
H50   H     H_    0.416574 0.776062 0.632220 0.201923
H51   H     H_    0.583629 0.223942 0.367506 0.202043
H52   H     H_    0.083568 0.341273 0.615475 0.164812
O1    O     O_R   0.746490 0.236330 0.638080 -0.664902
O2    O     O_R   0.325830 0.813840 0.483730 -0.654061
O3    O     O_R   0.325830 0.186160 0.483730 -0.654447
O4    O     O_R   0.674170 0.813840 0.516270 -0.651354
O5    O     O_R   0.174170 0.686160 0.516270 -0.649645
O6    O     O_R   0.825830 0.313840 0.483730 -0.654061
O7    O     O_R   0.825830 0.686160 0.483730 -0.654447
O8    O     O_R   0.174170 0.313840 0.516270 -0.651354
O9    O     O_R   0.739960 0.127620 0.525000 -0.615690
O10   O     O_R   0.260040 0.872380 0.475000 -0.566832
O11   O     O_R   0.260040 0.127620 0.475000 -0.542965
O12   O     O_R   0.253510 0.763670 0.361920 -0.663432
O13   O     O_R   0.739960 0.872380 0.525000 -0.564865
O14   O     O_R   0.239960 0.627620 0.525000 -0.615693
O15   O     O_R   0.760040 0.372380 0.475000 -0.566832
O16   O     O_R   0.760040 0.627620 0.475000 -0.542965
O17   O     O_R   0.239960 0.372380 0.525000 -0.564862
O18   O     O_R   0.680700 0.294870 0.629350 -0.584668
O19   O     O_R   0.319300 0.705130 0.370650 -0.580138
O20   O     O_R   0.319300 0.294870 0.370650 -0.585219
O21   O     O_R   0.680700 0.705130 0.629350 -0.601128
O22   O     O_R   0.180700 0.794870 0.629350 -0.584668
O23   O     O_R   0.253510 0.236330 0.361920 -0.651042
O24   O     O_R   0.819300 0.205130 0.370650 -0.580137
O25   O     O_R   0.819300 0.794870 0.370650 -0.585219
O26   O     O_R   0.180700 0.205130 0.629350 -0.601128
O27   O     O_R   0.062020 0.072840 0.007170 -0.609693
O28   O     O_R   0.937980 0.927160 0.992830 -0.610781
O29   O     O_R   0.937980 0.072840 0.992830 -0.623964
O30   O     O_R   0.062020 0.927160 0.007170 -0.622848
O31   O     O_R   0.562020 0.572840 0.007170 -0.609693
O32   O     O_R   0.437980 0.427160 0.992830 -0.610781
O33   O     O_R   0.437980 0.572840 0.992830 -0.623964
O34   O     O_R   0.746490 0.763670 0.638080 -0.652896
O35   O     O_R   0.562020 0.427160 0.007170 -0.622848
O36   O     O_R   0.947860 0.073950 0.109290 -0.601471
O37   O     O_R   0.052140 0.926050 0.890710 -0.608797
O38   O     O_R   0.052140 0.073950 0.890710 -0.604952
O39   O     O_R   0.947860 0.926050 0.109290 -0.595779
O40   O     O_R   0.447860 0.573950 0.109290 -0.601470
O41   O     O_R   0.552140 0.426050 0.890710 -0.608797
O42   O     O_R   0.552140 0.573950 0.890710 -0.604952
O43   O     O_R   0.447860 0.426050 0.109290 -0.595779
O44   O     O_2   0.706943 0.438970 0.649662 -0.318597
O45   O     O_R   0.246490 0.736330 0.638080 -0.664902
O46   O     O_2   0.714108 0.569211 0.649828 -0.330184
O47   O     O_3   0.691856 0.510466 0.532059 -0.524321
O48   O     O_2   0.284880 0.431466 0.348163 -0.293072
O49   O     O_2   0.293767 0.561138 0.351107 -0.294076
O50   O     O_3   0.309960 0.485395 0.464418 -0.491968
O51   O     O_2   0.206943 0.938970 0.649662 -0.318597
O52   O     O_2   0.214108 0.069211 0.649828 -0.330184
O53   O     O_3   0.191856 0.010466 0.532059 -0.524320
O54   O     O_2   0.784880 0.931466 0.348164 -0.293072
O55   O     O_2   0.793767 0.061138 0.351107 -0.294075
O56   O     O_R   0.753510 0.263670 0.361920 -0.663432
O57   O     O_3   0.809960 0.985395 0.464419 -0.491962
O58   O     O_R   0.753510 0.736330 0.361920 -0.651042
O59   O     O_R   0.246490 0.263670 0.638080 -0.652896
O60   O     O_R   0.674170 0.186160 0.516270 -0.649645
S1    S     S_3+6 0.726027 0.504729 0.590194 0.044592
S2    S     S_3+6 0.274188 0.494709 0.409229 0.068730
S3    S     S_3+6 0.226026 0.004729 0.590194 0.044592
S4    S     S_3+6 0.774188 0.994710 0.409230 0.068731
Zn1   Zn    Zn3+2 0.792340 0.208750 0.507670 1.016915
Zn2   Zn    Zn3+2 0.494040 0.500000 0.919480 1.028936
Zn3   Zn    Zn3+2 0.005960 0.000000 0.080520 1.050905
Zn4   Zn    Zn3+2 0.994040 0.000000 0.919480 1.028936
Zn5   Zn    Zn3+2 0.207660 0.791250 0.492330 1.035737
Zn6   Zn    Zn3+2 0.207660 0.208750 0.492330 1.043978
Zn7   Zn    Zn3+2 0.792340 0.791250 0.507670 1.058847
Zn8   Zn    Zn3+2 0.292340 0.708750 0.507670 1.016911
Zn9   Zn    Zn3+2 0.707660 0.291250 0.492330 1.035737
Zn10  Zn    Zn3+2 0.707660 0.708750 0.492330 1.043978
Zn11  Zn    Zn3+2 0.292340 0.291250 0.507670 1.058848
Zn12  Zn    Zn3+2 0.505960 0.500000 0.080520 1.050905

loop_
_geom_bond_atom_site_label_1
_geom_bond_atom_site_label_2
_ccdc_geom_bond_type
O41   Zn2   S    
C108  C120  A    
C88   C177  S    
C32   H38   S    
C60   H45   S    
C112  C158  S    
C50   C59   A    
C151  H14   S    
C41   C143  S    
C52   C61   A    
C180  O16   A    
C46   H2    S    
C12   C126  A    
C54   C63   A    
C40   O28   A    
C58   C60   A    
C43   O42   A    
C45   C139  S    
C61   C63   A    
C103  C126  A    
C95   C175  S    
C62   C64   A    
C131  C140  A    
C91   C96   A    
C179  O6    A    
C179  O15   A    
C50   C90   A    
C162  C171  A    
C79   H5    S    
O38   Zn4   S    
C170  C187  A    
C70   C74   A    
C4    C12   A    
C147  C155  A    
C24   C85   A    
C112  O20   A    
C88   C97   A    
C145  O56   A    
C96   S1    S    
O40   Zn12  S    
C119  C128  A    
C39   O38   A    
C49   C69   A    
C154  H17   S    
C23   H29   S    
C109  C118  A    
O20   Zn11  S    
C11   C20   A    
C4    H18   S    
C150  C159  A    
C165  C183  A    
C137  C146  A    
C166  C184  A    
C86   C90   A    
O4    Zn10  S    
C71   C73   A    
O22   Zn5   S    
C106  C127  A    
C82   C91   A    
C51   C66   A    
C89   C181  S    
O31   Zn12  S    
C173  O9    A    
C52   C72   A    
C131  C184  A    
C105  C114  A    
C54   C70   A    
C26   H31   S    
C82   C178  A    
C61   H34   S    
C163  C172  A    
C7    C132  A    
C38   C119  A    
C9    H24   S    
C5    C130  A    
C152  H15   S    
C63   H12   S    
C47   O41   A    
C79   C85   A    
C36   H41   S    
C66   C77   A    
C15   Cl3   S    
C21   H27   S    
C173  O60   A    
C57   C78   A    
C174  O2    A    
C176  O4    A    
O57   S4    S    
C8    C17   A    
C56   C59   A    
C106  C115  A    
C62   H23   S    
C110  C122  A    
C80   C88   A    
O50   S2    S    
C145  C161  S    
C93   C173  S    
C84   C93   A    
C105  C184  A    
O49   S2    D    
C86   C95   A    
C24   C77   A    
C104  C183  A    
C43   O31   A    
O32   Zn2   S    
C2    C81   A    
O5    Zn5   S    
C55   C71   A    
C2    C75   A    
C90   H6    S    
C78   C87   A    
C134  C160  S    
O16   Zn10  S    
C18   Cl6   S    
C84   C102  A    
C67   C77   A    
C133  C142  A    
C45   O40   A    
C123  C159  S    
C130  C183  A    
C100  H7    S    
C1    O1    A    
C3    C110  A    
C5    H19   S    
C69   C76   A    
C147  H9    S    
C85   C94   A    
O39   Zn3   S    
C46   C82   A    
C29   C38   A    
C167  O59   A    
O35   Zn12  S    
O56   Zn9   S    
C149  C158  A    
C20   C122  A    
C152  C161  A    
O24   Zn1   S    
C135  C143  A    
C97   S2    S    
C48   C67   A    
C136  C188  A    
C99   S4    S    
C72   C75   A    
C112  O23   A    
C135  C187  A    
C180  O7    A    
C141  C150  A    
C25   C168  A    
C139  C148  A    
C104  C125  A    
C8    H22   S    
O19   Zn8   S    
C157  C165  A    
C92   C174  S    
H44   O47   S    
C22   H28   S    
O12   Zn5   S    
C181  O8    A    
C175  O3    A    
C91   C180  S    
O58   Zn10  S    
C47   O35   A    
C9    C135  A    
C116  C125  A    
O33   Zn2   S    
C117  C126  A    
O36   Zn3   S    
C39   O27   A    
C132  C141  A    
C108  C117  A    
O6    Zn1   S    
C110  C119  A    
C174  O10   A    
C153  H16   S    
O10   Zn5   S    
O2    Zn8   S    
C83   C100  A    
C134  O22   A    
H46   O50   S    
H48   O57   S    
O3    Zn11  S    
C37   H42   S    
C44   O32   A    
O46   S1    D    
O43   Zn12  S    
C47   C138  S    
C148  C157  A    
C50   C65   A    
C51   C79   A    
C107  C116  A    
C41   O29   A    
C104  C113  A    
C14   Cl2   S    
C9    C18   A    
C6    H20   S    
C118  C127  A    
C98   S3    S    
C51   C60   A    
C140  C149  A    
C31   C113  A    
C25   C33   A    
C129  C182  A    
C44   O43   A    
C73   C74   A    
C41   O36   A    
C12   Cl1   S    
C31   H37   S    
C107  C186  A    
C35   H52   S    
C65   C76   A    
C171  C188  A    
C145  O24   A    
C169  C186  A    
C42   O30   A    
C3    C172  A    
O18   Zn9   S    
C103  C111  A    
C102  H8    S    
O44   S1    D    
C1    O18   A    
C65   C67   A    
C160  C169  A    
C3    C137  A    
C93   C99   A    
C33   H39   S    
C148  H10   S    
C81   C89   A    
C123  O21   A    
C101  C157  S    
C44   C140  S    
C21   C164  A    
C64   H1    S    
C130  C139  A    
C167  O26   A    
O21   Zn10  S    
C56   H51   S    
C33   C115  A    
C58   H50   S    
C29   H35   S    
C53   C57   A    
C156  O58   A    
C132  C185  A    
C177  O14   A    
O37   Zn4   S    
C10   C19   A    
C48   C102  A    
C46   C54   A    
C59   H49   S    
C27   C170  A    
C5    C14   A    
C181  O17   A    
C17   C121  A    
C143  C152  A    
O48   S2    D    
C15   C128  A    
C43   C141  S    
C107  C121  A    
C158  C166  A    
C115  C124  A    
C78   C178  A    
C106  C185  A    
C6    C131  A    
C123  O34   A    
C4    C129  A    
C27   C36   A    
C21   C30   A    
C13   C83   A    
C40   O39   A    
C153  C162  A    
C23   C32   A    
C11   C137  A    
C136  C144  A    
O25   Zn7   S    
O52   S3    D    
C39   C146  S    
C42   O37   A    
C164  C182  A    
C176  O13   A    
O54   S4    D    
O42   Zn2   S    
C34   C116  A    
C28   H33   S    
O60   Zn9   S    
C94   C176  S    
O55   S4    D    
C68   C80   A    
C74   C178  A    
C19   Cl7   S    
C103  C182  A    
C108  C187  A    
C17   Cl5   S    
C34   H40   S    
C149  H11   S    
C35   C81   A    
C95   C98   A    
C92   C98   A    
C83   C92   A    
C14   C125  A    
C28   C37   A    
C10   C136  A    
C27   H32   S    
C66   C69   A    
C30   H36   S    
C101  O12   A    
C25   H30   S    
C159  C168  A    
O13   Zn7   S    
O14   Zn8   S    
C144  C153  A    
C1    C155  S    
C16   Cl4   S    
C10   H25   S    
C6    C15   A    
C22   C165  A    
C26   C34   A    
C129  C138  A    
C26   C169  A    
C146  C154  A    
C13   C86   A    
C42   C142  S    
O28   Zn4   S    
C52   C68   A    
C38   H43   S    
C156  C162  S    
C11   H26   S    
C16   C127  A    
O8    Zn6   S    
C109  C188  A    
C19   C124  A    
C45   O33   A    
C22   C31   A    
C37   C118  A    
C35   C55   A    
C150  H13   S    
C154  C163  A    
O29   Zn4   S    
O30   Zn3   S    
O26   Zn6   S    
O27   Zn3   S    
O1    Zn1   S    
C49   C58   A    
C89   C97   A    
C111  C120  A    
C7    H21   S    
C163  C167  S    
O34   Zn7   S    
O17   Zn11  S    
C36   C117  A    
O9    Zn1   S    
O15   Zn9   S    
C23   C166  A    
C53   C62   A    
C28   C171  A    
C13   C76   A    
C138  C147  A    
C87   C96   A    
C156  O25   A    
C113  C121  A    
O59   Zn11  S    
C133  C186  A    
C161  C170  A    
O51   S3    D    
C40   C144  S    
C18   C120  A    
O45   Zn8   S    
O11   Zn6   S    
C48   C56   A    
C7    C16   A    
C168  C185  A    
C105  C128  A    
C8    C133  A    
C53   C73   A    
C109  C124  A    
C55   C64   A    
C155  C164  A    
C142  C151  A    
C177  O5    A    
C30   C111  A    
C68   H4    S    
C151  C160  A    
C24   C84   A    
C134  O45   A    
C49   C100  A    
C71   C75   A    
O47   S1    S    
C94   C99   A    
O23   Zn6   S    
C29   C172  A    
C101  O19   A    
O7    Zn7   S    
C2    C80   A    
C87   C179  S    
C114  C122  A    
O53   S3    S    
H47   O53   S    
C70   C72   A    
C32   C114  A    
C20   Cl8   S    
C57   H3    S    
C175  O11   A    
