data_mof_unit_12450.cif
_audit_creation_date              2012-12-11T15:34:54-0500
_audit_creation_method            fapswitch 2.2
_symmetry_space_group_name_H-M    P1
_symmetry_Int_Tables_number       1
_space_group_crystal_system       triclinic
_cell_length_a                    30.45861
_cell_length_b                    7.256957
_cell_length_c                    25.919816
_cell_angle_alpha                 90.000092
_cell_angle_beta                  112.027518
_cell_angle_gamma                 90.001532
_cell_volume                      5311.02166689

loop_
_atom_site_label
_atom_site_type_symbol
_atom_type_description
_atom_site_fract_x
_atom_site_fract_y
_atom_site_fract_z
_atom_type_partial_charge
O1    O     O_R   0.295360 0.592990 0.320420 -0.536159
O2    O     O_R   0.704640 0.407010 0.679580 -0.536153
O3    O     O_R   0.204640 0.092990 0.179580 -0.536157
O4    O     O_R   0.795360 0.907010 0.820420 -0.536170
O5    O     O_R   0.294060 0.265620 0.213230 -0.538022
O6    O     O_R   0.705940 0.734380 0.786770 -0.538021
O7    O     O_R   0.205940 0.765620 0.286770 -0.538022
O8    O     O_R   0.794060 0.234380 0.713230 -0.538023
C1    C     C_R   0.304161 0.432097 0.199682 0.695524
C2    C     C_R   0.695840 0.567903 0.800320 0.695464
C3    C     C_R   0.195839 0.932096 0.300320 0.695519
C4    C     C_R   0.804160 0.067904 0.699680 0.695550
O9    O     O_R   0.300850 0.263360 0.322080 -0.533388
O10   O     O_R   0.699150 0.736640 0.677920 -0.533378
O11   O     O_R   0.199150 0.763360 0.177920 -0.533379
O12   O     O_R   0.800850 0.236640 0.822080 -0.533385
O13   O     O_R   0.211480 0.091820 0.289210 -0.534826
O14   O     O_R   0.788520 0.908180 0.710790 -0.534823
O15   O     O_R   0.288520 0.591820 0.210790 -0.534826
O16   O     O_R   0.711480 0.408180 0.789210 -0.534833
C5    C     C_R   0.313128 0.431827 0.343336 0.682203
C6    C     C_R   0.686873 0.568173 0.656663 0.682195
C7    C     C_R   0.186870 0.931824 0.156663 0.682194
C8    C     C_R   0.813129 0.068178 0.843337 0.682223
O17   O     O_3   0.220670 0.426670 0.239090 -0.373321
O18   O     O_3   0.779330 0.573330 0.760910 -0.373325
O19   O     O_3   0.279330 0.926670 0.260910 -0.373318
O20   O     O_3   0.720670 0.073330 0.739090 -0.373313
V1    V     V_3+5 0.255440 0.152290 0.252020 1.402376
V2    V     V_3+5 0.744560 0.847710 0.747980 1.402378
V3    V     V_3+5 0.244560 0.652290 0.247980 1.402391
V4    V     V_3+5 0.755440 0.347710 0.752020 1.402375
C9    C     C_R   0.849076 0.058940 0.900600 -0.059276
C10   C     C_R   0.150932 0.941091 0.099396 -0.059260
C11   C     C_R   0.650934 0.558896 0.599397 -0.059262
C12   C     C_R   0.349067 0.441105 0.400601 -0.059240
C13   C     C_R   0.870930 0.060963 0.000445 -0.203203
C14   C     C_R   0.129101 0.939372 0.999553 -0.203216
C15   C     C_R   0.629107 0.560262 0.499555 -0.203194
C16   C     C_R   0.370894 0.439752 0.500441 -0.203229
C17   C     C_R   0.835765 0.065856 0.946952 0.080442
C18   C     C_R   0.164255 0.934257 0.053052 0.080437
C19   C     C_R   0.664259 0.565551 0.553053 0.080441
C20   C     C_R   0.335743 0.434472 0.446944 0.080441
C21   C     C_R   0.897125 0.040502 0.908742 -0.232031
C22   C     C_R   0.102882 0.959599 0.091243 -0.232060
C23   C     C_R   0.602882 0.540543 0.591247 -0.231997
C24   C     C_R   0.397120 0.459435 0.408749 -0.232012
C25   C     C_R   0.933324 0.028441 0.962989 0.070755
C26   C     C_R   0.066699 0.971955 0.036994 0.070779
C27   C     C_R   0.566693 0.528184 0.537001 0.070777
C28   C     C_R   0.433309 0.471817 0.462995 0.070781
C29   C     C_R   0.919501 0.045333 0.009493 0.084791
C30   C     C_R   0.080531 0.955206 0.990494 0.084743
C31   C     C_R   0.580535 0.544514 0.490497 0.084737
C32   C     C_R   0.419466 0.455506 0.509499 0.084740
C33   C     C_R   0.982591 0.001638 0.972325 0.034912
C34   C     C_R   0.017438 0.998910 0.027652 0.034905
C35   C     C_R   0.517419 0.501571 0.527665 0.034930
C36   C     C_R   0.482583 0.498438 0.472331 0.034927
C37   C     C_R   0.002143 0.026029 0.072094 -0.211355
C38   C     C_R   0.997898 0.974807 0.927880 -0.211309
C39   C     C_R   0.497908 0.524692 0.427877 -0.211295
C40   C     C_R   0.502092 0.475346 0.572120 -0.211290
C41   C     C_R   0.954399 0.046585 0.064143 0.068005
C42   C     C_R   0.045645 0.954332 0.935836 0.068020
C43   C     C_R   0.545657 0.545052 0.435833 0.068019
C44   C     C_R   0.454342 0.455002 0.564162 0.068024
H1    H     H_    0.095238 0.961763 0.128544 0.099260
H2    H     H_    0.904750 0.038122 0.871430 0.099234
H3    H     H_    0.404751 0.461544 0.371441 0.099216
H4    H     H_    0.595252 0.538399 0.628556 0.099214
H5    H     H_    0.859254 0.068477 0.034909 0.129208
H6    H     H_    0.140786 0.931861 0.965097 0.129286
H7    H     H_    0.640796 0.567578 0.465100 0.129279
H8    H     H_    0.359204 0.432427 0.534896 0.129310
H9    H     H_    0.026983 0.035447 0.114336 0.120992
H10   H     H_    0.973074 0.965706 0.885624 0.120979
H11   H     H_    0.473096 0.533445 0.385608 0.120974
H12   H     H_    0.526902 0.466625 0.614390 0.120969
C45   C     C_R   0.075227 0.123710 0.455160 0.584902
C46   C     C_R   0.924774 0.876275 0.544842 0.584908
C47   C     C_R   0.424776 0.623707 0.044846 0.584906
C48   C     C_R   0.575237 0.376329 0.955175 0.584896
N1    N     N_R   0.073277 0.969969 0.423520 -0.561445
N2    N     N_R   0.926724 0.030016 0.576482 -0.561448
N3    N     N_R   0.426728 0.469971 0.076488 -0.561447
N4    N     N_R   0.573284 0.530060 0.923530 -0.561441
C49   C     C_R   0.042568 0.828546 0.421027 0.582564
C50   C     C_R   0.957432 0.171439 0.578975 0.582550
C51   C     C_R   0.457439 0.328562 0.078985 0.582533
C52   C     C_R   0.542572 0.671467 0.921032 0.582531
C53   C     C_R   0.013033 0.837023 0.451791 -0.030686
C54   C     C_R   0.986968 0.162961 0.548212 -0.030685
C55   C     C_R   0.486976 0.337050 0.048223 -0.030684
C56   C     C_R   0.513036 0.662983 0.951796 -0.030684
C57   C     C_R   0.014768 0.994022 0.484454 -0.018278
C58   C     C_R   0.985234 0.005962 0.515549 -0.018277
C59   C     C_R   0.485239 0.494043 0.015557 -0.018281
C60   C     C_R   0.514774 0.505992 0.984463 -0.018283
C61   C     C_R   0.045934 0.139196 0.486052 -0.028607
C62   C     C_R   0.954067 0.860788 0.513951 -0.028612
C63   C     C_R   0.454070 0.639201 0.013955 -0.028610
C64   C     C_R   0.545944 0.360835 0.986066 -0.028604
C65   C     C_R   0.981842 0.692750 0.450621 -0.160203
C66   C     C_R   0.018159 0.307234 0.549382 -0.160211
C67   C     C_R   0.518172 0.192794 0.049398 -0.160209
C68   C     C_R   0.481842 0.807240 0.950622 -0.160206
C69   C     C_R   0.952760 0.704388 0.481358 -0.143591
C70   C     C_R   0.047241 0.295595 0.518645 -0.143595
C71   C     C_R   0.547254 0.204443 0.018662 -0.143589
C72   C     C_R   0.452760 0.795594 0.981358 -0.143588
O21   O     O_2   0.105736 0.260626 0.457163 -0.510169
O22   O     O_2   0.894264 0.739359 0.542840 -0.510167
O23   O     O_2   0.394265 0.760611 0.042840 -0.510167
O24   O     O_2   0.605751 0.239429 0.957183 -0.510173
O25   O     O_2   0.040395 0.680533 0.388657 -0.520564
O26   O     O_2   0.959605 0.319453 0.611344 -0.520557
O27   O     O_2   0.459614 0.180553 0.111356 -0.520566
O28   O     O_2   0.540395 0.819470 0.888658 -0.520577
H13   H     H_    0.979878 0.569998 0.426079 0.171862
H14   H     H_    0.020123 0.429986 0.573924 0.171859
H15   H     H_    0.520136 0.070048 0.073943 0.171856
H16   H     H_    0.479876 0.929985 0.926076 0.171856
H17   H     H_    0.929303 0.590235 0.479525 0.182723
H18   H     H_    0.070698 0.409749 0.520478 0.182720
H19   H     H_    0.570714 0.090302 0.020498 0.182716
H20   H     H_    0.429300 0.909735 0.979523 0.182719
C73   C     C_R   0.901768 0.918678 0.651356 -0.098931
C74   C     C_R   0.098237 0.081330 0.348651 -0.098932
C75   C     C_R   0.598247 0.418648 0.848670 -0.098982
C76   C     C_R   0.401770 0.581328 0.151357 -0.098956
H21   H     H_    0.929393 0.815319 0.662050 0.145111
H22   H     H_    0.070614 0.184701 0.337961 0.145093
H23   H     H_    0.570631 0.315250 0.837990 0.145143
H24   H     H_    0.429393 0.684702 0.162048 0.145122
C77   C     C_R   0.871754 0.925890 0.681081 -0.225795
C78   C     C_R   0.128250 0.074124 0.318926 -0.225765
C79   C     C_R   0.628261 0.425839 0.818944 -0.225686
C80   C     C_R   0.371754 0.574125 0.181080 -0.225777
H25   H     H_    0.876686 0.827713 0.714269 0.132116
H26   H     H_    0.123321 0.172316 0.285743 0.132104
H27   H     H_    0.623337 0.327609 0.785771 0.132127
H28   H     H_    0.376683 0.672321 0.214263 0.132132
C81   C     C_R   0.836127 0.060312 0.668587 -0.042624
C82   C     C_R   0.163873 0.939687 0.331414 -0.042591
C83   C     C_R   0.663875 0.560314 0.831417 -0.042579
C84   C     C_R   0.336129 0.439687 0.168590 -0.042624
C85   C     C_R   0.830512 0.185662 0.625266 -0.243364
C86   C     C_R   0.169484 0.814318 0.374729 -0.243395
C87   C     C_R   0.669480 0.685733 0.874718 -0.243435
C88   C     C_R   0.330519 0.314310 0.125277 -0.243372
H29   H     H_    0.802398 0.287235 0.614401 0.119821
H30   H     H_    0.197596 0.712734 0.385589 0.119820
H31   H     H_    0.697585 0.787347 0.885568 0.119831
H32   H     H_    0.302407 0.212720 0.114416 0.119830
C89   C     C_R   0.859484 0.175105 0.594118 -0.020977
C90   C     C_R   0.140513 0.824869 0.405877 -0.021002
C91   C     C_R   0.640510 0.675192 0.905870 -0.021034
C92   C     C_R   0.359492 0.324859 0.094130 -0.020993
C93   C     C_R   0.896035 0.042613 0.607631 0.327748
C94   C     C_R   0.103965 0.957375 0.392370 0.327755
C95   C     C_R   0.603970 0.542650 0.892376 0.327725
C96   C     C_R   0.396040 0.457371 0.107638 0.327745
C97   C     C_3   0.942612 0.074844 0.115684 -0.363258
C98   C     C_3   0.932002 0.278287 0.122429 -0.309695
C99   C     C_3   0.919762 0.307086 0.173794 -0.741735
H33   H     H_    0.887793 0.226014 0.170145 0.230362
H34   H     H_    0.949843 0.264082 0.211922 0.234133
H35   H     H_    0.912394 0.455247 0.177635 0.220555
H36   H     H_    0.963604 0.363004 0.126704 0.201935
H37   H     H_    0.901949 0.327809 0.085279 0.194809
H38   H     H_    0.912812 0.984511 0.114418 0.169366
H39   H     H_    0.972858 0.031550 0.153720 0.175744
C100  C     C_3   0.057454 0.926684 0.884289 -0.363283
C101  C     C_3   0.067978 0.723314 0.877318 -0.309738
C102  C     C_3   0.080490 0.695302 0.826113 -0.741796
H40   H     H_    0.050609 0.739407 0.787939 0.234188
H41   H     H_    0.112628 0.775892 0.830170 0.230279
H42   H     H_    0.087701 0.547125 0.822038 0.220619
H43   H     H_    0.097870 0.673056 0.914517 0.194871
H44   H     H_    0.036263 0.638818 0.872694 0.201872
H45   H     H_    0.027246 0.970497 0.846287 0.175647
H46   H     H_    0.087301 0.016967 0.885687 0.169477
C103  C     C_3   0.557479 0.572120 0.384272 -0.363288
C104  C     C_3   0.567982 0.775388 0.377126 -0.309735
C105  C     C_3   0.580497 0.802829 0.325900 -0.741759
H47   H     H_    0.612653 0.722247 0.330041 0.230279
H48   H     H_    0.550631 0.758350 0.287762 0.234152
H49   H     H_    0.587678 0.950953 0.321687 0.220649
H50   H     H_    0.536255 0.859923 0.372420 0.201858
H51   H     H_    0.597865 0.825953 0.414286 0.194846
H52   H     H_    0.587338 0.481768 0.385758 0.169477
H53   H     H_    0.527282 0.527982 0.346301 0.175651
C106  C     C_3   0.442517 0.428007 0.615724 -0.363290
C107  C     C_3   0.432013 0.224755 0.622889 -0.309756
C108  C     C_3   0.419436 0.197428 0.674075 -0.741783
H54   H     H_    0.449269 0.242017 0.712229 0.234177
H55   H     H_    0.387259 0.277986 0.669866 0.230263
H56   H     H_    0.412262 0.049312 0.678308 0.220660
H57   H     H_    0.402161 0.174101 0.585714 0.194869
H58   H     H_    0.463756 0.140237 0.627656 0.201843
H59   H     H_    0.472711 0.472177 0.653692 0.175630
H60   H     H_    0.412657 0.518375 0.614224 0.169499
C109  C     C_1   0.849408 0.293120 0.546295 0.354468
N5    N     N_1   0.841216 0.386622 0.507652 -0.321935
C110  C     C_1   0.150587 0.706836 0.453697 0.354473
N6    N     N_1   0.158779 0.613319 0.492337 -0.321905
C111  C     C_1   0.650585 0.793262 0.953682 0.354486
N7    N     N_1   0.658779 0.886810 0.992316 -0.321820
C112  C     C_1   0.349417 0.206821 0.046311 0.354474
N8    N     N_1   0.341224 0.113300 0.007672 -0.321888
C113  C     C_3   0.215583 0.924264 0.058682 -0.372581
C114  C     C_3   0.228181 0.730649 0.044944 -0.345204
C115  C     C_3   0.277713 0.727074 0.043318 -0.659440
H61   H     H_    0.279478 0.820610 0.010259 0.250515
H62   H     H_    0.304448 0.770648 0.084048 0.243301
H63   H     H_    0.286103 0.585349 0.033856 0.213997
H64   H     H_    0.226670 0.631784 0.077019 0.200899
H65   H     H_    0.202445 0.685287 0.003729 0.196886
H66   H     H_    0.221419 0.026820 0.029985 0.175061
H67   H     H_    0.240208 0.962243 0.101170 0.163288
C116  C     C_3   0.784439 0.075710 0.941334 -0.372601
C117  C     C_3   0.771789 0.269369 0.954973 -0.345236
C118  C     C_3   0.722281 0.272797 0.956673 -0.659306
H68   H     H_    0.695531 0.228802 0.916002 0.243316
H69   H     H_    0.720598 0.179532 0.989831 0.250418
H70   H     H_    0.713844 0.414569 0.966039 0.214019
H71   H     H_    0.797541 0.315068 0.996139 0.196858
H72   H     H_    0.773225 0.368039 0.922815 0.200920
H73   H     H_    0.759819 0.037455 0.898870 0.163234
H74   H     H_    0.778640 0.973288 0.970090 0.175106
C119  C     C_3   0.284414 0.424505 0.441313 -0.372625
C120  C     C_3   0.271812 0.230893 0.455050 -0.345221
C121  C     C_3   0.222278 0.227313 0.456669 -0.659402
H75   H     H_    0.220517 0.320790 0.489742 0.250517
H76   H     H_    0.195547 0.270954 0.415945 0.243284
H77   H     H_    0.213878 0.085571 0.466108 0.214012
H78   H     H_    0.273325 0.132026 0.422976 0.200907
H79   H     H_    0.297546 0.185539 0.496267 0.196905
H80   H     H_    0.278579 0.527067 0.470010 0.175054
H81   H     H_    0.259792 0.462484 0.398825 0.163294
C122  C     C_3   0.715588 0.575549 0.558685 -0.372612
C123  C     C_3   0.728172 0.769128 0.544901 -0.345217
C124  C     C_3   0.777720 0.772746 0.543321 -0.659435
H82   H     H_    0.804440 0.729293 0.584075 0.243267
H83   H     H_    0.779518 0.679133 0.510296 0.250567
H84   H     H_    0.786103 0.914458 0.533837 0.214008
H85   H     H_    0.702449 0.814321 0.503658 0.196901
H86   H     H_    0.726625 0.868102 0.576932 0.200894
H87   H     H_    0.740213 0.537702 0.601183 0.163316
H88   H     H_    0.721435 0.472910 0.530015 0.175036

loop_
_geom_bond_atom_site_label_1
_geom_bond_atom_site_label_2
_ccdc_geom_bond_type
O17   V3    S    
C59   C63   A    
C88   C92   A    
O1    C5    A    
C97   C98   S    
N3    C51   A    
O19   V1    S    
C9    C21   A    
O3    C7    A    
C116  C117  S    
C10   C18   A    
C67   H15   S    
C103  H53   S    
C11   C23   A    
C117  C118  S    
C80   C84   A    
C57   C58   A    
C103  C104  S    
C25   C33   A    
C33   C38   A    
C99   H34   S    
C5    C12   S    
C45   C61   A    
C109  N5    T    
O7    C3    A    
C6    C11   S    
C79   C83   A    
C35   C40   A    
C26   C30   A    
C123  H86   S    
C36   C39   A    
C90   C110  S    
C92   C96   A    
O9    V1    S    
O10   V2    S    
C14   C18   A    
C75   H23   S    
C114  H64   S    
C115  H62   S    
C14   H6    S    
O4    C8    A    
C55   C59   A    
C106  H59   S    
C54   C58   A    
C97   H38   S    
C122  C123  S    
C50   O26   S    
C41   C97   S    
O1    V3    S    
C118  H70   S    
O13   V1    S    
C123  C124  S    
O2    V4    S    
C32   C44   A    
C104  H50   S    
O3    V1    S    
C85   H29   S    
C119  H80   S    
C22   H1    S    
C13   H5    S    
C28   C36   A    
C30   C42   A    
C53   C65   A    
C82   C86   A    
C79   H27   S    
C1    O15   A    
C60   C64   A    
C15   C31   A    
C76   C80   A    
N4    C52   A    
C72   H20   S    
C37   H9    S    
C105  H49   S    
O2    C6    A    
C121  H75   S    
C10   C22   A    
C87   H31   S    
C11   C19   A    
C119  C120  S    
C16   C20   A    
C27   C31   A    
O8    C4    A    
C2    C83   S    
C13   C29   A    
C7    C10   S    
C34   C37   A    
O11   C7    A    
N3    C96   S    
C56   C68   A    
C104  C105  S    
O15   V3    S    
C98   H36   S    
O12   C8    A    
C98   H37   S    
C49   C53   A    
N1    C94   S    
C40   H12   S    
C74   H22   S    
C35   C36   A    
C113  H66   S    
C68   H16   S    
C116  H73   S    
C50   C54   A    
C99   H35   S    
O5    V1    S    
C52   C56   A    
C101  H43   S    
C39   C43   A    
C84   C88   A    
O7    V3    S    
C123  H85   S    
C38   C42   A    
C65   H13   S    
C110  N6    T    
C26   C34   A    
C104  H51   S    
C47   O23   S    
C117  H71   S    
C122  H87   S    
C46   O22   S    
C88   H32   S    
C111  N7    T    
C78   H26   S    
C115  H63   S    
C2    O16   A    
C99   H33   S    
C75   C79   A    
N1    C49   A    
O18   V4    S    
C23   C27   A    
C106  H60   S    
C16   C32   A    
C97   H39   S    
C113  C114  S    
C16   H8    S    
C63   C72   A    
O8    V4    S    
C4    C81   S    
C108  H56   S    
C101  H44   S    
C115  H61   S    
C76   C96   A    
C112  N8    T    
O5    C1    A    
C117  H72   S    
C45   O21   S    
C113  H67   S    
C53   C57   A    
C31   C43   A    
C59   C60   A    
C14   C30   A    
C21   C25   A    
C76   H24   S    
C102  H42   S    
C57   C61   A    
C66   H14   S    
C118  H68   S    
C46   C62   A    
C73   C93   A    
N2    C93   S    
C120  H79   S    
C61   C70   A    
C17   C116  S    
C55   C67   A    
C70   H18   S    
C73   H21   S    
C69   H17   S    
C101  C102  S    
O6    V2    S    
C49   O25   S    
C43   C103  S    
C102  H40   S    
C15   H7    S    
C124  H83   S    
C121  H76   S    
C98   C99   S    
C48   C64   A    
C121  H77   S    
C51   O27   S    
C42   C100  S    
C12   C20   A    
C27   C35   A    
C120  C121  S    
C24   H3    S    
C107  H58   S    
C74   C78   A    
C40   C44   A    
C89   C93   A    
C29   C41   A    
C116  H74   S    
C100  H45   S    
O16   V4    S    
C77   C81   A    
C92   C112  S    
C77   H25   S    
C3    O13   A    
C122  H88   S    
C86   C90   A    
C48   O24   S    
C21   H2    S    
C114  C115  S    
C67   C71   A    
C38   H10   S    
C80   H28   S    
C103  H52   S    
C107  C108  S    
C47   N3    A    
O6    C2    A    
C64   C71   A    
C15   C19   A    
C3    C82   S    
O11   V3    S    
C39   H11   S    
O12   V4    S    
N4    C95   S    
C22   C26   A    
C1    C84   S    
C8    C9    S    
C91   C111  S    
C9    C17   A    
C47   C63   A    
O10   C6    A    
C108  H55   S    
C52   O28   S    
C105  H47   S    
C100  C101  S    
C58   C62   A    
C20   C119  S    
O9    C5    A    
C46   N2    A    
C74   C94   A    
C33   C34   A    
C48   N4    A    
C65   C69   A    
C78   C82   A    
C25   C29   A    
C83   C87   A    
C56   C60   A    
O20   V2    S    
N2    C50   A    
C118  H69   S    
C102  H41   S    
C12   C24   A    
C44   C106  S    
C91   C95   A    
C120  H78   S    
C37   C41   A    
C13   C17   A    
C108  H54   S    
C45   N1    A    
C23   H4    S    
C105  H48   S    
C54   C66   A    
C90   C94   A    
O14   V2    S    
C51   C55   A    
C106  C107  S    
C68   C72   A    
C119  H81   S    
C24   C28   A    
C73   C77   A    
C66   C70   A    
C75   C95   A    
C86   H30   S    
C124  H84   S    
C4    O14   A    
C18   C113  S    
C81   C85   A    
C19   C122  S    
C62   C69   A    
C114  H65   S    
C107  H57   S    
C124  H82   S    
C85   C89   A    
C89   C109  S    
O4    V2    S    
C28   C32   A    
C87   C91   A    
C100  H46   S    
C71   H19   S    
