data_mof_unit_55837.cif
_audit_creation_date              2012-12-11T15:08:53-0500
_audit_creation_method            fapswitch 2.2
_symmetry_space_group_name_H-M    P1
_symmetry_Int_Tables_number       1
_space_group_crystal_system       triclinic
_cell_length_a                    19.543067
_cell_length_b                    11.268378
_cell_length_c                    18.699321
_cell_angle_alpha                 90.01651
_cell_angle_beta                  90.834331
_cell_angle_gamma                 89.978021
_cell_volume                      4117.50247275

loop_
_atom_site_label
_atom_site_type_symbol
_atom_type_description
_atom_site_fract_x
_atom_site_fract_y
_atom_site_fract_z
_atom_type_partial_charge
C1    C     C_R   0.273091 0.042275 0.854829 0.528550
C2    C     C_3   0.691234 0.515801 0.958173 -0.231821
C3    C     C_R   0.227762 0.545441 0.353174 0.533875
C4    C     C_R   0.460456 0.822442 0.641811 0.557516
C5    C     C_R   0.539110 0.822481 0.357998 0.557517
C6    C     C_R   0.960545 0.322451 0.641854 0.557615
C7    C     C_R   0.039080 0.322488 0.357979 0.557530
C8    C     C_R   0.261438 0.641891 0.642938 0.542575
C9    C     C_R   0.738535 0.641994 0.357092 0.541889
C10   C     C_R   0.761436 0.141886 0.642939 0.542556
C11   C     C_R   0.238537 0.141987 0.357091 0.541910
C12   C     C_3   0.471983 0.910796 0.039157 -0.110315
C13   C     C_3   0.816175 0.039599 0.047003 -0.235341
C14   C     C_3   0.509882 0.924527 0.967402 -0.112678
C15   C     C_3   0.971984 0.410796 0.039157 -0.110316
C16   C     C_3   0.009883 0.424527 0.967402 -0.112674
C17   C     C_3   0.429556 0.807137 0.007274 -0.161576
C18   C     C_3   0.564525 0.834768 0.992692 -0.163524
C19   C     C_3   0.929557 0.307137 0.007274 -0.161576
C20   C     C_3   0.064526 0.334768 0.992692 -0.163522
C21   C     C_3   0.468051 0.821577 0.936532 0.054559
C22   C     C_3   0.526484 0.821797 0.063874 0.060842
C23   C     C_3   0.968052 0.321577 0.936532 0.054564
C24   C     C_3   0.191233 0.015802 0.958173 -0.231821
C25   C     C_3   0.026485 0.321797 0.063874 0.060845
C26   C     C_R   0.432283 0.988695 0.383567 0.014264
C27   C     C_R   0.464363 0.101235 0.389102 -0.081646
C28   C     C_R   0.461763 0.181469 0.332100 -0.096546
C29   C     C_R   0.428303 0.151094 0.268329 -0.048001
C30   C     C_R   0.395701 0.041524 0.261958 -0.048845
C31   C     C_R   0.397184 0.961520 0.318954 -0.086229
C32   C     C_R   0.566992 0.989530 0.615787 0.014800
C33   C     C_R   0.534896 0.102051 0.609839 -0.082584
C34   C     C_R   0.537562 0.182954 0.666521 -0.098163
C35   C     C_3   0.323492 0.557065 0.965413 -0.232588
C36   C     C_R   0.571168 0.153323 0.730336 -0.048358
C37   C     C_R   0.603796 0.043785 0.737069 -0.047027
C38   C     C_R   0.602187 0.963070 0.680431 -0.085944
C39   C     C_R   0.932338 0.488831 0.383653 0.014257
C40   C     C_R   0.964422 0.601359 0.389257 -0.081789
C41   C     C_R   0.961852 0.681665 0.332292 -0.096662
C42   C     C_R   0.928416 0.651379 0.268491 -0.048063
C43   C     C_R   0.895809 0.541824 0.262054 -0.048775
C44   C     C_R   0.897261 0.461747 0.319013 -0.086200
C45   C     C_R   0.067097 0.489411 0.615825 0.014664
C46   C     C_3   0.686558 0.523780 0.040503 -0.241437
C47   C     C_R   0.034979 0.601919 0.609978 -0.082457
C48   C     C_R   0.037653 0.682695 0.666721 -0.098008
C49   C     C_R   0.071299 0.652957 0.730492 -0.048261
C50   C     C_R   0.103965 0.543449 0.737118 -0.047076
C51   C     C_R   0.102339 0.462854 0.680425 -0.086134
C52   C     C_3   0.823492 0.057066 0.965413 -0.232590
C53   C     C_3   0.186558 0.023781 0.040503 -0.241436
C54   C     C_3   0.186632 0.514079 0.025842 -0.208679
C55   C     C_3   0.823050 0.530889 0.975051 -0.205941
C56   C     C_3   0.686632 0.014077 0.025841 -0.208685
C57   C     C_R   0.728174 0.045164 0.146728 0.528021
C58   C     C_3   0.323049 0.030890 0.975051 -0.205935
C59   C     C_3   0.236009 0.708465 0.056013 -0.257072
C60   C     C_3   0.752658 0.704556 0.944656 -0.253923
C61   C     C_3   0.736009 0.208464 0.056012 -0.257073
C62   C     C_3   0.252657 0.204557 0.944656 -0.253923
C63   C     C_3   0.243119 0.576400 0.071194 0.066421
C64   C     C_3   0.759160 0.572164 0.930956 0.064176
C65   C     C_3   0.743119 0.076399 0.071194 0.066420
C66   C     C_3   0.259160 0.072165 0.930956 0.064175
C67   C     C_3   0.256651 0.610207 0.932699 0.057659
C68   C     C_R   0.773092 0.542274 0.854829 0.528553
C69   C     C_3   0.744795 0.604581 0.069401 0.061074
C70   C     C_3   0.756651 0.110206 0.932699 0.057660
C71   C     C_3   0.244795 0.104582 0.069401 0.061071
C72   C     C_3   0.199431 0.520808 0.944840 -0.258612
C73   C     C_3   0.813475 0.544006 0.055835 -0.248503
C74   C     C_3   0.699432 0.020805 0.944840 -0.258601
C75   C     C_3   0.313474 0.044005 0.055834 -0.248502
C76   C     C_3   0.236836 0.724909 0.974182 -0.219526
C77   C     C_3   0.740705 0.721116 0.025638 -0.218846
C78   C     C_3   0.736835 0.224907 0.974181 -0.219529
C79   C     C_R   0.228174 0.545164 0.146728 0.528015
C80   C     C_3   0.240705 0.221117 0.025637 -0.218845
C81   C     C_3   0.506364 0.703209 0.460903 -0.255388
C82   C     C_3   0.493411 0.703263 0.538920 -0.255562
C83   C     C_3   0.006357 0.203225 0.460903 -0.255393
C84   C     C_3   0.993419 0.203265 0.538925 -0.255582
C85   C     C_R   0.442015 0.817063 0.862107 0.541002
C86   C     C_R   0.555147 0.817391 0.137487 0.541523
C87   C     C_R   0.942015 0.317063 0.862107 0.541000
C88   C     C_R   0.055148 0.317391 0.137487 0.541513
C89   C     C_3   0.566172 0.909095 0.480732 -0.228889
C90   C     C_3   0.521981 0.731997 0.961983 -0.109961
C91   C     C_3   0.433289 0.908936 0.518929 -0.229314
C92   C     C_3   0.066202 0.409082 0.480729 -0.228825
C93   C     C_3   0.933335 0.408961 0.518985 -0.229162
C94   C     C_3   0.443580 0.887139 0.437721 -0.128524
C95   C     C_3   0.555890 0.887508 0.561938 -0.127872
C96   C     C_3   0.943603 0.387207 0.437766 -0.128528
C97   C     C_3   0.055949 0.387459 0.561936 -0.127984
C98   C     C_3   0.515000 0.831762 0.432231 0.056796
C99   C     C_3   0.484552 0.831821 0.567523 0.056464
C100  C     C_3   0.015005 0.331778 0.432236 0.056804
C101  C     C_3   0.484313 0.718413 0.032956 -0.110938
C102  C     C_3   0.984606 0.331818 0.567547 0.056473
C103  C     C_3   0.182535 0.652698 0.456733 -0.231883
C104  C     C_3   0.817310 0.652838 0.543338 -0.231976
C105  C     C_3   0.682528 0.152693 0.456736 -0.231876
C106  C     C_3   0.317317 0.152827 0.543336 -0.231981
C107  C     C_3   0.189166 0.668184 0.535415 -0.235487
C108  C     C_3   0.810775 0.668094 0.464648 -0.235483
C109  C     C_3   0.689165 0.168188 0.535419 -0.235483
C110  C     C_3   0.310791 0.168068 0.464644 -0.235481
C111  C     C_3   0.252846 0.458687 0.471579 -0.215534
C112  C     C_3   0.021981 0.231997 0.961983 -0.109962
C113  C     C_3   0.746998 0.458803 0.528420 -0.215723
C114  C     C_3   0.752830 0.958685 0.471584 -0.215534
C115  C     C_3   0.246990 0.958797 0.528421 -0.215731
C116  C     C_3   0.306688 0.650701 0.442170 -0.265590
C117  C     C_3   0.693179 0.650875 0.557906 -0.265558
C118  C     C_3   0.806684 0.150694 0.442173 -0.265605
C119  C     C_3   0.193189 0.150879 0.557905 -0.265566
C120  C     C_3   0.242305 0.576539 0.428469 0.070279
C121  C     C_3   0.757583 0.576645 0.571577 0.069965
C122  C     C_3   0.742299 0.076536 0.428472 0.070273
C123  C     C_3   0.984313 0.218413 0.032956 -0.110938
C124  C     C_3   0.257586 0.076639 0.571576 0.069976
C125  C     C_3   0.254308 0.609696 0.566322 0.061732
C126  C     C_3   0.745609 0.609804 0.433715 0.062109
C127  C     C_3   0.754304 0.109691 0.566325 0.061723
C128  C     C_3   0.245616 0.109796 0.433713 0.062128
C129  C     C_3   0.246564 0.476663 0.552928 -0.268560
C130  C     C_3   0.753267 0.476731 0.447072 -0.268507
C131  C     C_3   0.746545 0.976661 0.552933 -0.268556
C132  C     C_3   0.253262 0.976721 0.447073 -0.268509
C133  C     C_R   0.262697 0.642136 0.855204 0.526577
C134  C     C_3   0.316175 0.539599 0.047003 -0.235339
C135  C     C_R   0.738257 0.638477 0.146266 0.524660
C136  C     C_R   0.762697 0.142135 0.855204 0.526584
C137  C     C_R   0.238257 0.138477 0.146265 0.524662
C138  C     C_3   0.318862 0.650280 0.524486 -0.217329
C139  C     C_3   0.681046 0.650524 0.475569 -0.217248
C140  C     C_3   0.818859 0.150266 0.524488 -0.217342
C141  C     C_3   0.181055 0.150530 0.475568 -0.217245
C142  C     C_R   0.272207 0.045471 0.646851 0.535147
C143  C     C_R   0.727760 0.045439 0.353176 0.533880
C144  C     C_R   0.772206 0.545473 0.646852 0.535162
Cr1   Cr    Cr6+3 0.229620 0.836040 0.749110 0.975687
Cr2   Cr    Cr6+3 0.613980 0.676590 0.250790 0.986142
Cr3   Cr    Cr6+3 0.886020 0.176590 0.749210 0.986245
Cr4   Cr    Cr6+3 0.113980 0.176590 0.250790 0.986138
Cr5   Cr    Cr6+3 0.770380 0.836040 0.250890 0.976673
Cr6   Cr    Cr6+3 0.729620 0.336040 0.749110 0.975701
Cr7   Cr    Cr6+3 0.270380 0.336040 0.250890 0.976669
Cr8   Cr    Cr6+3 0.387630 0.990680 0.750730 0.999765
Cr9   Cr    Cr6+3 0.612370 0.990680 0.249270 1.000479
Cr10  Cr    Cr6+3 0.887630 0.490680 0.750730 0.999726
Cr11  Cr    Cr6+3 0.112370 0.490680 0.249270 1.000498
Cr12  Cr    Cr6+3 0.386020 0.676590 0.749210 0.986234
H1    H     H_    0.375205 0.790141 0.017461 0.091941
H2    H     H_    0.708920 0.739972 0.912644 0.097998
H3    H     H_    0.147220 0.064188 0.933831 0.106677
H4    H     H_    0.334728 0.470139 0.939913 0.114693
H5    H     H_    0.690636 0.435257 0.065165 0.111909
H6    H     H_    0.834730 0.970140 0.939913 0.114693
H7    H     H_    0.190635 0.935258 0.065165 0.111908
H8    H     H_    0.682652 0.924468 0.045241 0.100805
H9    H     H_    0.336280 0.940729 0.959928 0.100950
H10   H     H_    0.182652 0.424470 0.045241 0.100807
H11   H     H_    0.836279 0.440728 0.959929 0.100950
H12   H     H_    0.714354 0.933768 0.923150 0.105764
H13   H     H_    0.777739 0.259107 0.082820 0.101031
H14   H     H_    0.315548 0.956061 0.082469 0.097767
H15   H     H_    0.214351 0.433771 0.923149 0.105749
H16   H     H_    0.815550 0.456063 0.082471 0.097787
H17   H     H_    0.270932 0.797286 0.959515 0.111553
H18   H     H_    0.687957 0.749062 0.033381 0.102362
H19   H     H_    0.770931 0.297285 0.959514 0.111552
H20   H     H_    0.187958 0.249064 0.033381 0.102363
H21   H     H_    0.635832 0.055187 0.036205 0.138440
H22   H     H_    0.368648 0.084455 0.960291 0.136562
H23   H     H_    0.135832 0.555188 0.036206 0.138440
H24   H     H_    0.208920 0.239973 0.912644 0.097993
H25   H     H_    0.868649 0.584453 0.960291 0.136563
H26   H     H_    0.463805 0.656431 0.432674 0.119433
H27   H     H_    0.536075 0.656757 0.567160 0.119619
H28   H     H_    0.963786 0.156478 0.432678 0.119416
H29   H     H_    0.036068 0.156702 0.567154 0.119581
H30   H     H_    0.487610 0.131847 0.438159 0.063789
H31   H     H_    0.485680 0.267691 0.337539 0.084561
H32   H     H_    0.426968 0.213039 0.224107 0.097102
H33   H     H_    0.369800 0.017735 0.212488 0.100425
H34   H     H_    0.373118 0.875785 0.311344 0.083747
H35   H     H_    0.183484 0.746513 0.957727 0.130788
H36   H     H_    0.511636 0.132184 0.560684 0.063953
H37   H     H_    0.513647 0.269157 0.660771 0.085269
H38   H     H_    0.572636 0.215844 0.774282 0.097626
H39   H     H_    0.629900 0.020582 0.786500 0.104151
H40   H     H_    0.626314 0.877425 0.688325 0.084184
H41   H     H_    0.987640 0.631913 0.438343 0.063794
H42   H     H_    0.985770 0.767878 0.337784 0.084616
H43   H     H_    0.927103 0.713383 0.224300 0.097013
H44   H     H_    0.869926 0.518105 0.212560 0.100513
H45   H     H_    0.873192 0.376027 0.311353 0.083736
H46   H     H_    0.776777 0.787483 0.046768 0.139198
H47   H     H_    0.011681 0.632131 0.560862 0.063965
H48   H     H_    0.013707 0.768878 0.661057 0.085217
H49   H     H_    0.072770 0.715374 0.774487 0.097712
H50   H     H_    0.130107 0.520167 0.786512 0.104088
H51   H     H_    0.126489 0.377217 0.688242 0.084145
H52   H     H_    0.367706 0.615011 0.954197 0.135874
H53   H     H_    0.635440 0.559955 0.054451 0.136623
H54   H     H_    0.867706 0.115013 0.954197 0.135875
H55   H     H_    0.135440 0.059958 0.054450 0.136623
H56   H     H_    0.683484 0.246510 0.957727 0.130795
H57   H     H_    0.276778 0.287483 0.046768 0.139195
H58   H     H_    0.151503 0.548318 0.916575 0.111611
H59   H     H_    0.855916 0.598804 0.078382 0.121560
H60   H     H_    0.651504 0.048311 0.916573 0.111612
H61   H     H_    0.615923 0.839695 0.971147 0.095762
H62   H     H_    0.355915 0.098801 0.078383 0.121550
H63   H     H_    0.549556 0.646715 0.449953 0.132876
H64   H     H_    0.450339 0.646575 0.549918 0.132637
H65   H     H_    0.049541 0.146715 0.449945 0.132914
H66   H     H_    0.950322 0.146635 0.549919 0.132699
H67   H     H_    0.618944 0.899559 0.465726 0.093186
H68   H     H_    0.380566 0.899407 0.533972 0.093137
H69   H     H_    0.118967 0.399547 0.465693 0.093207
H70   H     H_    0.880610 0.399376 0.534033 0.093168
H71   H     H_    0.594646 0.820103 0.576860 0.102219
H72   H     H_    0.875205 0.290141 0.017461 0.091940
H73   H     H_    0.404972 0.819484 0.422916 0.102396
H74   H     H_    0.094691 0.320012 0.576814 0.102259
H75   H     H_    0.904970 0.319598 0.422945 0.102329
H76   H     H_    0.453621 0.984963 0.072629 0.108869
H77   H     H_    0.520211 0.010276 0.940404 0.110033
H78   H     H_    0.953622 0.484964 0.072628 0.108868
H79   H     H_    0.020211 0.510276 0.940404 0.110032
H80   H     H_    0.444005 0.001707 0.527974 0.119741
H81   H     H_    0.555358 0.001836 0.471534 0.119616
H82   H     H_    0.944041 0.501730 0.528068 0.119726
H83   H     H_    0.115924 0.339695 0.971147 0.095761
H84   H     H_    0.055400 0.501828 0.471557 0.119652
H85   H     H_    0.132160 0.615012 0.444373 0.137060
H86   H     H_    0.867744 0.615420 0.555805 0.137078
H87   H     H_    0.632156 0.114989 0.444384 0.137043
H88   H     H_    0.367753 0.115429 0.555818 0.137100
H89   H     H_    0.181642 0.740602 0.430168 0.114959
H90   H     H_    0.818069 0.740791 0.569847 0.115016
H91   H     H_    0.681628 0.240592 0.430167 0.114966
H92   H     H_    0.318073 0.240786 0.569836 0.115012
H93   H     H_    0.183626 0.760364 0.549535 0.131612
H94   H     H_    0.186711 0.741561 0.077247 0.127303
H95   H     H_    0.816507 0.760190 0.450428 0.131614
H96   H     H_    0.683632 0.260370 0.549535 0.131628
H97   H     H_    0.316536 0.260167 0.450421 0.131615
H98   H     H_    0.145613 0.626995 0.559466 0.144980
H99   H     H_    0.854296 0.626509 0.440752 0.144611
H100  H     H_    0.645614 0.127006 0.559480 0.145011
H101  H     H_    0.354312 0.126454 0.440760 0.144538
H102  H     H_    0.722584 0.884617 0.451093 0.116080
H103  H     H_    0.277130 0.884563 0.548901 0.115951
H104  H     H_    0.222604 0.384612 0.451091 0.116086
H105  H     H_    0.799603 0.752785 0.928351 0.123427
H106  H     H_    0.777154 0.384580 0.548895 0.115948
H107  H     H_    0.696782 0.943710 0.571580 0.115868
H108  H     H_    0.302969 0.943553 0.428385 0.116055
H109  H     H_    0.196807 0.443694 0.571571 0.115923
H110  H     H_    0.802977 0.443575 0.428380 0.116025
H111  H     H_    0.351088 0.611437 0.414278 0.106228
H112  H     H_    0.648778 0.611603 0.585750 0.106367
H113  H     H_    0.851082 0.111429 0.414280 0.106239
H114  H     H_    0.148786 0.111618 0.585751 0.106360
H115  H     H_    0.299462 0.741972 0.421716 0.104292
H116  H     H_    0.686711 0.241560 0.077246 0.127304
H117  H     H_    0.700329 0.742131 0.578435 0.104414
H118  H     H_    0.799462 0.241969 0.421723 0.104304
H119  H     H_    0.200350 0.242131 0.578434 0.104393
H120  H     H_    0.542241 0.656797 0.930472 0.122328
H121  H     H_    0.474572 0.631811 0.059143 0.119391
H122  H     H_    0.042242 0.156797 0.930472 0.122327
H123  H     H_    0.974572 0.131811 0.059143 0.119392
H124  H     H_    0.340011 0.732803 0.544780 0.109491
H125  H     H_    0.659858 0.733038 0.455308 0.109468
H126  H     H_    0.840008 0.232793 0.544776 0.109516
H127  H     H_    0.299603 0.252786 0.928350 0.123427
H128  H     H_    0.159875 0.233043 0.455305 0.109484
H129  H     H_    0.357158 0.580418 0.535292 0.119312
H130  H     H_    0.642754 0.580721 0.464734 0.119311
H131  H     H_    0.857153 0.080399 0.535295 0.119312
H132  H     H_    0.142753 0.080744 0.464732 0.119308
H133  H     H_    0.306791 0.434427 0.462641 0.119877
H134  H     H_    0.693035 0.434681 0.537347 0.119790
H135  H     H_    0.806776 0.934430 0.462650 0.119888
H136  H     H_    0.193023 0.934687 0.537347 0.119785
H137  H     H_    0.287228 0.427420 0.582353 0.107208
H138  H     H_    0.277740 0.759108 0.082821 0.101025
H139  H     H_    0.712561 0.427558 0.417666 0.107085
H140  H     H_    0.787204 0.927403 0.582358 0.107210
H141  H     H_    0.212552 0.927557 0.417666 0.107082
H142  H     H_    0.329246 0.447495 0.061432 0.127055
H143  H     H_    0.683692 0.425537 0.939510 0.132642
H144  H     H_    0.829247 0.947494 0.061431 0.127058
H145  H     H_    0.183692 0.925539 0.939510 0.132641
H146  H     H_    0.354687 0.594877 0.075846 0.110798
H147  H     H_    0.647220 0.564187 0.933831 0.106678
H148  H     H_    0.854687 0.094877 0.075846 0.110799
O1    O     O_R   0.214130 0.708570 0.829890 -0.543295
O2    O     O_R   0.542830 0.717300 0.331620 -0.538037
O3    O     O_R   0.957170 0.217300 0.668380 -0.537743
O4    O     O_R   0.042830 0.217300 0.331620 -0.538064
O5    O     O_R   0.320870 0.624890 0.673130 -0.515363
O6    O     O_R   0.679130 0.624890 0.326870 -0.516016
O7    O     O_R   0.820870 0.124890 0.673130 -0.515328
O8    O     O_R   0.179130 0.124890 0.326870 -0.516005
O9    O     O_3   0.334430 0.834430 0.749680 -0.289313
O10   O     O_3   0.665570 0.834430 0.250320 -0.285215
O11   O     O_3   0.834430 0.334430 0.749680 -0.289273
O12   O     O_R   0.785870 0.708570 0.170110 -0.543246
O13   O     O_3   0.165570 0.334430 0.250320 -0.285201
O14   O     O_R   0.236050 0.959150 0.825270 -0.516358
O15   O     O_R   0.763950 0.959150 0.174730 -0.514937
O16   O     O_R   0.736050 0.459150 0.825270 -0.516361
O17   O     O_R   0.263950 0.459150 0.174730 -0.514942
O18   O     O_R   0.332100 0.076650 0.832310 -0.534774
O19   O     O_R   0.667900 0.076650 0.167690 -0.535068
O20   O     O_R   0.832100 0.576650 0.832310 -0.534780
O21   O     O_R   0.167900 0.576650 0.167690 -0.535066
O22   O     O_R   0.446500 0.918620 0.826240 -0.504217
O23   O     O_R   0.714130 0.208570 0.829890 -0.543287
O24   O     O_R   0.553500 0.918620 0.173760 -0.503628
O25   O     O_R   0.946500 0.418620 0.826240 -0.504221
O26   O     O_R   0.053500 0.418620 0.173760 -0.503652
O27   O     O_R   0.457310 0.715830 0.831280 -0.525317
O28   O     O_R   0.542690 0.715830 0.168720 -0.525107
O29   O     O_R   0.957310 0.215830 0.831280 -0.525331
O30   O     O_R   0.042690 0.215830 0.168720 -0.525118
O31   O     O_R   0.321000 0.623520 0.824130 -0.518756
O32   O     O_R   0.679000 0.623520 0.175870 -0.518422
O33   O     O_R   0.821000 0.123520 0.824130 -0.518759
O34   O     O_R   0.285870 0.208570 0.170110 -0.543253
O35   O     O_R   0.179000 0.123520 0.175870 -0.518420
O36   O     O_R   0.213990 0.710040 0.667000 -0.524969
O37   O     O_R   0.786010 0.710040 0.333000 -0.525126
O38   O     O_R   0.713990 0.210040 0.667000 -0.524984
O39   O     O_R   0.286010 0.210040 0.333000 -0.525118
O40   O     O_R   0.235920 0.960520 0.674260 -0.512591
O41   O     O_R   0.764080 0.960520 0.325740 -0.513440
O42   O     O_R   0.735920 0.460520 0.674260 -0.512580
O43   O     O_R   0.264080 0.460520 0.325740 -0.513446
O44   O     O_R   0.331960 0.078120 0.669410 -0.533848
O45   O     O_R   0.446360 0.919990 0.675230 -0.485503
O46   O     O_R   0.668040 0.078120 0.330590 -0.534738
O47   O     O_R   0.831960 0.578120 0.669410 -0.533861
O48   O     O_R   0.168040 0.578120 0.330590 -0.534717
O49   O     O_R   0.553640 0.919990 0.324770 -0.486047
O50   O     O_R   0.946360 0.419990 0.675230 -0.485555
O51   O     O_R   0.053640 0.419990 0.324770 -0.486057
O52   O     O_R   0.457170 0.717300 0.668380 -0.537716

loop_
_geom_bond_atom_site_label_1
_geom_bond_atom_site_label_2
_ccdc_geom_bond_type
C116  H111  S    
Cr11  O51   S    
C77   H46   S    
C71   C137  S    
C23   C112  S    
C81   H26   S    
C14   C21   S    
C76   H17   S    
C5    O49   A    
C123  H123  S    
C54   C63   S    
Cr2   O6    S    
Cr2   O32   S    
C41   C42   A    
C30   H33   S    
C58   H9    S    
C88   O26   A    
C8    O36   A    
Cr12  O27   S    
C109  C127  S    
C70   C74   S    
C141  H132  S    
Cr9   O19   S    
Cr4   O8    S    
C118  H113  S    
Cr3   O11   S    
C69   C135  S    
C70   C136  S    
C84   H29   S    
C117  C139  S    
C118  C140  S    
C35   C134  S    
C21   C90   S    
C45   C47   A    
C139  H125  S    
C4    O45   A    
C86   O28   A    
C62   H127  S    
C117  H117  S    
C28   H31   S    
C57   C65   S    
Cr4   O13   S    
C68   O16   A    
C53   H7    S    
Cr2   O10   S    
C25   C88   S    
C17   C21   S    
C107  H98   S    
C19   C23   S    
C43   C44   A    
C37   C38   A    
C133  O31   A    
Cr10  O11   S    
C52   H54   S    
C129  H137  S    
C16   C20   S    
C59   H94   S    
C114  C131  S    
C24   H145  S    
C6    O50   A    
C92   H69   S    
C83   C100  S    
C108  H99   S    
C119  C141  S    
C61   H13   S    
C136  O33   A    
C53   C71   S    
C78   H56   S    
C111  H104  S    
C42   H43   S    
C138  H124  S    
C86   O24   A    
C3    O48   A    
C125  C138  S    
C56   H8    S    
C59   C63   S    
C111  H133  S    
C29   H32   S    
C60   C64   S    
C68   O20   A    
C115  H103  S    
C91   C94   S    
C137  O35   A    
C82   H27   S    
C95   C99   S    
C6    C102  S    
C140  H131  S    
Cr6   O42   S    
C127  C131  S    
C117  H112  S    
C83   H65   S    
C61   C65   S    
C35   H52   S    
C20   C25   S    
C106  C124  S    
C115  H136  S    
C94   C98   S    
C136  O23   A    
C103  C107  S    
C108  C126  S    
C91   H68   S    
C105  H87   S    
C110  C128  S    
C77   H18   S    
C84   C102  S    
C69   C77   S    
C79   O17   A    
C2    H143  S    
Cr10  O20   S    
C1    O18   A    
C142  O40   A    
Cr5   O10   S    
C31   H34   S    
C19   C123  S    
C103  H89   S    
C37   H39   S    
C62   C80   S    
C36   C37   A    
C51   H51   S    
C5    O2    A    
C15   C25   S    
C12   C22   S    
C67   C72   S    
C118  C122  S    
Cr3   O33   S    
C97   H74   S    
Cr7   O34   S    
C116  H115  S    
C17   H1    S    
C61   C78   S    
C61   H116  S    
C143  O46   A    
Cr8   O22   S    
Cr5   O41   S    
C40   H41   S    
C121  C144  S    
C122  C143  S    
C87   O25   A    
C92   C97   S    
C1    C66   S    
C131  H107  S    
C115  C132  S    
C126  C139  S    
C113  C130  S    
C62   C66   S    
C107  C125  S    
C39   C40   A    
Cr12  O31   S    
C16   H79   S    
C116  C120  S    
C139  H130  S    
Cr8   O9    S    
C141  H128  S    
C29   C30   A    
C125  C129  S    
C135  O12   A    
C83   C84   S    
C35   C67   S    
C58   H22   S    
C73   H16   S    
C144  O42   A    
C25   C123  S    
Cr11  O48   S    
C50   H50   S    
C16   C23   S    
C104  H90   S    
C78   H19   S    
Cr5   O37   S    
C127  C140  S    
Cr8   O44   S    
C85   O22   A    
C118  H118  S    
Cr5   O12   S    
Cr1   O1    S    
C105  C109  S    
C92   H84   S    
C18   C22   S    
C106  H88   S    
C89   H67   S    
C90   H120  S    
C39   C44   A    
C6    O3    A    
C143  O41   A    
C48   H48   S    
C109  H100  S    
C89   C98   S    
C84   H66   S    
C59   H138  S    
C57   O19   A    
C96   C100  S    
C15   H78   S    
Cr9   O49   S    
C38   H40   S    
C105  C122  S    
C34   C36   A    
C113  H106  S    
C55   C73   S    
C32   C95   S    
C113  C121  S    
C112  H122  S    
C49   C50   A    
C4    C99   S    
Cr3   O7    S    
C91   C99   S    
C59   C76   S    
C14   H77   S    
C52   H6    S    
C26   C94   S    
C72   H58   S    
Cr12  O5    S    
C82   C99   S    
C103  C120  S    
C55   H11   S    
Cr1   O36   S    
Cr7   O17   S    
C74   H12   S    
C24   H3    S    
Cr8   O45   S    
C15   C19   S    
C138  H129  S    
C26   C27   A    
C22   C101  S    
C101  H121  S    
C28   C29   A    
C4    O52   A    
C30   C31   A    
Cr5   O15   S    
C81   C98   S    
C126  C130  S    
C81   H63   S    
C54   H23   S    
C96   H75   S    
C35   H4    S    
C105  H91   S    
C20   C112  S    
C111  C129  S    
C46   H5    S    
C12   C17   S    
C13   H148  S    
C69   C73   S    
C43   H44   S    
C79   O21   A    
C2    H147  S    
C128  C141  S    
C97   C102  S    
C24   C66   S    
C132  H108  S    
Cr12  O9    S    
C54   H10   S    
C21   C85   S    
C56   C74   S    
C7    C100  S    
C18   C90   S    
C72   H15   S    
C89   H81   S    
Cr10  O25   S    
C112  C123  S    
Cr3   O29   S    
C13   C65   S    
C9    O6    A    
Cr11  O13   S    
C24   C53   S    
C130  H139  S    
C11   O8    A    
C89   C95   S    
C63   C134  S    
Cr11  O26   S    
Cr8   O18   S    
C137  O34   A    
C1    O14   A    
Cr12  O52   S    
C75   H14   S    
C50   C51   A    
C47   H47   S    
Cr9   O46   S    
C80   H57   S    
C7    O51   A    
C34   H37   S    
C48   C49   A    
C49   H49   S    
C42   C43   A    
C64   C68   S    
C104  C108  S    
C129  H109  S    
Cr6   O11   S    
C115  C124  S    
C9    O37   A    
C11   O39   A    
C93   C102  S    
Cr1   O14   S    
C46   H53   S    
C32   C33   A    
C36   H38   S    
C113  H134  S    
C62   H24   S    
C104  H86   S    
C83   H28   S    
C22   C86   S    
C119  H119  S    
C130  H110  S    
C8    C125  S    
C82   H64   S    
Cr2   O2    S    
C76   H35   S    
C73   H59   S    
Cr2   O28   S    
C106  H92   S    
C56   C65   S    
C88   O30   A    
C109  H96   S    
C70   C78   S    
C14   C18   S    
Cr4   O30   S    
C81   C82   S    
Cr4   O4    S    
C63   C79   S    
C119  C124  S    
C2    C46   S    
C10   O7    A    
C114  H135  S    
C33   H36   S    
C67   C133  S    
C60   H2    S    
Cr6   O38   S    
C134  H142  S    
C45   C51   A    
C110  H97   S    
Cr6   O16   S    
C15   C16   S    
C13   C52   S    
Cr3   O3    S    
Cr7   O13   S    
Cr4   O35   S    
C117  C121  S    
C10   O38   A    
C46   C69   S    
C17   C101  S    
C93   H70   S    
C58   C66   S    
Cr1   O9    S    
C135  O32   A    
Cr11  O21   S    
C8    O5    A    
C131  H140  S    
C32   C38   A    
Cr1   O40   S    
C26   C31   A    
C23   C87   S    
C124  C142  S    
C128  C132  S    
C71   C80   S    
C2    C64   S    
C58   C75   S    
C12   H76   S    
C116  C138  S    
C56   H21   S    
C60   C77   S    
C132  H141  S    
C107  H93   S    
C108  H95   S    
C80   H20   S    
C110  H101  S    
C3    C120  S    
C87   O29   A    
C104  C121  S    
C75   H62   S    
C91   H80   S    
C13   H144  S    
C111  C120  S    
C27   H30   S    
C19   H72   S    
C90   C101  S    
C47   C48   A    
C93   H82   S    
C53   H55   S    
C55   C64   S    
C33   C34   A    
C55   H25   S    
Cr7   O39   S    
C114  H102  S    
C133  O1    A    
C140  H126  S    
C40   C41   A    
C12   C14   S    
C7    O4    A    
C93   C96   S    
C44   H45   S    
C85   O27   A    
C10   C127  S    
Cr10  O47   S    
C92   C100  S    
C3    O43   A    
C106  C110  S    
C119  H114  S    
C74   H60   S    
C60   H105  S    
C41   H42   S    
C20   H83   S    
C9    C126  S    
C95   H71   S    
C11   C128  S    
Cr9   O24   S    
C45   C97   S    
C71   C75   S    
C142  O44   A    
Cr10  O50   S    
C103  H85   S    
C57   O15   A    
Cr7   O43   S    
C39   C96   S    
C52   C70   S    
Cr9   O10   S    
C114  C122  S    
Cr6   O23   S    
C54   C72   S    
C5    C98   S    
C27   C28   A    
C144  O47   A    
C67   C76   S    
C134  H146  S    
C18   H61   S    
C94   H73   S    
