data_mof_unit_34110.cif
_audit_creation_date              2012-12-11T14:40:09-0500
_audit_creation_method            fapswitch 2.2
_symmetry_space_group_name_H-M    P1
_symmetry_Int_Tables_number       1
_space_group_crystal_system       triclinic
_cell_length_a                    19.627385
_cell_length_b                    11.134195
_cell_length_c                    19.319715
_cell_angle_alpha                 90.325031
_cell_angle_beta                  96.644858
_cell_angle_gamma                 90.050346
_cell_volume                      4193.60234161

loop_
_atom_site_label
_atom_site_type_symbol
_atom_type_description
_atom_site_fract_x
_atom_site_fract_y
_atom_site_fract_z
_atom_type_partial_charge
C1    C     C_R   0.727546 0.946298 0.357248 0.568681
C2    C     C_R   0.272002 0.945927 0.643136 0.543145
C3    C     C_R   0.210157 0.492771 0.368101 0.511108
C4    C     C_R   0.773316 0.449128 0.641141 0.574847
C5    C     C_3   0.747263 0.267293 0.495061 -0.178573
C6    C     C_3   0.266321 0.280965 0.486999 -0.186229
C7    C     C_3   0.205436 0.779891 0.496011 -0.226012
C8    C     C_3   0.793727 0.769875 0.500125 -0.206642
C9    C     C_3   0.731641 0.360650 0.437603 -0.008774
C10   C     C_3   0.267700 0.345094 0.559045 -0.031934
C11   C     C_3   0.230711 0.859572 0.439687 0.006959
C12   C     C_3   0.769146 0.846657 0.559223 -0.029276
C13   C     C_3   0.679182 0.422721 0.479372 0.247572
C14   C     C_3   0.304907 0.453343 0.531848 0.254002
C15   C     C_3   0.201994 0.970577 0.473774 0.273755
C16   C     C_3   0.796533 0.959944 0.527630 0.241651
C17   C     C_3   0.737600 0.504272 0.513680 -0.177395
C18   C     C_3   0.235176 0.514576 0.509662 -0.206621
C19   C     C_3   0.273186 0.988803 0.516813 -0.134350
C20   C     C_3   0.724942 0.977617 0.485461 -0.163983
C21   C     C_3   0.788742 0.440669 0.470840 0.166747
C22   C     C_3   0.197977 0.404022 0.533612 0.165261
C23   C     C_3   0.300710 0.876419 0.483008 0.197937
C24   C     C_3   0.698561 0.862825 0.516299 0.194594
C25   C     C_3   0.804530 0.349315 0.528891 -0.064311
C26   C     C_3   0.197006 0.342286 0.463550 -0.066581
C27   C     C_3   0.277742 0.794751 0.539317 -0.151703
C28   C     C_3   0.721662 0.786358 0.456910 -0.117258
C29   C     C_3   0.752798 0.409738 0.570787 -0.004680
C30   C     C_3   0.232936 0.451022 0.438200 -0.016792
C31   C     C_3   0.250870 0.905960 0.573150 0.001176
C32   C     C_3   0.748249 0.901043 0.426256 0.008915
C33   C     C_3   0.479190 0.283384 0.983857 0.062316
C34   C     C_3   0.459949 0.209791 0.044785 0.080699
C35   C     C_3   0.042306 0.699357 0.954159 0.109120
C36   C     C_3   0.028453 0.780892 0.014436 0.048087
C37   C     C_3   0.553949 0.249106 0.001563 0.260738
C38   C     C_3   0.449211 0.097894 0.998904 0.256510
C39   C     C_3   0.047302 0.589521 0.001374 0.262730
C40   C     C_3   0.951859 0.759306 0.997502 0.220919
C41   C     C_3   0.535237 0.175413 0.063603 -0.002961
C42   C     C_3   0.467999 0.172649 0.936729 -0.005208
C43   C     C_3   0.033768 0.672093 0.062776 0.004744
C44   C     C_3   0.965352 0.677208 0.936376 -0.003861
C45   C     C_R   0.534069 0.179773 0.336620 0.550845
C46   C     C_R   0.436700 0.182903 0.652365 0.530490
C47   C     C_R   0.037023 0.681546 0.338918 0.551606
C48   C     C_R   0.966983 0.681086 0.664155 0.543984
C49   C     C_3   0.524835 0.061909 0.017738 -0.168074
C50   C     C_3   0.543938 0.136562 0.954738 -0.147089
C51   C     C_3   0.955992 0.648534 0.045566 -0.141935
C52   C     C_3   0.969971 0.565803 0.983470 -0.173930
C53   C     C_1   0.788262 0.491642 0.918577 0.039454
C54   C     C_1   0.249538 0.395260 0.105980 0.087211
C55   C     C_1   0.249790 0.896338 0.893843 0.091769
C56   C     C_1   0.711354 0.991457 0.081772 0.044138
C57   C     C_1   0.772265 0.462392 0.051001 0.085151
C58   C     C_1   0.271801 0.340688 0.978487 0.052872
C59   C     C_1   0.227285 0.841993 0.021232 0.078787
C60   C     C_1   0.728390 0.962085 0.949733 0.092666
C61   C     C_1   0.782319 0.483001 0.980174 0.060417
C62   C     C_1   0.263561 0.363641 0.049328 0.055273
C63   C     C_1   0.235497 0.865337 0.950427 0.060878
C64   C     C_1   0.717671 0.982747 0.020323 0.072342
C65   C     C_1   0.758282 0.428170 0.107246 0.118858
C66   C     C_1   0.275324 0.326587 0.916886 0.032489
C67   C     C_1   0.224222 0.827093 0.082832 0.059966
C68   C     C_1   0.742563 0.927747 0.893520 0.115327
C69   C     C_R   0.725205 0.316749 0.367611 0.549331
C70   C     C_R   0.275974 0.308964 0.632050 0.525454
C71   C     C_R   0.225208 0.816803 0.368232 0.545901
C72   C     C_R   0.775514 0.811714 0.632090 0.537263
C73   C     C_R   0.703351 0.000816 0.155001 0.536722
C74   C     C_R   0.275458 0.947853 0.833492 0.565682
C75   C     C_R   0.224418 0.447485 0.166515 0.574859
C76   C     C_R   0.796390 0.500653 0.845219 0.535680
C77   C     C_R   0.561979 0.182480 0.136489 0.563392
C78   C     C_R   0.439634 0.182072 0.864136 0.544212
C79   C     C_R   0.061097 0.681682 0.135948 0.548181
C80   C     C_R   0.938069 0.683069 0.863584 0.555138
C81   C     C_R   0.739103 0.366726 0.167985 0.581317
C82   C     C_R   0.278336 0.308080 0.843429 0.540111
C83   C     C_R   0.221670 0.808150 0.156372 0.539569
C84   C     C_R   0.761168 0.866513 0.832359 0.572092
C85   C     C_1   0.455308 0.172899 0.583727 0.095650
C86   C     C_1   0.504641 0.168975 0.399971 0.062824
C87   C     C_1   0.995304 0.679870 0.599909 0.065936
C88   C     C_1   0.021427 0.680779 0.408744 0.065268
C89   C     C_1   0.486715 0.164234 0.457047 0.072945
C90   C     C_1   0.469486 0.166770 0.525226 0.098052
C91   C     C_1   0.015822 0.685351 0.469763 0.034365
C92   C     C_1   0.009076 0.685172 0.541213 0.036153
C93   C     C_3   0.695371 0.330587 0.537248 0.079043
C94   C     C_3   0.301532 0.391656 0.460663 0.119977
C95   C     C_3   0.181023 0.891667 0.531674 0.116227
C96   C     C_3   0.818194 0.884786 0.467729 0.115901
Cr1   Cr    Cr6+3 0.765830 0.160660 0.268180 1.110032
Cr2   Cr    Cr6+3 0.234170 0.160660 0.731820 1.112326
Cr3   Cr    Cr6+3 0.265830 0.660660 0.268180 1.112491
Cr4   Cr    Cr6+3 0.734170 0.660660 0.731820 1.114175
Cr5   Cr    Cr6+3 0.612110 0.009150 0.248770 1.086807
Cr6   Cr    Cr6+3 0.387890 0.009150 0.751230 1.096101
Cr7   Cr    Cr6+3 0.112110 0.509150 0.248770 1.096308
Cr8   Cr    Cr6+3 0.887890 0.509150 0.751230 1.108635
Cr9   Cr    Cr6+3 0.615930 0.324050 0.248450 1.125646
Cr10  Cr    Cr6+3 0.384070 0.324050 0.751550 1.135529
Cr11  Cr    Cr6+3 0.115930 0.824050 0.248450 1.112583
Cr12  Cr    Cr6+3 0.884070 0.824050 0.751550 1.129848
H1    H     H_    0.763767 0.180327 0.478464 0.171824
H2    H     H_    0.281120 0.196814 0.463032 0.161857
H3    H     H_    0.167386 0.709137 0.478631 0.092966
H4    H     H_    0.827040 0.691719 0.512559 0.143434
H5    H     H_    0.307067 0.064805 0.534910 0.087150
H6    H     H_    0.687599 0.052402 0.477813 0.097872
H7    H     H_    0.726419 0.595773 0.529903 0.146847
H8    H     H_    0.220942 0.585685 0.544148 0.148985
H9    H     H_    0.857085 0.326594 0.552035 0.256239
H10   H     H_    0.148570 0.311671 0.434647 0.246237
H11   H     H_    0.307171 0.728660 0.572205 0.211238
H12   H     H_    0.691728 0.716254 0.425942 0.216461
H13   H     H_    0.544277 0.970644 0.031872 0.164079
H14   H     H_    0.579010 0.106689 0.916871 0.167668
H15   H     H_    0.919971 0.627648 0.084185 0.172409
H16   H     H_    0.945383 0.477335 0.970823 0.159568
O1    O     O_R   0.783230 0.287800 0.346510 -0.434936
O2    O     O_R   0.216770 0.287800 0.653490 -0.411446
O3    O     O_R   0.283230 0.787800 0.346510 -0.426220
O4    O     O_R   0.716770 0.787800 0.653490 -0.442214
O5    O     O_R   0.554500 0.081650 0.170370 -0.483545
O6    O     O_R   0.445500 0.081650 0.829630 -0.472815
O7    O     O_R   0.054500 0.581650 0.170370 -0.474693
O8    O     O_R   0.945500 0.581650 0.829630 -0.481988
O9    O     O_R   0.545430 0.285140 0.163100 -0.460454
O10   O     O_R   0.454570 0.285140 0.836900 -0.447873
O11   O     O_R   0.045430 0.785140 0.163100 -0.481567
O12   O     O_R   0.954570 0.785140 0.836900 -0.475316
O13   O     O_R   0.677850 0.374730 0.185500 -0.462179
O14   O     O_R   0.322150 0.374730 0.814500 -0.488968
O15   O     O_R   0.177850 0.874730 0.185500 -0.479752
O16   O     O_R   0.822150 0.874730 0.814500 -0.455964
O17   O     O_3   0.664630 0.164620 0.255130 -0.373176
O18   O     O_3   0.335370 0.164620 0.744870 -0.390601
O19   O     O_3   0.164630 0.664620 0.255130 -0.383404
O20   O     O_3   0.835370 0.664620 0.744870 -0.379669
O21   O     O_R   0.760130 0.037060 0.338610 -0.496279
O22   O     O_R   0.239870 0.037060 0.661390 -0.494084
O23   O     O_R   0.260130 0.537060 0.338610 -0.466517
O24   O     O_R   0.739870 0.537060 0.661390 -0.501483
O25   O     O_R   0.666620 0.921370 0.332440 -0.501466
O26   O     O_R   0.333380 0.921370 0.667560 -0.514532
O27   O     O_R   0.166620 0.421370 0.332440 -0.493041
O28   O     O_R   0.833380 0.421370 0.667560 -0.485276
O29   O     O_R   0.557170 0.082420 0.312350 -0.495146
O30   O     O_R   0.442830 0.082420 0.687650 -0.468005
O31   O     O_R   0.057170 0.582420 0.312350 -0.500904
O32   O     O_R   0.942830 0.582420 0.687650 -0.474075
O33   O     O_R   0.548310 0.285980 0.316250 -0.464776
O34   O     O_R   0.451690 0.285980 0.683750 -0.437667
O35   O     O_R   0.048310 0.785980 0.316250 -0.467726
O36   O     O_R   0.951690 0.785980 0.683750 -0.481089
O37   O     O_R   0.680520 0.375500 0.327470 -0.448376
O38   O     O_R   0.319480 0.375500 0.672530 -0.437829
O39   O     O_R   0.180520 0.875500 0.327470 -0.420876
O40   O     O_R   0.819480 0.875500 0.672530 -0.417683
O41   O     O_R   0.780350 0.286970 0.193350 -0.508589
O42   O     O_R   0.219650 0.286970 0.806650 -0.453395
O43   O     O_R   0.280350 0.786970 0.193350 -0.461471
O44   O     O_R   0.719650 0.786970 0.806650 -0.515667
O45   O     O_R   0.757460 0.036290 0.196640 -0.458593
O46   O     O_R   0.242540 0.036290 0.803360 -0.522640
O47   O     O_R   0.257460 0.536290 0.196640 -0.522145
O48   O     O_R   0.742540 0.536290 0.803360 -0.455788
O49   O     O_R   0.663740 0.920540 0.179290 -0.491617
O50   O     O_R   0.336260 0.920540 0.820710 -0.455046
O51   O     O_R   0.163740 0.420540 0.179290 -0.445326
O52   O     O_R   0.836260 0.420540 0.820710 -0.479505
N1    N     N_3   0.645298 0.270344 0.574795 -0.539567
H17   H     H_    0.614491 0.218925 0.538244 0.256602
H18   H     H_    0.672110 0.210097 0.609136 0.277620
N2    N     N_3   0.357458 0.387425 0.417461 -0.531145
H19   H     H_    0.397476 0.342139 0.446034 0.250467
H20   H     H_    0.341553 0.333414 0.374168 0.244024
N3    N     N_3   0.118238 0.903145 0.564566 -0.540053
H21   H     H_    0.076831 0.893081 0.526033 0.261270
H22   H     H_    0.117041 0.832011 0.599413 0.226665
N4    N     N_3   0.882424 0.898141 0.437530 -0.533506
H23   H     H_    0.921870 0.870889 0.474941 0.232608
H24   H     H_    0.881530 0.838269 0.395648 0.269805
S1    S     S_3+6 0.600276 0.496061 0.449422 0.059746
O53   O     O_2   0.587744 0.592694 0.500398 -0.185987
O54   O     O_2   0.604567 0.551625 0.379372 -0.260556
O55   O     O_3   0.533670 0.402580 0.444481 -0.533047
H25   H     H_    0.495253 0.449193 0.420155 0.398991
S2    S     S_3+6 0.383890 0.524527 0.566945 0.033799
O56   O     O_2   0.399724 0.622455 0.518729 -0.223630
O57   O     O_2   0.378545 0.576858 0.637989 -0.276626
O58   O     O_3   0.449194 0.427331 0.571543 -0.514143
H26   H     H_    0.490634 0.475943 0.586517 0.414166
S3    S     S_3+6 0.136065 0.061477 0.430804 0.018419
O59   O     O_2   0.109286 0.141898 0.484009 -0.239039
O60   O     O_2   0.163153 0.130920 0.373366 -0.290758
O61   O     O_3   0.070767 0.974748 0.396585 -0.510390
H27   H     H_    0.034083 0.031596 0.378992 0.384492
S4    S     S_3+6 0.859562 0.060327 0.570026 0.035581
O62   O     O_2   0.888686 0.134389 0.515623 -0.267352
O63   O     O_2   0.827587 0.139251 0.620636 -0.262231
O64   O     O_3   0.924481 0.984014 0.613539 -0.461458
H28   H     H_    0.960794 0.979939 0.582020 0.357978
S5    S     S_3+6 0.861990 0.494705 0.434098 0.039388
O65   O     O_2   0.889209 0.406331 0.385280 -0.158428
O66   O     O_2   0.847816 0.611582 0.396949 -0.318216
O67   O     O_3   0.921768 0.509238 0.502189 -0.465095
H29   H     H_    0.897059 0.530861 0.542301 0.301052
S6    S     S_3+6 0.115569 0.414063 0.566290 0.086488
O68   O     O_2   0.095202 0.297673 0.597164 -0.130019
O69   O     O_2   0.117622 0.511786 0.620387 -0.285720
O70   O     O_3   0.055554 0.443796 0.499622 -0.420632
H30   H     H_    0.080645 0.473107 0.461536 0.304200
S7    S     S_3+6 0.384465 0.885363 0.455638 0.091663
O71   O     O_2   0.403941 0.773681 0.418717 -0.131670
O72   O     O_2   0.385017 0.989192 0.406535 -0.289222
O73   O     O_3   0.441279 0.909189 0.526293 -0.450522
H31   H     H_    0.429876 0.849434 0.560933 0.381638
S8    S     S_3+6 0.612105 0.869754 0.538110 0.100049
O74   O     O_2   0.596173 0.771402 0.586572 -0.148265
O75   O     O_2   0.600545 0.988325 0.572283 -0.307246
O76   O     O_3   0.559017 0.857472 0.463663 -0.379001
H32   H     H_    0.569348 0.928173 0.435815 0.339905
S9    S     S_3+6 0.622936 0.344288 0.992051 -0.002054
O77   O     O_2   0.686833 0.270671 0.007535 -0.335767
O78   O     O_2   0.618257 0.388423 0.918249 -0.240318
O79   O     O_3   0.620599 0.461168 0.047219 -0.532472
H33   H     H_    0.595480 0.525274 0.019636 0.364104
S10   S     S_3+6 0.381857 0.998460 0.007681 -0.011426
O80   O     O_2   0.316372 0.065418 0.987009 -0.392381
O81   O     O_2   0.388464 0.891256 0.961506 -0.247407
O82   O     O_3   0.385438 0.953052 0.090960 -0.472021
H34   H     H_    0.351095 0.002254 0.111986 0.363864
S11   S     S_3+6 0.111168 0.482858 0.992962 0.001583
O83   O     O_2   0.178218 0.548240 0.007523 -0.390017
O84   O     O_2   0.105603 0.383059 0.043882 -0.239360
O85   O     O_3   0.102586 0.426029 0.911535 -0.467201
H35   H     H_    0.129789 0.479654 0.884560 0.371096
S12   S     S_3+6 0.886614 0.863182 0.006943 -0.014647
O86   O     O_2   0.821398 0.791572 0.001039 -0.329767
O87   O     O_2   0.897798 0.921432 0.077713 -0.253690
O88   O     O_3   0.885104 0.968584 0.944924 -0.507873
H36   H     H_    0.929899 0.010113 0.953935 0.349365
N5    N     N_3   0.456501 0.405538 0.967120 -0.542460
H37   H     H_    0.471280 0.459219 0.010811 0.246527
H38   H     H_    0.403129 0.405362 0.960187 0.218904
N6    N     N_3   0.415524 0.248201 0.096354 -0.567029
H39   H     H_    0.415182 0.341982 0.097879 0.232161
H40   H     H_    0.365820 0.219826 0.079750 0.250038
N7    N     N_3   0.087714 0.725499 0.901360 -0.570660
H41   H     H_    0.137822 0.708144 0.922533 0.253772
H42   H     H_    0.084639 0.817258 0.890536 0.242815
N8    N     N_3   0.061645 0.897153 0.028605 -0.611623
H43   H     H_    0.053080 0.948031 0.983186 0.234143
H44   H     H_    0.036391 0.941585 0.065940 0.294977

loop_
_geom_bond_atom_site_label_1
_geom_bond_atom_site_label_2
_ccdc_geom_bond_type
C58   C62   S    
S2    O57   D    
N7    H42   S    
Cr1   O21   S    
C67   C83   S    
C51   H15   S    
C80   O8    A    
Cr4   O48   S    
Cr5   O5    S    
C17   C29   S    
C14   C18   S    
Cr5   O49   S    
C35   C36   S    
C8    C96   S    
Cr2   O22   S    
C44   C80   S    
C19   C31   S    
S8    O74   D    
C83   O15   A    
S4    O63   D    
C7    C27   S    
Cr8   O52   S    
C38   C49   S    
C47   O35   A    
C10   C22   S    
C15   C19   S    
C48   O36   A    
C16   S4    S    
C17   H7    S    
N5    H37   S    
C77   O9    A    
C2    O26   A    
C72   O4    A    
C33   C42   S    
C15   C95   S    
Cr3   O19   S    
C16   C20   S    
S11   O83   D    
C9    C69   S    
Cr12  O12   S    
S9    O79   S    
C40   S12   S    
N3    H22   S    
C41   C77   S    
C35   C39   S    
S6    O69   D    
Cr10  O14   S    
S2    O58   S    
S7    O72   D    
C19   H5    S    
C43   C79   S    
C46   O34   A    
S5    O67   S    
C13   S1    S    
S12   O86   D    
C53   C61   T    
S1    O54   D    
C12   C24   S    
C39   S11   S    
C57   C61   S    
C76   O48   A    
C9    C13   S    
C7    C11   S    
Cr11  O11   S    
C82   O14   A    
Cr5   O25   S    
C59   C67   T    
C55   C74   S    
C11   C15   S    
C58   C66   T    
Cr9   O33   S    
C12   C16   S    
S1    O55   S    
C21   S5    S    
C6    C94   S    
C55   C63   T    
S3    O61   S    
C7    H3    S    
C56   C64   T    
C1    O25   A    
C18   C30   S    
C36   N8    S    
C20   H6    S    
C38   S10   S    
Cr6   O30   S    
C4    C29   S    
C91   C92   S    
C47   O31   A    
Cr7   O27   S    
C46   C85   S    
C70   O2    A    
S2    O56   D    
C14   S2    S    
C69   O1    A    
S3    O59   D    
O67   H29   S    
C34   C38   S    
O82   H34   S    
Cr2   O18   S    
N4    H24   S    
C35   N7    S    
C6    H2    S    
C71   O3    A    
O58   H26   S    
C34   C41   S    
S10   O81   D    
C37   S9    S    
C46   O30   A    
C70   O38   A    
C41   C49   S    
C29   C93   S    
N2    H20   S    
Cr10  O18   S    
Cr3   O43   S    
C24   S8    S    
C25   C29   S    
C49   H13   S    
C4    O28   A    
S5    O65   D    
C23   S7    S    
N5    H38   S    
C16   C96   S    
O61   H27   S    
C27   C31   S    
C51   C52   S    
C68   C84   S    
C96   N4    S    
C36   C40   S    
C76   O52   A    
C45   O33   A    
Cr1   O1    S    
C21   C25   S    
C28   H12   S    
C18   H8    S    
S7    O71   D    
Cr12  O16   S    
C93   N1    S    
S6    O68   D    
Cr3   O3    S    
C54   C62   T    
N1    H18   S    
Cr5   O29   S    
C39   C43   S    
C83   O43   A    
S6    O70   S    
C1    C32   S    
C17   C21   S    
O64   H28   S    
C13   C93   S    
C2    C31   S    
S10   O82   S    
C3    C30   S    
C81   O13   A    
N3    H21   S    
C5    C9    S    
S9    O77   D    
C84   O44   A    
C66   C82   S    
Cr12  O40   S    
C73   O49   A    
Cr10  O10   S    
C65   C81   S    
O76   H32   S    
C95   N3    S    
S4    O64   S    
C28   C32   S    
C8    C12   S    
C79   O7    A    
Cr11  O35   S    
Cr7   O51   S    
C33   C34   S    
C72   O40   A    
C48   C87   S    
S11   O84   D    
C77   O5    A    
S4    O62   D    
C33   N5    S    
C35   C44   S    
C78   O10   A    
Cr1   O17   S    
Cr2   O42   S    
Cr6   O6    S    
C71   O39   A    
C42   C50   S    
C5    C25   S    
C10   C70   S    
Cr7   O31   S    
C32   C96   S    
Cr6   O26   S    
C42   C78   S    
C89   C90   S    
C23   C27   S    
C22   S6    S    
Cr4   O20   S    
C8    C28   S    
C49   C50   S    
Cr9   O37   S    
Cr8   O32   S    
C53   C76   S    
C45   O29   A    
S10   O80   D    
Cr11  O19   S    
N7    H41   S    
C9    C21   S    
S8    O76   S    
N8    H44   S    
Cr12  O20   S    
C79   O11   A    
N2    H19   S    
C19   C23   S    
N6    H40   S    
C20   C32   S    
Cr2   O2    S    
C25   H9    S    
S1    O53   D    
Cr7   O19   S    
C75   O51   A    
Cr3   O23   S    
C20   C24   S    
C56   C73   S    
O85   H35   S    
Cr4   O4    S    
Cr9   O9    S    
Cr5   O17   S    
Cr7   O7    S    
C12   C72   S    
C24   C28   S    
C69   O37   A    
C3    O27   A    
C86   C89   T    
S8    O75   D    
C44   C52   S    
C6    C10   S    
C5    C93   S    
C85   C90   T    
S12   O88   S    
C74   O50   A    
Cr6   O50   S    
Cr12  O36   S    
C27   H11   S    
C2    O22   A    
C40   C51   S    
C7    C95   S    
C94   N2    S    
C75   O47   A    
C59   C63   S    
C80   O12   A    
C26   H10   S    
C60   C64   S    
Cr4   O44   S    
C82   O42   A    
O55   H25   S    
Cr8   O28   S    
C18   C22   S    
C45   C86   S    
C78   O6    A    
Cr1   O45   S    
C30   C94   S    
Cr10  O34   S    
C3    O23   A    
C47   C88   S    
S7    O73   S    
Cr9   O17   S    
C37   C50   S    
C52   H16   S    
C43   C51   S    
C6    C26   S    
C88   C91   T    
C5    H1    S    
Cr4   O24   S    
C31   C95   S    
O70   H30   S    
C11   C23   S    
O79   H33   S    
S5    O66   D    
C8    H4    S    
S12   O87   D    
C15   S3    S    
C39   C52   S    
S11   O85   S    
C11   C71   S    
Cr10  O38   S    
C37   C41   S    
O73   H31   S    
C48   O32   A    
Cr8   O8    S    
C33   C37   S    
C74   O46   A    
C60   C68   T    
Cr8   O20   S    
Cr9   O13   S    
C13   C17   S    
Cr2   O46   S    
C38   C42   S    
C40   C44   S    
Cr3   O47   S    
C50   H14   S    
C84   O16   A    
S9    O78   D    
N1    H17   S    
C22   C26   S    
N8    H43   S    
Cr1   O41   S    
S3    O60   D    
C81   O41   A    
N6    H39   S    
C36   C43   S    
C34   N6    S    
Cr11  O39   S    
Cr6   O18   S    
N4    H23   S    
C87   C92   T    
C73   O45   A    
C1    O21   A    
C14   C94   S    
Cr11  O15   S    
O88   H36   S    
C10   C14   S    
C54   C75   S    
C57   C65   T    
C26   C30   S    
C4    O24   A    
