data_mof_unit_66616.cif
_audit_creation_date              2012-12-11T18:17:44-0500
_audit_creation_method            fapswitch 2.2
_symmetry_space_group_name_H-M    P1
_symmetry_Int_Tables_number       1
_space_group_crystal_system       triclinic
_cell_length_a                    8.353121
_cell_length_b                    14.603011
_cell_length_c                    15.048474
_cell_angle_alpha                 94.98764
_cell_angle_beta                  97.659604
_cell_angle_gamma                 91.610103
_cell_volume                      1810.89186083

loop_
_atom_site_label
_atom_site_type_symbol
_atom_type_description
_atom_site_fract_x
_atom_site_fract_y
_atom_site_fract_z
_atom_type_partial_charge
Ba1   Ba    Ba6+2 0.833410 0.543320 0.453520 1.646197
Ba2   Ba    Ba6+2 0.356410 0.456750 0.546480 1.648707
C1    C     C_3   0.445492 0.859759 0.144432 -0.052409
C2    C     C_3   0.429162 0.762043 0.173962 0.234197
C3    C     C_3   0.444156 0.323140 0.280456 0.289645
C4    C     C_3   0.361945 0.286912 0.186753 -0.213570
C5    C     C_3   0.206866 0.198261 0.837944 0.474264
C6    C     C_3   0.332599 0.137036 0.886443 -0.358106
C7    C     C_3   0.605511 0.217473 0.737544 0.329854
C8    C     C_3   0.617938 0.116863 0.757817 -0.452988
C9    C     C_R   0.347431 0.552474 0.167509 -0.018513
C10   C     C_R   0.110500 0.475409 0.208283 0.062748
C11   C     C_R   0.925048 0.485550 0.769141 -0.175390
C12   C     C_3   0.994455 0.723822 0.197135 0.284802
C13   C     C_R   0.834858 0.450416 0.830745 0.052941
C14   C     C_R   0.893089 0.460848 0.922952 -0.178409
C15   C     C_R   0.047377 0.502918 0.955247 0.022830
C16   C     C_R   0.135638 0.542029 0.890711 -0.022275
C17   C     C_R   0.117630 0.506350 0.049020 0.013230
C18   C     C_R   0.275701 0.547678 0.075582 -0.028019
C19   C     C_R   0.357459 0.585083 0.010285 -0.104517
C20   C     C_R   0.286679 0.585266 0.921296 -0.030802
C21   C     C_R   0.038940 0.468347 0.117201 -0.148790
C22   C     C_R   0.261637 0.519293 0.232128 -0.285218
C23   C     C_3   0.932902 0.739102 0.099389 -0.225525
C24   C     C_R   0.072148 0.534145 0.796719 -0.018746
C25   C     C_R   0.702199 0.934604 0.542923 -0.049794
C26   C     C_R   0.508328 0.798817 0.500652 0.060121
C27   C     C_R   0.355836 0.764382 0.458555 -0.239435
C28   C     C_R   0.245980 0.822369 0.417346 0.008344
C29   C     C_R   0.288884 0.913429 0.415061 -0.171718
C30   C     C_R   0.440910 0.951723 0.456900 -0.015792
C31   C     C_R   0.552065 0.894631 0.501174 -0.039704
C32   C     C_R   0.633877 0.086813 0.494061 -0.090997
C33   C     C_R   0.744971 0.029896 0.542491 0.020693
C34   C     C_3   0.079312 0.752445 0.701092 0.203107
C35   C     C_R   0.679573 0.182476 0.492019 -0.044441
C36   C     C_R   0.825390 0.218012 0.538297 -0.243973
C37   C     C_R   0.930398 0.165858 0.589519 0.062640
C38   C     C_R   0.894311 0.070069 0.591607 -0.014051
C39   C     C_R   0.482197 0.045431 0.452009 -0.044858
C40   C     C_3   0.051220 0.792931 0.793893 -0.363159
C41   C     C_3   0.945331 0.256410 0.344405 0.318916
C42   C     C_3   0.920260 0.152293 0.317957 -0.191543
C43   C     C_3   0.682613 0.667602 0.726505 0.372861
C44   C     C_3   0.648555 0.694338 0.822004 -0.365524
H1    H     H_    0.383986 0.764921 0.240473 -0.010761
H2    H     H_    0.029661 0.736562 0.836270 0.132056
H3    H     H_    0.158711 0.835794 0.826226 0.149089
H4    H     H_    0.944485 0.836672 0.788097 0.104545
H5    H     H_    0.830274 0.286558 0.356803 0.026569
H6    H     H_    0.033756 0.267436 0.406846 0.051774
H7    H     H_    0.911699 0.117244 0.379848 0.073827
H8    H     H_    0.026696 0.124460 0.290799 0.136566
H9    H     H_    0.804396 0.640753 0.730306 -0.126495
H10   H     H_    0.597753 0.611241 0.696385 0.106353
H11   H     H_    0.739943 0.746573 0.856823 0.119558
H12   H     H_    0.652892 0.632877 0.860704 0.068460
H13   H     H_    0.527296 0.723838 0.820242 0.130441
H14   H     H_    0.336692 0.725187 0.123343 0.009378
H15   H     H_    0.323149 0.880217 0.117802 0.035788
H16   H     H_    0.349206 0.348701 0.320376 0.039704
H17   H     H_    0.530575 0.380889 0.274888 0.037930
H18   H     H_    0.274027 0.336785 0.161979 0.051820
H19   H     H_    0.453247 0.281056 0.139864 0.078135
H20   H     H_    0.456419 0.162130 0.884128 0.154178
H21   H     H_    0.324172 0.135645 0.958382 0.075877
H22   H     H_    0.317412 0.064884 0.855357 0.107523
H23   H     H_    0.707405 0.233024 0.701058 0.054879
H24   H     H_    0.491853 0.224382 0.691473 0.094569
H25   H     H_    0.689755 0.079215 0.711382 0.081031
H26   H     H_    0.496773 0.081664 0.747098 0.134989
H27   H     H_    0.912633 0.670009 0.216054 0.127019
H28   H     H_    0.677577 0.110541 0.827172 0.142265
H29   H     H_    0.316573 0.524215 0.301775 0.063571
H30   H     H_    0.477759 0.616148 0.027364 0.089556
H31   H     H_    0.923400 0.431827 0.101698 0.085222
H32   H     H_    0.877186 0.476898 0.698333 0.065924
H33   H     H_    0.816937 0.433038 0.967289 0.074181
H34   H     H_    0.354363 0.618268 0.876212 0.094243
H35   H     H_    0.320608 0.692676 0.459833 0.077043
H36   H     H_    0.198343 0.953422 0.379845 0.108841
H37   H     H_    0.118215 0.697818 0.201579 -0.064328
H38   H     H_    0.854915 0.290802 0.538565 0.062250
H39   H     H_    0.786210 0.889991 0.574930 0.105490
H40   H     H_    0.945554 0.675004 0.055827 0.074159
H41   H     H_    0.803055 0.753488 0.092708 0.115972
H42   H     H_    0.098246 0.809304 0.659266 0.047806
H43   H     H_    0.973280 0.712490 0.666220 0.086419
O1    O     O_2   0.841250 0.444240 0.280450 -0.470586
O2    O     O_3   0.673093 0.745829 0.678019 -0.648600
O3    O     O_3   0.992588 0.805643 0.253937 -0.634450
O4    O     O_2   0.348460 0.555790 0.719610 -0.462991
O5    O     O_3   0.076820 0.552690 0.606290 -0.480416
O6    O     O_3   0.591740 0.384320 0.672310 -0.488313
O7    O     O_3   0.218567 0.701460 0.707816 -0.616761
O8    O     O_3   0.629090 0.386360 0.459240 -0.475134
O9    O     O_3   0.172500 0.335240 0.628910 -0.442565
O10   O     O_2   0.979640 0.288470 0.728543 -0.585318
O11   O     O_3   0.224596 0.181513 0.744456 -0.639884
O12   O     O_3   0.112870 0.447390 0.393710 -0.491671
O13   O     O_3   0.560600 0.613720 0.540760 -0.494355
O14   O     O_2   0.387470 0.270310 0.467210 -0.458572
O15   O     O_3   0.526712 0.250723 0.318593 -0.667771
O16   O     O_2   0.502488 0.448110 0.825889 -0.512395
O17   O     O_3   0.609513 0.278250 0.816806 -0.626239
O18   O     O_3   0.597960 0.615760 0.327700 -0.461330
O19   O     O_2   0.684697 0.551129 0.171527 -0.502737
O20   O     O_3   0.007160 0.297151 0.275079 -0.656471
O21   O     O_3   0.577674 0.717785 0.177562 -0.616031
O22   O     O_2   0.802240 0.729720 0.532850 -0.482116
O23   O     O_3   0.017190 0.664840 0.371090 -0.481447
O24   O     O_2   0.911550 0.827222 0.416886 -0.489256
P1    P     P_3+3 0.018620 0.416870 0.295980 0.957178
P2    P     P_3+3 0.635650 0.716500 0.560900 0.970946
P3    P     P_3+3 0.042205 0.781479 0.366365 0.940593
P4    P     P_3+3 0.171070 0.583210 0.704020 0.982683
P5    P     P_3+3 0.088080 0.236589 0.667265 0.891108
P6    P     P_3+3 0.550397 0.606677 0.210149 0.930048
P7    P     P_3+3 0.559007 0.270899 0.435167 0.915625
P8    P     P_3+3 0.636660 0.391809 0.788603 0.930791
C45   C     C_3   0.771336 0.121062 0.249807 -0.221108
C46   C     C_3   0.730494 0.178272 0.170120 -0.293543
H44   H     H_    0.611312 0.153684 0.133300 0.106175
H45   H     H_    0.726199 0.252533 0.191590 0.151878
H46   H     H_    0.815312 0.167115 0.120795 0.115903
H47   H     H_    0.793109 0.050916 0.220883 0.136727
H48   H     H_    0.666012 0.115839 0.286514 0.123152
C47   C     C_3   0.501546 0.931246 0.224097 -0.255511
C48   C     C_3   0.654763 0.906092 0.282569 -0.272432
H49   H     H_    0.632818 0.843300 0.316350 0.161839
H50   H     H_    0.752343 0.894834 0.240516 0.196334
H51   H     H_    0.694321 0.962421 0.335735 0.090362
H52   H     H_    0.518267 0.998878 0.198102 0.124776
H53   H     H_    0.403007 0.938546 0.265993 0.077186
C49   C     C_3   0.277767 0.192771 0.189895 -0.141677
C50   C     C_3   0.132578 0.171832 0.119494 -0.450908
H54   H     H_    0.052773 0.230997 0.119527 0.162051
H55   H     H_    0.169891 0.157952 0.053161 0.136579
H56   H     H_    0.067473 0.108680 0.133913 0.132363
H57   H     H_    0.364156 0.137181 0.183367 0.109201
H58   H     H_    0.233553 0.192684 0.255401 0.162611
C51   C     C_2   0.542897 0.862502 0.066822 0.542716
H59   H     H_    0.511804 0.813853 0.007816 -0.013584
O25   O     O_2   0.654315 0.918835 0.068241 -0.622107
C52   C     C_2   0.020432 0.817809 0.067258 0.485102
H60   H     H_    0.015882 0.886733 0.100008 0.059023
O26   O     O_2   0.095564 0.805251 0.003429 -0.636086
C53   C     C_3   0.249738 0.302577 0.867390 -0.087614
C54   C     C_3   0.351772 0.326806 0.959012 -0.477215
H61   H     H_    0.287436 0.302534 0.011939 0.119708
H62   H     H_    0.473418 0.297989 0.963232 0.159567
H63   H     H_    0.370790 0.402065 0.971256 0.157969
H64   H     H_    0.313978 0.329238 0.815481 0.184813
H65   H     H_    0.140866 0.343516 0.865998 0.101149
C55   C     C_3   0.036372 0.162417 0.859267 -0.172782
C56   C     C_3   0.948696 0.226241 0.921205 -0.446726
H66   H     H_    0.030195 0.263822 0.976350 0.111815
H67   H     H_    0.887528 0.278078 0.882103 0.181976
H68   H     H_    0.856320 0.186625 0.950369 0.135335
H69   H     H_    0.951065 0.146413 0.797102 0.115227
H70   H     H_    0.045610 0.095214 0.888920 0.081873
C57   C     C_3   0.010939 0.013144 0.648485 -0.236640
C58   C     C_3   0.147510 0.981615 0.597915 -0.381933
H71   H     H_    0.096855 0.932182 0.540682 0.148964
H72   H     H_    0.208054 0.041238 0.573365 0.166022
H73   H     H_    0.239115 0.947493 0.642850 0.106378
H74   H     H_    0.063830 0.051003 0.711230 0.133400
H75   H     H_    0.952122 0.954487 0.674478 0.081765
C59   C     C_2   0.366454 0.094322 0.394944 0.499177
H76   H     H_    0.390433 0.102444 0.327966 -0.036532
O27   O     O_2   0.239052 0.116640 0.420158 -0.637527

loop_
_geom_bond_atom_site_label_1
_geom_bond_atom_site_label_2
_ccdc_geom_bond_type
C34   H43   S    
C6    H20   S    
Ba1   O1    S    
C43   H9    S    
C44   H13   S    
C32   C35   A    
C1    C47   S    
C34   C40   S    
C57   C58   S    
C16   C24   A    
C24   P4    S    
C53   H64   S    
C9    P6    S    
C46   H44   S    
C28   P3    S    
C43   C44   S    
C25   C31   A    
C50   H55   S    
C10   C21   A    
C56   H66   S    
C29   H36   S    
C3    C4    S    
C26   C27   A    
C35   C36   A    
C7    H23   S    
C32   C33   A    
Ba1   O23   S    
C36   C37   A    
O5    P4    S    
C41   H6    S    
C46   H45   S    
C59   H76   S    
Ba2   O13   S    
C51   H59   S    
C9    C22   A    
C23   H41   S    
C3    H17   S    
Ba1   Ba2   S    
C4    H18   S    
C45   H47   S    
C25   H39   S    
C4    C49   S    
O13   P2    S    
C47   H53   S    
C42   H7    S    
C4    H19   S    
C5    C55   S    
C17   C18   A    
C43   H10   S    
C14   C15   A    
C54   H63   S    
C49   H58   S    
C30   C39   A    
C23   C52   S    
C27   C28   A    
C7    C8    S    
C52   O26   D    
Ba2   O4    S    
O24   P3    D    
C8    H25   S    
O6    P8    S    
C3    O15   S    
C55   H70   S    
C56   H67   S    
C5    C53   S    
C19   C20   A    
C44   H12   S    
O12   P1    S    
O19   P6    D    
C32   C39   A    
O4    P4    D    
C12   H37   S    
C57   H75   S    
O18   P6    S    
Ba2   P4    S    
O9    P5    S    
C10   P1    S    
C1    H15   S    
C50   H56   S    
C9    C18   A    
C5    O11   S    
C52   H60   S    
C12   H27   S    
O7    P4    S    
Ba2   O5    S    
C1    C51   S    
C7    H24   S    
Ba2   O8    S    
C38   C57   S    
Ba1   O8    S    
C37   C38   A    
Ba1   O5    S    
C46   H46   S    
Ba2   O12   S    
C25   C33   A    
C7    O17   S    
C34   H42   S    
C55   C56   S    
C17   C21   A    
C41   C42   S    
C27   H35   S    
C49   H57   S    
C26   P2    S    
C34   O7    S    
C48   H49   S    
C29   C30   A    
C19   H30   S    
C2    H14   S    
C15   C16   A    
O16   P8    D    
C40   H2    S    
C21   H31   S    
O3    P3    S    
C12   O3    S    
O20   P1    S    
C40   H4    S    
Ba1   O18   S    
C55   H69   S    
C6    H22   S    
C56   H68   S    
C11   C13   A    
C44   H11   S    
C54   H62   S    
C11   C24   A    
C48   H51   S    
O11   P5    S    
Ba1   P1    S    
C1    C2    S    
Ba1   O12   S    
O23   P3    S    
C47   C48   S    
C39   C59   S    
C51   O25   D    
C2    O21   S    
C11   H32   S    
C58   H71   S    
C13   P8    S    
C36   H38   S    
C16   C20   A    
C58   H73   S    
C49   C50   S    
Ba2   O6    S    
O21   P6    S    
C26   C31   A    
C22   H29   S    
C37   P5    S    
C41   O20   S    
C50   H54   S    
C10   C22   A    
C48   H50   S    
C30   C31   A    
C14   H33   S    
O8    P7    S    
C58   H72   S    
C57   H74   S    
C53   H65   S    
C20   H34   S    
C53   C54   S    
Ba1   O22   S    
O10   P5    D    
C8    H28   S    
C41   H5    S    
C28   C29   A    
C35   P7    S    
C59   O27   D    
Ba2   O14   S    
O17   P8    S    
C42   C45   S    
C23   H40   S    
C15   C17   A    
O14   P7    D    
O2    P2    S    
C3    H16   S    
C33   C38   A    
O1    P1    D    
C12   C23   S    
C45   H48   S    
C43   O2    S    
C5    C6    S    
C40   H3    S    
C47   H52   S    
C42   H8    S    
C18   C19   A    
Ba2   O9    S    
C6    H21   S    
C54   H61   S    
O22   P2    D    
Ba1   P2    S    
C45   C46   S    
Ba1   O13   S    
C13   C14   A    
O15   P7    S    
C2    H1    S    
C8    H26   S    
