data_mof_unit_19967.cif
_audit_creation_date              2012-10-26T21:19:42-0400
_audit_creation_method            fapswitch 2.2
_symmetry_space_group_name_H-M    P1
_symmetry_Int_Tables_number       1
_space_group_crystal_system       triclinic
_cell_length_a                    10.834278
_cell_length_b                    15.095432
_cell_length_c                    13.853697
_cell_angle_alpha                 89.773827
_cell_angle_beta                  90.205211
_cell_angle_gamma                 90.141269
_cell_volume                      2265.70692325

loop_
_atom_site_label
_atom_site_type_symbol
_atom_type_description
_atom_site_fract_x
_atom_site_fract_y
_atom_site_fract_z
_atom_type_partial_charge
C1    C     C_R   0.499803 0.330022 0.500261 0.540201
C2    C     C_R   0.461134 0.811873 0.413939 -0.138436
C3    C     C_R   0.494715 0.233874 0.501170 -0.015140
C4    C     C_R   0.495926 0.767186 0.498602 -0.012439
C5    C     C_R   0.564282 0.185596 0.435261 -0.126096
C6    C     C_R   0.523556 0.815274 0.582053 -0.114819
C7    C     C_R   0.557855 0.093818 0.435601 -0.100727
C8    C     C_R   0.516645 0.907096 0.580816 -0.099946
C9    C     C_R   0.477792 0.049366 0.498936 0.030874
C10   C     C_R   0.477793 0.952062 0.497310 0.035749
C11   C     C_R   0.542183 0.573685 0.107523 -0.125505
C12   C     C_R   0.500032 0.670336 0.499749 0.547725
C13   C     C_R   0.417390 0.446586 0.891803 -0.099044
C14   C     C_R   0.542473 0.572042 0.209005 0.049176
C15   C     C_R   0.418964 0.447562 0.790381 0.060782
C16   C     C_R   0.262108 0.501651 0.499641 0.552603
C17   C     C_R   0.737714 0.497143 0.500289 0.545590
C18   C     C_R   0.456959 0.428147 0.209421 0.061968
C19   C     C_R   0.581415 0.552102 0.790393 0.053493
C20   C     C_R   0.457762 0.426263 0.107990 -0.100098
C21   C     C_R   0.583122 0.552994 0.891830 -0.122450
C22   C     C_R   0.500243 0.499865 0.054483 0.056353
C23   C     C_R   0.871502 0.494147 0.500603 0.000801
C24   C     C_R   0.500267 0.499794 0.945087 0.051892
C25   C     C_R   0.217248 0.701953 0.256852 -0.137042
C26   C     C_R   0.747531 0.293362 0.720633 -0.116323
C27   C     C_R   0.168151 0.661665 0.339126 -0.079616
C28   C     C_R   0.807714 0.335618 0.644307 -0.056933
C29   C     C_R   0.118451 0.576049 0.333535 0.024466
C30   C     C_R   0.878849 0.411916 0.661068 0.019810
C31   C     C_R   0.119155 0.530891 0.245144 -0.090396
C32   C     C_R   0.890862 0.444418 0.755516 -0.107432
C33   C     C_R   0.169702 0.570720 0.162287 0.062256
C34   C     C_R   0.128131 0.501849 0.498852 0.005198
C35   C     C_R   0.830505 0.402128 0.832827 0.059925
C36   C     C_R   0.218860 0.656790 0.169051 -0.104433
C37   C     C_R   0.758514 0.326331 0.814358 -0.103643
C38   C     C_R   0.932816 0.530494 0.421140 -0.142362
C39   C     C_R   0.066778 0.464616 0.578168 -0.139363
C40   C     C_2   0.169121 0.522974 0.068994 0.563967
C41   C     C_2   0.840770 0.438205 0.931981 0.563870
C42   C     C_2   0.312672 0.056034 0.630141 0.569475
C43   C     C_2   0.400710 0.946756 0.323001 0.558770
C44   C     C_R   0.938767 0.458776 0.579314 -0.026309
C45   C     C_R   0.060482 0.534715 0.419114 -0.028714
C46   C     C_R   0.405005 0.098059 0.565010 0.068545
C47   C     C_R   0.448268 0.904000 0.412615 0.068708
C48   C     C_R   0.417262 0.190363 0.566721 -0.129940
Cu1   Cu    Cu3+1 0.500000 0.499990 0.596430 0.955116
Cu2   Cu    Cu3+1 0.500000 0.500010 0.403570 0.956139
H1    H     H_    0.257974 0.689383 0.106425 0.158111
H2    H     H_    0.646105 0.592971 0.750834 0.128967
H3    H     H_    0.426099 0.366752 0.072407 0.108745
H4    H     H_    0.651108 0.593943 0.927648 0.118862
H5    H     H_    0.252894 0.768773 0.260753 0.154421
H6    H     H_    0.691611 0.235175 0.707004 0.123359
H7    H     H_    0.167186 0.697507 0.406702 0.123349
H8    H     H_    0.797722 0.309592 0.571925 0.107011
H9    H     H_    0.079627 0.464987 0.241344 0.161503
H10   H     H_    0.945656 0.503423 0.768070 0.161290
H11   H     H_    0.880981 0.557943 0.360940 0.140432
H12   H     H_    0.710066 0.292846 0.872243 0.150794
H13   H     H_    0.118869 0.436883 0.638047 0.132834
H14   H     H_    0.362188 0.229145 0.616171 0.155770
H15   H     H_    0.440156 0.774374 0.349519 0.153146
H16   H     H_    0.625089 0.218888 0.384802 0.132382
H17   H     H_    0.551965 0.782023 0.647880 0.134265
H18   H     H_    0.132056 0.409803 0.997233 0.345932
H19   H     H_    0.899583 0.537397 0.017967 0.350187
H20   H     H_    0.212259 0.065211 0.752171 0.348136
H21   H     H_    0.381720 0.940724 0.178162 0.347056
H22   H     H_    0.615056 0.057061 0.385865 0.129702
H23   H     H_    0.541468 0.943475 0.645343 0.122845
H24   H     H_    0.573387 0.633277 0.071511 0.099951
H25   H     H_    0.349806 0.405304 0.927524 0.109575
H26   H     H_    0.576574 0.629136 0.247712 0.131232
H27   H     H_    0.354640 0.406388 0.750807 0.122288
H28   H     H_    0.421974 0.371332 0.248414 0.141282
N1    N     N_R   0.500000 0.500020 0.258690 -0.227050
N2    N     N_R   0.500000 0.499980 0.741310 -0.224689
O1    O     O_R   0.500010 0.371450 0.581430 -0.509420
O2    O     O_R   0.129631 0.434768 0.065027 -0.699139
O3    O     O_2   0.795067 0.398287 0.000118 -0.514141
O4    O     O_R   0.901320 0.518814 0.947731 -0.695467
O5    O     O_2   0.265845 0.984723 0.609647 -0.496419
O6    O     O_R   0.276286 0.099730 0.714202 -0.715567
O7    O     O_2   0.342876 0.016111 0.326932 -0.492431
O8    O     O_R   0.419440 0.906098 0.233705 -0.729907
O9    O     O_R   0.499990 0.628550 0.418570 -0.517915
O10   O     O_R   0.500010 0.371460 0.418560 -0.506330
O11   O     O_R   0.499990 0.628540 0.581440 -0.498768
O12   O     O_R   0.319640 0.500000 0.581430 -0.508957
O13   O     O_R   0.680360 0.500000 0.418570 -0.503753
O14   O     O_R   0.319640 0.500010 0.418560 -0.487715
O15   O     O_R   0.680360 0.499990 0.581440 -0.497922
O16   O     O_2   0.202507 0.560576 0.995165 -0.514081

loop_
_geom_bond_atom_site_label_1
_geom_bond_atom_site_label_2
_ccdc_geom_bond_type
C1    O10   A    
C27   C29   A    
C12   O11   A    
C2    H15   S    
Cu2   N1    S    
C37   H12   S    
C17   C23   S    
C43   O8    S    
C35   C37   A    
C40   O16   D    
C21   H4    S    
C11   C14   A    
C48   H14   S    
Cu1   O1    S    
C41   O3    D    
C3    C48   A    
C33   C36   A    
C42   C46   S    
C31   H9    S    
C38   C45   A    
C16   C34   S    
C19   H2    S    
Cu2   O10   S    
C13   H25   S    
C18   N1    A    
C31   C33   A    
C17   O15   A    
C4    C12   S    
C9    C10   S    
C38   H11   S    
C9    C46   A    
C30   C44   S    
Cu1   O11   S    
C46   C48   A    
C33   C40   S    
C34   C39   A    
C32   C35   A    
C40   O2    S    
C12   O9    A    
C4    C6    A    
C27   H7    S    
C7    H22   S    
C34   C45   A    
Cu2   O14   S    
C6    C8    A    
C41   O4    S    
C23   C44   A    
C13   C24   A    
C29   C45   S    
C1    C3    S    
C14   H26   S    
C2    C4    A    
Cu2   O9    S    
C15   N2    A    
C18   H28   S    
C1    O1    A    
C26   C37   A    
C42   O5    D    
C14   N1    A    
Cu1   O15   S    
C36   H1    S    
C42   O6    S    
C6    H17   S    
C20   C22   A    
C16   O12   A    
C13   C15   A    
C22   C24   S    
C17   O13   A    
C32   H10   S    
Cu1   O12   S    
H20   O6    S    
C5    C7    A    
C7    C9    A    
C19   C21   A    
C16   O14   A    
C25   H5    S    
C20   H3    S    
C3    C5    A    
C11   H24   S    
C26   H6    S    
Cu2   O13   S    
C39   C44   A    
C28   H8    S    
C2    C47   A    
C25   C27   A    
C23   C38   A    
C39   H13   S    
C11   C22   A    
C26   C28   A    
Cu1   N2    S    
C43   O7    D    
C28   C30   A    
H18   O2    S    
C29   C31   A    
H19   O4    S    
C5    H16   S    
C30   C32   A    
C15   H27   S    
C8    H23   S    
C18   C20   A    
C19   N2    A    
C35   C41   S    
C25   C36   A    
H21   O8    S    
C8    C10   A    
Cu1   Cu2   S    
C21   C24   A    
C10   C47   A    
C43   C47   S    
