data_mof_unit_34117.cif
_audit_creation_date              2012-12-10T16:38:36-0500
_audit_creation_method            fapswitch 2.2
_symmetry_space_group_name_H-M    P1
_symmetry_Int_Tables_number       1
_space_group_crystal_system       triclinic
_cell_length_a                    10.92524
_cell_length_b                    10.82203
_cell_length_c                    17.88643
_cell_angle_alpha                 98.335596
_cell_angle_beta                  72.911613
_cell_angle_gamma                 98.918632
_cell_volume                      1985.87177776

loop_
_atom_site_label
_atom_site_type_symbol
_atom_type_description
_atom_site_fract_x
_atom_site_fract_y
_atom_site_fract_z
_atom_type_partial_charge
C1    C     C_R   0.158284 0.478995 0.517661 0.905756
C2    C     C_R   0.553879 0.364812 0.926075 -0.295634
C3    C     C_R   0.605888 0.295074 0.966081 -0.019170
C4    C     C_R   0.843144 0.521561 0.482915 0.816787
C5    C     C_R   0.603176 0.334482 0.044962 0.111805
C6    C     C_R   0.547772 0.446075 0.083265 0.077563
C7    C     C_R   0.649766 0.261536 0.087584 -0.191362
C8    C     C_R   0.640813 0.296426 0.166620 -0.203029
C9    C     C_R   0.546856 0.482321 0.162469 -0.229344
C10   C     C_2   0.981563 0.530173 0.476140 -0.251534
C11   C     C_2   0.023539 0.469495 0.523982 -0.234171
C12   C     C_R   0.342175 0.690540 0.838968 -0.216111
C13   C     C_2   0.543778 0.966988 0.476786 -0.350345
C14   C     C_2   0.454335 0.035860 0.523452 -0.291071
C15   C     C_R   0.467751 0.168332 0.517559 0.846571
C16   C     C_R   0.530819 0.833041 0.482745 0.894488
C17   C     C_R   0.564858 0.435054 0.288226 0.799490
C18   C     C_R   0.437322 0.564143 0.712039 0.788114
C19   C     C_R   0.414492 0.593679 0.797481 -0.019701
C20   C     C_R   0.589774 0.406734 0.203709 0.013718
C21   C     C_R   0.327719 0.720519 0.919233 -0.224713
C22   C     C_2   0.073210 0.608298 0.415969 0.910793
C23   C     C_R   0.469160 0.525403 0.837398 -0.273841
C24   C     C_R   0.940314 0.389681 0.584757 0.132845
C25   C     C_R   0.902021 0.262471 0.563999 -0.095036
C26   C     C_R   0.821297 0.188318 0.621201 -0.116453
C27   C     C_R   0.779448 0.240361 0.699324 -0.102230
C28   C     C_R   0.818782 0.366468 0.720510 -0.147323
C29   C     C_R   0.899182 0.441071 0.663471 -0.121647
C30   C     C_R   0.661663 0.180058 0.922967 0.105800
C31   C     C_R   0.795772 0.177550 0.899808 -0.175315
C32   C     C_R   0.848429 0.070063 0.857322 -0.132817
C33   C     C_R   0.767683 0.964843 0.837562 -0.114028
C34   C     C_R   0.450787 0.549667 0.919123 0.097745
C35   C     C_R   0.634146 0.967003 0.860132 -0.145495
C36   C     C_R   0.581083 0.074360 0.902533 -0.165018
C37   C     C_R   0.382640 0.651970 0.959306 0.176586
C38   C     C_R   0.500453 0.476972 0.961458 0.053012
C39   C     C_R   0.492608 0.515687 0.042055 0.070084
C40   C     C_R   0.425903 0.620320 0.079387 -0.208204
C41   C     C_R   0.370593 0.685534 0.038916 -0.229625
H1    H     H_    0.318894 0.763864 0.070193 0.153325
H2    H     H_    0.410934 0.653067 0.140739 0.149362
H3    H     H_    0.553491 0.325792 0.867219 0.148668
H4    H     H_    0.245393 0.630953 0.334216 0.327871
H5    H     H_    0.933436 0.221544 0.503555 0.130160
H6    H     H_    0.790866 0.090624 0.604935 0.131131
H7    H     H_    0.716601 0.182957 0.743384 0.145512
H8    H     H_    0.786738 0.406514 0.781053 0.133787
H9    H     H_    0.928425 0.538898 0.680339 0.125178
H10   H     H_    0.859181 0.258904 0.914352 0.137357
H11   H     H_    0.951846 0.068463 0.839515 0.131959
H12   H     H_    0.689399 0.174755 0.061090 0.158548
H13   H     H_    0.808584 0.881771 0.804600 0.127077
H14   H     H_    0.571898 0.885651 0.844510 0.149314
H15   H     H_    0.477516 0.075236 0.919448 0.134887
H16   H     H_    0.626676 0.009870 0.434160 0.148740
H17   H     H_    0.369730 0.995064 0.565711 0.160076
H18   H     H_    0.509782 0.566618 0.195143 0.123361
H19   H     H_    0.672109 0.236449 0.199234 0.134797
H20   H     H_    0.274347 0.798016 0.949927 0.141506
H21   H     H_    0.299580 0.745103 0.809126 0.164997
H22   H     H_    0.529185 0.456166 0.802642 0.165280
O1    O     O_3   0.500000 0.500000 0.500000 -0.496937
O2    O     O_R   0.470800 0.371790 0.332500 -0.617373
O3    O     O_R   0.380610 0.619380 0.674980 -0.655384
O4    O     O_R   0.632640 0.524780 0.317540 -0.639226
O5    O     O_R   0.515950 0.484050 0.674980 -0.643833
O6    O     O_2   0.042572 0.705580 0.403227 -0.605718
O7    O     O_R   0.192957 0.570025 0.373092 -0.805233
O8    O     O_R   0.535460 0.243030 0.556410 -0.633494
O9    O     O_R   0.437420 0.784080 0.535340 -0.640962
O10   O     O_R   0.223560 0.397520 0.472140 -0.607373
O11   O     O_R   0.803560 0.575360 0.436110 -0.609081
O12   O     O_R   0.209690 0.568800 0.556400 -0.654004
O13   O     O_R   0.763190 0.458310 0.535350 -0.629467
O14   O     O_R   0.414000 0.207090 0.472140 -0.637975
O15   O     O_R   0.613120 0.765800 0.436110 -0.634823
Zn1   Zn    Zn3+2 0.577310 0.422690 0.565550 0.962844
Zn2   Zn    Zn3+2 0.403760 0.371330 0.445150 1.004002
Zn3   Zn    Zn3+2 0.634990 0.589920 0.423760 1.005390
Zn4   Zn    Zn3+2 0.383940 0.616050 0.565540 0.967811

loop_
_geom_bond_atom_site_label_1
_geom_bond_atom_site_label_2
_ccdc_geom_bond_type
C27   H7    S    
C34   C37   A    
C41   H1    S    
C35   C36   A    
C16   O9    A    
O13   Zn1   S    
C6    C9    A    
O8    Zn1   S    
C7    C8    A    
C10   C22   S    
C26   C27   A    
C8    C20   A    
C5    C6    A    
C28   C29   A    
C30   C31   A    
C13   H16   S    
C18   O5    A    
C11   C24   S    
C17   C20   S    
C18   C19   S    
C24   C29   A    
C32   H11   S    
C40   H2    S    
C2    H3    S    
C1    C11   S    
C22   O6    D    
C4    O11   A    
O5    Zn1   S    
C23   H22   S    
O2    Zn2   S    
C13   C14   D    
O1    Zn2   S    
C29   H9    S    
C38   C39   A    
C14   H17   S    
C17   O4    A    
C35   H14   S    
C1    O12   A    
C24   C25   A    
C39   C40   A    
C5    C7    A    
C25   C26   A    
C12   C21   A    
C9    H18   S    
C3    C30   S    
C19   C23   A    
C36   H15   S    
O3    Zn4   S    
C12   H21   S    
C28   H8    S    
C2    C38   A    
C9    C20   A    
C31   C32   A    
C23   C34   A    
O1    Zn4   S    
C26   H6    S    
C40   C41   A    
O4    Zn3   S    
O1    Zn1   S    
C7    H12   S    
O11   Zn3   S    
C4    C10   S    
O14   Zn2   S    
C33   H13   S    
C6    C39   A    
H4    O7    S    
C34   C38   A    
C21   H20   S    
C31   H10   S    
C3    C5    A    
O12   Zn4   S    
C18   O3    A    
C15   O8    A    
C17   O2    A    
C30   C36   A    
C1    O10   A    
C32   C33   A    
C2    C3    A    
C8    H19   S    
O15   Zn3   S    
C15   O14   A    
C12   C19   A    
C33   C35   A    
O10   Zn2   S    
C16   O15   A    
C37   C41   A    
O1    Zn3   S    
C4    O13   A    
C10   C11   D    
C21   C37   A    
C13   C16   S    
C27   C28   A    
C14   C15   S    
C25   H5    S    
C22   O7    S    
O9    Zn4   S    
