data_mof_unit_19876.cif
_audit_creation_date              2012-12-11T16:22:27-0500
_audit_creation_method            fapswitch 2.2
_symmetry_space_group_name_H-M    P1
_symmetry_Int_Tables_number       1
_space_group_crystal_system       triclinic
_cell_length_a                    16.930649
_cell_length_b                    16.801691
_cell_length_c                    19.498933
_cell_angle_alpha                 118.027519
_cell_angle_beta                  62.295699
_cell_angle_gamma                 100.812939
_cell_volume                      4331.53604869

loop_
_atom_site_label
_atom_site_type_symbol
_atom_type_description
_atom_site_fract_x
_atom_site_fract_y
_atom_site_fract_z
_atom_type_partial_charge
C1    C     C_R   0.040324 0.758003 0.010192 -0.133968
C2    C     C_R   0.768648 0.440436 0.240676 0.045818
C3    C     C_R   0.722528 0.548509 0.024810 0.056578
C4    C     C_R   0.972705 0.760389 0.255029 0.026007
C5    C     C_R   0.250293 0.568400 0.011228 -0.137576
C6    C     C_R   0.925119 0.260259 0.835054 -0.136059
C7    C     C_R   0.170503 0.461204 0.750622 -0.105077
C8    C     C_R   0.053218 0.308683 0.050571 -0.125181
C9    C     C_R   0.974868 0.239894 0.974561 -0.114139
C10   C     C_R   0.251086 0.531220 0.825846 -0.140542
C11   C     C_R   0.182011 0.493491 0.089866 -0.140378
C12   C     C_R   0.765316 0.419859 0.164385 -0.137508
C13   C     C_R   0.990414 0.338444 0.758884 -0.140558
C14   C     C_R   0.255811 0.544101 0.067643 0.071913
C15   C     C_R   0.945506 0.260227 0.757832 0.041246
C16   C     C_R   0.256747 0.478355 0.743135 0.029199
C17   C     C_R   0.030732 0.223683 0.001773 0.057008
C18   C     C_R   0.821231 0.922713 0.479544 -0.186012
C19   C     C_R   0.853846 0.843650 0.403267 -0.162942
C20   C     C_R   0.930811 0.844732 0.331690 0.149206
C21   C     C_R   0.968954 0.927208 0.334556 -0.176332
C22   C     C_R   0.936599 0.005881 0.410575 -0.165004
C23   C     C_R   0.803220 0.561110 0.963912 -0.129417
C24   C     C_R   0.865911 0.003212 0.485048 0.118142
C25   C     C_R   0.869959 0.165208 0.581573 -0.186370
C26   C     C_R   0.895833 0.227109 0.645248 -0.167053
C27   C     C_R   0.908084 0.199767 0.697610 0.144884
C28   C     C_R   0.885978 0.112659 0.691067 -0.175617
C29   C     C_R   0.860575 0.050899 0.627417 -0.166660
C30   C     C_R   0.857343 0.075286 0.569071 0.118592
C31   C     C_R   0.589090 0.315053 0.351925 -0.179255
C32   C     C_R   0.654027 0.335412 0.286054 -0.168440
C33   C     C_R   0.712655 0.404923 0.303752 0.137823
C34   C     C_R   0.959061 0.673704 0.249042 -0.133215
C35   C     C_R   0.712737 0.445256 0.385206 -0.182289
C36   C     C_R   0.647999 0.424708 0.450850 -0.169063
C37   C     C_R   0.581992 0.364383 0.435960 0.124608
C38   C     C_R   0.489128 0.380116 0.585317 -0.187011
C39   C     C_R   0.410783 0.413580 0.661143 -0.170847
C40   C     C_R   0.338261 0.444076 0.662278 0.074031
C41   C     C_R   0.343817 0.438562 0.585425 0.019907
C42   C     C_R   0.421637 0.402204 0.509490 -0.224918
C43   C     C_R   0.495211 0.375423 0.509452 0.106954
C44   C     C_R   0.634672 0.591111 0.062861 0.131916
C45   C     C_R   0.739211 0.483532 0.041290 -0.127120
C46   C     C_R   0.322167 0.570488 0.102836 0.057708
C47   C     C_R   0.405966 0.519446 0.147513 -0.227375
C48   C     C_R   0.330802 0.516620 0.136479 -0.186478
C49   C     C_R   0.383750 0.639502 0.093984 -0.085207
C50   C     C_R   0.465053 0.635731 0.096607 0.124811
C51   C     C_R   0.475989 0.571975 0.119983 0.182605
C52   C     C_R   0.559318 0.553720 0.107005 -0.260269
C53   C     C_R   0.623680 0.662835 0.049955 -0.178650
C54   C     C_R   0.538532 0.687715 0.070251 -0.221613
C55   C     C_R   0.836489 0.179307 0.138270 0.114590
C56   C     C_R   0.029935 0.752135 0.172981 -0.114258
C57   C     C_R   0.964476 0.861098 0.991734 0.129424
C58   C     C_R   0.892947 0.946179 0.961825 -0.229809
C59   C     C_R   0.931173 0.865684 0.939627 -0.182395
C60   C     C_R   0.962073 0.939905 0.064965 -0.279344
C61   C     C_R   0.922735 0.020758 0.088326 0.189611
C62   C     C_R   0.886628 0.023479 0.036949 0.195450
C63   C     C_R   0.843290 0.103008 0.062680 -0.290025
C64   C     C_R   0.873096 0.177174 0.188457 -0.149859
C65   C     C_R   0.916138 0.098282 0.163779 -0.235871
C66   C     C_R   0.843888 0.489723 0.239731 -0.143186
C67   C     C_R   0.962724 0.688839 0.933676 -0.134025
C68   C     C_R   0.990989 0.772795 0.976501 0.052807
H1    H     H_    0.877939 0.217851 0.861984 0.086296
H2    H     H_    0.150252 0.420619 0.699580 0.111360
H3    H     H_    0.094081 0.322428 0.083792 0.096564
H4    H     H_    0.942734 0.189305 0.937006 0.094040
H5    H     H_    0.305788 0.556763 0.843412 0.099795
H6    H     H_    0.157450 0.473886 0.141545 0.086114
H7    H     H_    0.004842 0.366944 0.714987 0.091707
H8    H     H_    0.765704 0.919604 0.536065 0.114314
H9    H     H_    0.820990 0.781421 0.401678 0.112035
H10   H     H_    0.027699 0.930696 0.280339 0.099050
H11   H     H_    0.723285 0.371318 0.137867 0.082816
H12   H     H_    0.973067 0.066713 0.413020 0.112590
H13   H     H_    0.866636 0.185599 0.537856 0.112669
H14   H     H_    0.909238 0.295012 0.651142 0.108259
H15   H     H_    0.852406 0.981785 0.618722 0.113884
H16   H     H_    0.538898 0.267568 0.339381 0.117354
H17   H     H_    0.654369 0.300386 0.223116 0.107692
H18   H     H_    0.757585 0.498292 0.400859 0.107814
H19   H     H_    0.643351 0.463934 0.515438 0.115042
H20   H     H_    0.546077 0.361117 0.586427 0.118326
H21   H     H_    0.812755 0.604367 0.934222 0.089948
H22   H     H_    0.407180 0.416755 0.719323 0.123921
H23   H     H_    0.427678 0.402650 0.451794 0.128755
H24   H     H_    0.565151 0.501812 0.122352 0.112411
H25   H     H_    0.413391 0.472578 0.168045 0.127914
H26   H     H_    0.533028 0.742481 0.058291 0.143605
H27   H     H_    0.283353 0.466134 0.147690 0.122736
H28   H     H_    0.814455 0.106260 0.024734 0.116688
H29   H     H_    0.918437 0.654354 0.300458 0.094369
H30   H     H_    0.867560 0.236735 0.246800 0.123185
H31   H     H_    0.866322 0.947348 0.921372 0.123972
H32   H     H_    0.943308 0.097551 0.204014 0.126643
H33   H     H_    0.932812 0.806536 0.882502 0.113412
H34   H     H_    0.986409 0.937413 0.106455 0.120094
H35   H     H_    0.693736 0.456592 0.085388 0.095284
H36   H     H_    0.056224 0.806263 0.154953 0.084455
H37   H     H_    0.875156 0.503857 0.281403 0.085056
H38   H     H_    0.932321 0.673102 0.891150 0.083368
H39   H     H_    0.291272 0.613309 0.984952 0.120038
N1    N     N_R   0.034930 0.670790 0.995440 -0.037342
N2    N     N_R   0.954880 0.335850 0.881080 -0.037526
N3    N     N_R   0.115060 0.502430 0.834090 -0.043182
N4    N     N_R   0.014160 0.371890 0.051540 -0.041473
N5    N     N_R   0.965070 0.329210 0.004560 -0.042569
N6    N     N_R   0.164150 0.545120 0.881070 -0.039445
N7    N     N_R   0.133000 0.490740 0.051540 -0.039182
N8    N     N_R   0.996220 0.383590 0.834100 -0.038699
N9    N     N_R   0.835850 0.454880 0.118930 -0.037099
N10   N     N_R   0.867000 0.509260 0.948460 -0.039162
N11   N     N_R   0.003780 0.616410 0.165900 -0.038777
N12   N     N_R   0.825670 0.461520 0.995440 -0.040854
N13   N     N_R   0.045120 0.664150 0.118920 -0.035931
N14   N     N_R   0.884940 0.497570 0.165910 -0.035715
N15   N     N_R   0.985840 0.628110 0.948460 -0.037475
N16   N     N_R   0.174330 0.538480 0.004560 -0.041328
Ni1   Ni    Ni4+2 0.103690 0.603690 0.000000 0.220273
Ni2   Ni    Ni4+2 0.896310 0.396310 0.000000 0.207771
Ni3   Ni    Ni4+2 0.991110 0.505800 0.892250 0.214585
Ni4   Ni    Ni4+2 0.008890 0.494200 0.107750 0.208019
H40   H     H_    0.082350 0.806187 0.036782 0.087778
H41   H     H_    0.894171 0.090116 0.731150 0.108716
C69   C     C_R   0.273593 0.477331 0.583308 0.110893
C70   C     C_R   0.234217 0.422895 0.527530 -0.176179
C71   C     C_R   0.167128 0.459054 0.526378 -0.114835
C72   C     C_R   0.139361 0.549786 0.580325 -0.097015
C73   C     C_R   0.178961 0.604679 0.635209 -0.114192
C74   C     C_R   0.246179 0.568870 0.636466 -0.129934
H42   H     H_    0.254664 0.352317 0.485879 0.113787
H43   H     H_    0.136503 0.416664 0.483799 0.104839
H44   H     H_    0.087292 0.577597 0.579467 0.098517
H45   H     H_    0.157569 0.674993 0.676794 0.108669
H46   H     H_    0.276490 0.612205 0.679132 0.110806
H47   H     H_    0.680689 0.697195 0.021192 0.120673
C75   C     C_R   0.361650 0.714556 0.084817 0.126979
C76   C     C_R   0.411875 0.726868 0.009463 -0.211819
C77   C     C_R   0.386848 0.795028 0.000649 -0.109004
C78   C     C_R   0.311409 0.850926 0.066422 -0.097441
C79   C     C_R   0.260848 0.838835 0.141183 -0.123612
C80   C     C_R   0.285681 0.770924 0.150399 -0.118972
H48   H     H_    0.468807 0.682240 0.956819 0.118592
H49   H     H_    0.425420 0.803893 0.942406 0.108130
H50   H     H_    0.291857 0.903309 0.059264 0.098133
H51   H     H_    0.202132 0.881809 0.191852 0.102018
H52   H     H_    0.245312 0.761683 0.208303 0.112086

loop_
_geom_bond_atom_site_label_1
_geom_bond_atom_site_label_2
_ccdc_geom_bond_type
C34   N11   A    
C6    H1    S    
C58   C62   A    
C48   H27   S    
C41   C42   A    
C3    C23   A    
C35   C36   A    
C1    H40   S    
C2    C12   A    
C1    C68   A    
C7    H2    S    
C78   C79   A    
N16   Ni1   S    
C14   C46   S    
C53   C54   A    
C46   C49   A    
C26   C27   A    
C29   C30   A    
N8    Ni3   S    
C18   C24   A    
C36   C37   A    
N4    N5    A    
C29   H15   S    
N10   N12   A    
C41   C69   S    
C35   H18   S    
C57   C59   A    
C76   C77   A    
C12   H11   S    
C34   H29   S    
C28   H41   S    
N11   N13   A    
C19   H9    S    
C11   N7    A    
C45   H35   S    
C6    C15   A    
N13   Ni1   S    
C44   C53   A    
C13   H7    S    
C71   C72   A    
C55   C63   A    
C21   H10   S    
C9    H4    S    
N10   Ni3   S    
C39   H22   S    
C78   H50   S    
C45   N12   A    
C9    N5    A    
C64   H30   S    
C72   H44   S    
C26   H14   S    
C21   C22   A    
C4    C56   A    
C25   H13   S    
C56   N13   A    
C76   H48   S    
N1    Ni1   S    
C60   H34   S    
C4    C34   A    
C36   H19   S    
C74   H46   S    
C46   C48   A    
C3    C44   S    
N9    N14   A    
C67   C68   A    
C59   H33   S    
C47   C48   A    
C56   H36   S    
C70   H42   S    
C8    N4    A    
C73   H45   S    
C18   C19   A    
C57   C60   A    
C47   C51   A    
C25   C26   A    
C63   H28   S    
C3    C45   A    
C31   H16   S    
C51   C52   A    
C38   H20   S    
C60   C61   A    
N15   Ni3   S    
C62   C63   A    
C61   C65   A    
C15   C27   S    
C31   C32   A    
C49   C75   S    
C23   H21   S    
C50   C51   A    
C47   H25   S    
C66   N14   A    
C11   C14   A    
C50   C54   A    
N3    N6    A    
C5    C14   A    
C13   N8    A    
C10   N6    A    
C16   C40   S    
C10   H5    S    
N7    N16   A    
N12   Ni2   S    
C2    C33   S    
C9    C17   A    
C40   C41   A    
C69   C74   A    
N3    Ni3   S    
N9    Ni2   S    
C13   C15   A    
N4    Ni4   S    
C72   C73   A    
C6    N2    A    
C22   C24   A    
C37   C43   S    
C52   H24   S    
N11   Ni4   S    
C57   C68   S    
C70   C71   A    
C67   N15   A    
C39   C40   A    
C79   C80   A    
C5    H39   S    
N2    Ni2   S    
C25   C30   A    
C28   C29   A    
C8    H3    S    
C18   H8    S    
C77   H49   S    
C58   C59   A    
C75   C80   A    
C7    C16   A    
C58   H31   S    
C65   H32   S    
N1    N15   A    
C77   C78   A    
C2    C66   A    
C11   H6    S    
C23   N10   A    
C67   H38   S    
N14   Ni4   S    
C73   C74   A    
C55   C64   A    
C5    N16   A    
C8    C17   A    
C7    N3    A    
C64   C65   A    
C19   C20   A    
C69   C70   A    
C71   H43   S    
C22   H12   S    
C38   C43   A    
C10   C16   A    
C32   C33   A    
N7    Ni4   S    
C44   C52   A    
C38   C39   A    
N6    Ni1   S    
C32   H17   S    
C33   C35   A    
C80   H52   S    
C53   H47   S    
C61   C62   A    
C24   C30   S    
C54   H26   S    
N2    N8    A    
C1    N1    A    
C79   H51   S    
C4    C20   S    
C31   C37   A    
C20   C21   A    
C49   C50   A    
C42   C43   A    
C27   C28   A    
C75   C76   A    
C66   H37   S    
N5    Ni2   S    
C42   H23   S    
C12   N9    A    
