data_mof_unit_34589.cif
_audit_creation_date              2012-10-26T18:31:59-0400
_audit_creation_method            fapswitch 2.2
_symmetry_space_group_name_H-M    P1
_symmetry_Int_Tables_number       1
_space_group_crystal_system       triclinic
_cell_length_a                    12.470469
_cell_length_b                    13.257707
_cell_length_c                    14.32503
_cell_angle_alpha                 95.109031
_cell_angle_beta                  108.558075
_cell_angle_gamma                 117.556964
_cell_volume                      1910.20151833

loop_
_atom_site_label
_atom_site_type_symbol
_atom_type_description
_atom_site_fract_x
_atom_site_fract_y
_atom_site_fract_z
_atom_type_partial_charge
C1    C     C_R   0.649714 0.714030 0.507946 0.583605
C2    C     C_R   0.132795 0.395370 0.998798 -0.044652
C3    C     C_R   0.120265 0.459088 0.075327 0.013793
C4    C     C_R   0.618921 0.517510 0.686950 0.551978
C5    C     C_R   0.231162 0.366285 0.025685 -0.165267
C6    C     C_R   0.314552 0.396628 0.128189 -0.199879
C7    C     C_R   0.220758 0.507297 0.175760 0.253089
C8    C     C_R   0.125131 0.955490 0.357460 -0.113435
C9    C     C_R   0.248984 0.158471 0.462809 0.002029
C10   C     C_R   0.745065 0.925582 0.586163 -0.167124
C11   C     C_R   0.850557 0.041375 0.619095 -0.141899
C12   C     C_R   0.837365 0.486404 0.918436 0.023516
C13   C     C_R   0.951278 0.071600 0.585344 -0.101366
C14   C     C_R   0.943973 0.987478 0.511173 -0.021250
C15   C     C_R   0.828312 0.872213 0.469161 0.017859
C16   C     C_R   0.345110 0.284510 0.484269 0.529160
C17   C     C_R   0.044960 0.015462 0.474292 -0.012837
C18   C     C_R   0.028550 0.928797 0.396614 -0.053712
C19   C     C_R   0.911303 0.819298 0.352308 -0.119772
C20   C     C_R   0.807267 0.794376 0.381618 0.286005
C21   C     C_R   0.159765 0.128430 0.509300 -0.176150
C22   C     C_R   0.232392 0.071286 0.386563 0.271183
C23   C     C_R   0.800359 0.518316 0.994776 0.039911
C24   C     C_R   0.736319 0.838988 0.515380 -0.007750
C25   C     C_R   0.252866 0.635884 0.695298 -0.173452
C26   C     C_R   0.646971 0.338055 0.361423 0.015479
C27   C     C_R   0.710210 0.279607 0.345940 -0.151727
C28   C     C_R   0.381653 0.483313 0.313165 0.546291
C29   C     C_R   0.844300 0.324351 0.411138 0.288454
C30   C     C_R   0.919392 0.441033 0.477776 -0.005560
C31   C     C_R   0.845482 0.487560 0.503833 0.148378
C32   C     C_R   0.062698 0.503712 0.533521 0.021690
C33   C     C_R   0.117619 0.578535 0.632956 -0.047265
C34   C     C_R   0.930824 0.449377 0.943241 0.010866
C35   C     C_R   0.040069 0.606207 0.666737 -0.132434
C36   C     C_R   0.916825 0.582402 0.597418 0.296423
C37   C     C_R   0.155766 0.504902 0.493710 0.458382
C38   C     C_R   0.337550 0.627864 0.656402 0.002788
C39   C     C_R   0.682301 0.521945 0.794075 -0.016472
C40   C     C_R   0.307956 0.465019 0.204090 -0.012798
C41   C     C_R   0.700640 0.545914 0.969013 -0.139657
C42   C     C_R   0.639890 0.545301 0.868534 -0.148089
C43   C     C_R   0.784105 0.497707 0.820869 -0.106765
C44   C     C_3   0.259368 0.112708 0.242514 -0.131728
C45   C     C_R   0.009471 0.473857 0.048368 -0.005637
C46   C     C_3   0.631243 0.715980 0.226989 -0.149589
C47   C     C_3   0.336387 0.706069 0.250957 -0.099242
C48   C     C_3   0.071221 0.363140 0.339980 -0.041369
C49   C     C_3   0.817860 0.136554 0.360757 -0.149083
C50   C     C_3   0.960281 0.769744 0.667138 -0.125440
C51   C     C_3   0.742205 0.226915 0.758764 -0.128816
C52   C     C_R   0.968213 0.502967 0.122602 -0.110634
C53   C     C_R   0.863559 0.522451 0.095718 -0.155989
C54   C     C_R   0.943809 0.383015 0.867879 0.253884
C55   C     C_R   0.044665 0.357996 0.896642 -0.105329
Cu1   Cu    Cu3+1 0.416420 0.526630 0.522910 0.971206
Cu2   Cu    Cu3+1 0.583580 0.473370 0.477090 1.040642
H1    H     H_    0.239469 0.315215 0.967866 0.114661
H2    H     H_    0.327362 0.133287 0.203141 0.116808
H3    H     H_    0.242371 0.187682 0.251899 0.105126
H4    H     H_    0.165000 0.029702 0.191841 0.103472
H5    H     H_    0.896469 0.755282 0.289526 0.111884
H6    H     H_    0.112563 0.888645 0.298548 0.121347
H7    H     H_    0.180010 0.197553 0.569629 0.130602
H8    H     H_    0.031726 0.162342 0.617785 0.129049
H9    H     H_    0.685213 0.714502 0.178730 0.104586
H10   H     H_    0.632259 0.800820 0.237867 0.086394
H11   H     H_    0.526896 0.643350 0.183961 0.140805
H12   H     H_    0.674565 0.902447 0.621019 0.127633
H13   H     H_    0.441755 0.670821 0.705308 0.122170
H14   H     H_    0.324123 0.719521 0.173396 0.090110
H15   H     H_    0.434534 0.716408 0.291708 0.131527
H16   H     H_    0.333691 0.776853 0.295825 0.153615
H17   H     H_    0.083495 0.661122 0.744509 0.109175
H18   H     H_    0.964662 0.319727 0.290277 0.118550
H19   H     H_    0.114352 0.358951 0.284559 0.116693
H20   H     H_    0.091984 0.311971 0.392981 0.164112
H21   H     H_    0.787470 0.136354 0.278862 0.079408
H22   H     H_    0.730996 0.083505 0.378561 0.147469
H23   H     H_    0.857890 0.107224 0.675120 0.136312
H24   H     H_    0.876368 0.093173 0.371605 0.146725
H25   H     H_    0.649248 0.195043 0.288063 0.085199
H26   H     H_    0.018782 0.803794 0.620519 0.120411
H27   H     H_    0.025614 0.791494 0.748744 0.091947
H28   H     H_    0.908161 0.817975 0.668085 0.135458
H29   H     H_    0.382973 0.365423 0.148114 0.129334
H30   H     H_    0.669549 0.567628 0.026466 0.101536
H31   H     H_    0.010271 0.504145 0.201338 0.209333
H32   H     H_    0.687132 0.244292 0.799221 0.122904
H33   H     H_    0.770463 0.164144 0.788767 0.096294
H34   H     H_    0.293882 0.690442 0.772998 0.095556
H35   H     H_    0.674055 0.183247 0.676550 0.157311
H36   H     H_    0.542797 0.299080 0.314933 0.145355
H37   H     H_    0.052108 0.306725 0.838264 0.123439
H38   H     H_    0.561354 0.564579 0.849587 0.122768
H39   H     H_    0.824066 0.491257 0.765584 0.204750
H40   H     H_    0.834202 0.543622 0.154677 0.113281
N1    N     N_R   0.290690 0.566960 0.557640 -0.218501
N2    N     N_R   0.709100 0.433710 0.442970 -0.225657
O1    O     O_R   0.545970 0.684450 0.528810 -0.516446
O2    O     O_3   0.683075 0.696104 0.321883 -0.546692
O3    O     O_3   0.233818 0.595334 0.246263 -0.536704
O4    O     O_3   0.119307 0.482169 0.388361 -0.537340
O5    O     O_3   0.898962 0.252820 0.427952 -0.588411
O6    O     O_3   0.865347 0.646578 0.625699 -0.523251
O7    O     O_3   0.853523 0.333317 0.766528 -0.583522
O8    O     O_R   0.687130 0.639470 0.490120 -0.393212
O9    O     O_R   0.519670 0.535100 0.660030 -0.528320
O10   O     O_R   0.660830 0.490120 0.621340 -0.446036
O11   O     O_R   0.312870 0.360530 0.509880 -0.536603
O12   O     O_R   0.454030 0.315550 0.471190 -0.460017
O13   O     O_R   0.339170 0.509880 0.378660 -0.425605
O14   O     O_R   0.480330 0.464900 0.339970 -0.503044
O15   O     O_3   0.318625 0.099113 0.338606 -0.558195

loop_
_geom_bond_atom_site_label_1
_geom_bond_atom_site_label_2
_ccdc_geom_bond_type
C4    O10   A    
C38   H13   S    
C35   H17   S    
C27   C29   A    
C41   C42   A    
C48   H19   S    
C19   C20   A    
C48   H18   S    
Cu1   N1    S    
C38   N1    A    
C49   O5    S    
C16   O11   A    
C13   H8    S    
Cu1   Cu2   S    
C4    O9    A    
C12   C23   A    
C26   C27   A    
C5    H1    S    
C9    C16   S    
C46   H9    S    
C12   C43   A    
C3    C7    A    
C2    C55   A    
C51   H33   S    
C30   C31   A    
C51   H35   S    
C9    C22   A    
C28   C40   S    
C44   H2    S    
Cu2   N2    S    
C49   H21   S    
C17   C18   A    
C18   C19   A    
C49   H24   S    
Cu1   O9    S    
C21   H7    S    
C50   H28   S    
Cu2   O10   S    
C35   C36   A    
C7    O3    S    
C50   O6    S    
C8    C22   A    
C7    C40   A    
C31   N2    A    
C26   N2    A    
C26   H36   S    
C44   O15   S    
C47   O3    S    
C13   C14   A    
C14   C17   A    
C55   H37   S    
C1    O1    A    
Cu1   O11   S    
C37   N1    A    
C50   H26   S    
C23   C53   A    
C39   C42   A    
C15   C20   A    
C41   H30   S    
C46   O2    S    
C25   H34   S    
C54   O7    S    
C50   H27   S    
C42   H38   S    
C52   H31   S    
C47   H16   S    
C10   C11   A    
C37   O4    S    
C39   C43   A    
C20   O2    S    
C45   C52   A    
C10   C24   A    
C48   O4    S    
C3    C45   A    
C8    C18   A    
C49   H22   S    
C29   O5    S    
C48   H20   S    
C46   H11   S    
C29   C30   A    
C25   C38   A    
C11   H23   S    
C4    C39   S    
C43   H39   S    
C34   C45   A    
C32   C37   A    
C47   H14   S    
C1    O8    A    
C15   C24   A    
Cu2   O8    S    
C34   C54   A    
C6    C40   A    
C2    C5    A    
Cu1   O1    S    
C12   C34   A    
C52   C53   A    
C54   C55   A    
C36   O6    S    
C31   C36   A    
C27   H25   S    
C23   C41   A    
Cu2   O14   S    
Cu2   O12   S    
C44   H4    S    
C6    H29   S    
C53   H40   S    
C32   C33   A    
C2    C3    A    
C46   H10   S    
C51   H32   S    
C30   C32   A    
C11   C13   A    
C9    C21   A    
C5    C6    A    
C44   H3    S    
C51   O7    S    
C33   C35   A    
Cu1   O13   S    
C17   C21   A    
C47   H15   S    
C28   O14   A    
C8    H6    S    
C10   H12   S    
C22   O15   S    
C1    C24   S    
C14   C15   A    
C19   H5    S    
C28   O13   A    
C16   O12   A    
C25   C33   A    
