data_mof_unit_5456.cif
_audit_creation_date              2013-03-05T15:59:00-0500
_audit_creation_method            fapswitch 2.2
_symmetry_space_group_name_H-M    P1
_symmetry_Int_Tables_number       1
_space_group_crystal_system       triclinic
_cell_length_a                    7.317401
_cell_length_b                    21.284924
_cell_length_c                    23.543003
_cell_angle_alpha                 89.999984
_cell_angle_beta                  89.998877
_cell_angle_gamma                 89.999706
_cell_volume                      3666.83034826

loop_
_atom_site_label
_atom_site_type_symbol
_atom_site_description
_atom_site_fract_x
_atom_site_fract_y
_atom_site_fract_z
_atom_type_partial_charge
O1    O     O_R   0.365470 0.806380 0.442440 -0.565288
O2    O     O_R   0.134530 0.193620 0.942440 -0.565272
O3    O     O_R   0.865470 0.693620 0.557560 -0.565274
O4    O     O_R   0.634530 0.306380 0.057560 -0.565287
O5    O     O_R   0.035730 0.813790 0.557160 -0.567329
O6    O     O_R   0.464270 0.186210 0.057160 -0.567352
O7    O     O_R   0.535730 0.686210 0.442840 -0.567352
O8    O     O_R   0.964270 0.313790 0.942840 -0.567349
C1    C     C_R   0.203669 0.828503 0.575693 0.940342
C2    C     C_R   0.296328 0.171492 0.075689 0.940366
C3    C     C_R   0.703672 0.671493 0.424311 0.940358
C4    C     C_R   0.796330 0.328507 0.924310 0.940366
O9    O     O_R   0.035760 0.813790 0.442850 -0.572887
O10   O     O_R   0.464240 0.186210 0.942850 -0.572887
O11   O     O_R   0.535760 0.686210 0.557150 -0.572884
O12   O     O_R   0.964240 0.313790 0.057150 -0.572885
O13   O     O_R   0.865450 0.693620 0.442430 -0.570023
O14   O     O_R   0.634550 0.306380 0.942430 -0.570019
O15   O     O_R   0.365450 0.806380 0.557570 -0.570020
O16   O     O_R   0.134550 0.193620 0.057570 -0.570021
C5    C     C_R   0.203720 0.828468 0.424291 0.941149
C6    C     C_R   0.296282 0.171535 0.924289 0.941160
C7    C     C_R   0.703719 0.671533 0.575710 0.941185
C8    C     C_R   0.796279 0.328468 0.075709 0.941149
O17   O     O_3   0.198970 0.710570 0.500000 -0.273775
O18   O     O_3   0.301030 0.289430 0.000000 -0.273781
O19   O     O_3   0.698970 0.789430 0.500000 -0.273779
O20   O     O_3   0.801030 0.210570 0.000000 -0.273768
V1    V     V_3+5 0.924120 0.757310 0.500000 1.303472
V2    V     V_3+5 0.575880 0.242690 0.000000 1.303455
V3    V     V_3+5 0.424120 0.742690 0.500000 1.303458
V4    V     V_3+5 0.075880 0.257310 0.000000 1.303456
C9    C     C_3   0.929175 0.554133 0.741173 0.494771
C10   C     C_3   0.570808 0.445875 0.241167 0.494739
C11   C     C_3   0.429194 0.945876 0.258835 0.494737
C12   C     C_3   0.070867 0.054158 0.758805 0.494851
C13   C     C_3   0.574152 0.552418 0.753688 -0.046570
C14   C     C_3   0.925825 0.447563 0.253698 -0.046555
C15   C     C_3   0.074179 0.947560 0.246300 -0.046557
C16   C     C_3   0.425912 0.052364 0.746340 -0.046576
C17   C     C_3   0.588143 0.501945 0.804037 0.345824
C18   C     C_3   0.911842 0.498033 0.304051 0.345824
C19   C     C_3   0.088160 0.998029 0.195946 0.345826
C20   C     C_3   0.411893 0.001878 0.696007 0.345782
C21   C     C_1   0.790006 0.374624 0.878981 -0.123492
C22   C     C_1   0.709997 0.625373 0.378983 -0.123519
C23   C     C_1   0.290003 0.125372 0.121016 -0.123531
C24   C     C_1   0.209985 0.874611 0.621031 -0.123355
C25   C     C_3   0.737409 0.545607 0.710497 -0.176144
C26   C     C_3   0.762594 0.454391 0.210499 -0.176140
C27   C     C_3   0.237404 0.954390 0.289501 -0.176136
C28   C     C_3   0.262580 0.045600 0.789509 -0.176132
C29   C     C_3   0.938570 0.505225 0.791840 -0.478615
C30   C     C_3   0.561434 0.494772 0.291841 -0.478576
C31   C     C_3   0.438564 0.994770 0.208158 -0.478566
C32   C     C_3   0.061410 0.005215 0.708163 -0.478793
C33   C     C_3   0.768183 0.460840 0.794350 -0.182917
C34   C     C_3   0.731832 0.539151 0.294359 -0.182903
C35   C     C_3   0.268164 0.039149 0.205640 -0.182896
C36   C     C_3   0.231763 0.960811 0.705678 -0.182964
C37   C     C_3   0.756491 0.426864 0.734874 0.202431
C38   C     C_3   0.743587 0.573130 0.234885 0.202393
C39   C     C_3   0.256392 0.073129 0.265113 0.202384
C40   C     C_3   0.243245 0.926845 0.765164 0.202593
C41   C     C_3   0.724163 0.476924 0.687159 -0.485549
C42   C     C_3   0.775894 0.523074 0.187166 -0.485519
C43   C     C_3   0.224094 0.023073 0.312832 -0.485519
C44   C     C_3   0.275667 0.976921 0.812867 -0.485699
C45   C     C_1   0.783876 0.413215 0.840960 0.262408
C46   C     C_1   0.716132 0.586779 0.340965 0.262367
C47   C     C_1   0.283867 0.086778 0.159033 0.262361
C48   C     C_1   0.216097 0.913193 0.659059 0.262538
C49   C     C_1   0.718377 0.589797 0.661400 0.226175
C50   C     C_1   0.781622 0.410204 0.161399 0.226171
C51   C     C_1   0.218377 0.910204 0.338601 0.226170
C52   C     C_1   0.281623 0.089802 0.838598 0.226219
C53   C     C_1   0.710365 0.626521 0.621931 -0.124643
C54   C     C_1   0.789633 0.373481 0.121931 -0.124660
C55   C     C_1   0.210366 0.873481 0.378069 -0.124666
C56   C     C_1   0.289638 0.126526 0.878065 -0.124632
H1    H     H_    0.818544 0.470176 0.650787 0.261548
H2    H     H_    0.681528 0.529838 0.150793 0.261529
H3    H     H_    0.318459 0.029842 0.349205 0.261523
H4    H     H_    0.181250 0.970229 0.849237 0.261601
H5    H     H_    0.639451 0.394012 0.735043 0.170755
H6    H     H_    0.860665 0.605969 0.235062 0.170768
H7    H     H_    0.139305 0.105965 0.264933 0.170770
H8    H     H_    0.360153 0.893942 0.765030 0.170722
H9    H     H_    0.954242 0.529193 0.833110 0.257030
H10   H     H_    0.545772 0.470793 0.333106 0.257003
H11   H     H_    0.454219 0.970788 0.166895 0.256994
H12   H     H_    0.045705 0.029150 0.666877 0.257119
N1    N     N_R   0.078280 0.543153 0.699714 0.222580
O21   O     O_R   0.124998 0.486853 0.684118 -0.332520
O22   O     O_R   0.149792 0.590306 0.672361 -0.342928
N2    N     N_R   0.421727 0.456878 0.199705 0.222593
O23   O     O_R   0.375075 0.513185 0.184111 -0.332443
O24   O     O_R   0.350137 0.409735 0.172358 -0.342976
N3    N     N_R   0.578271 0.956884 0.300297 0.222596
O25   O     O_R   0.624908 0.013193 0.315890 -0.332426
O26   O     O_R   0.649877 0.909744 0.327643 -0.342987
N4    N     N_R   0.921701 0.043252 0.800257 0.222535
O27   O     O_R   0.874759 0.986975 0.815856 -0.332755
O28   O     O_R   0.850465 0.090437 0.827634 -0.342812
H13   H     H_    0.064283 0.477064 0.788820 0.277015
H14   H     H_    0.435724 0.522933 0.288832 0.277064
H15   H     H_    0.564275 0.022930 0.211164 0.277074
H16   H     H_    0.935692 0.977052 0.711216 0.276862
N5    N     N_R   0.954652 0.618515 0.763922 0.271524
O29   O     O_R   0.068291 0.627841 0.805660 -0.243917
O30   O     O_R   0.911065 0.667149 0.733213 -0.288307
N6    N     N_R   0.545273 0.381490 0.263904 0.271521
O31   O     O_R   0.431592 0.372167 0.305633 -0.243898
O32   O     O_R   0.588853 0.332859 0.233191 -0.288397
N7    N     N_R   0.454742 0.881491 0.236100 0.271520
O33   O     O_R   0.568434 0.872168 0.194374 -0.243908
O34   O     O_R   0.411164 0.832860 0.266814 -0.288401
N8    N     N_R   0.045558 0.118532 0.736017 0.271549
O35   O     O_R   0.931966 0.127860 0.694268 -0.243819
O36   O     O_R   0.089220 0.167172 0.766707 -0.288266
H17   H     H_    0.450027 0.540939 0.728637 0.194775
H18   H     H_    0.049971 0.459036 0.228652 0.194777
H19   H     H_    0.950029 0.959031 0.271344 0.194780
H20   H     H_    0.549981 0.040863 0.771411 0.194749
N9    N     N_R   0.545809 0.618050 0.772181 0.285031
O37   O     O_R   0.641240 0.643698 0.812644 -0.222791
O38   O     O_R   0.421836 0.651960 0.747092 -0.258219
N10   N     N_R   0.954114 0.381929 0.272185 0.285036
O39   O     O_R   0.858644 0.356283 0.312643 -0.222790
O40   O     O_R   0.078067 0.348008 0.247095 -0.258203
N11   N     N_R   0.045902 0.881925 0.227813 0.285040
O41   O     O_R   0.141381 0.856280 0.187356 -0.222800
O42   O     O_R   0.921953 0.848003 0.252904 -0.258200
N12   N     N_R   0.454401 0.117982 0.727836 0.285004
O43   O     O_R   0.359107 0.143639 0.687343 -0.222695
O44   O     O_R   0.578352 0.151884 0.752950 -0.258270
N13   N     N_R   0.585396 0.533962 0.860109 0.277623
O45   O     O_R   0.436747 0.562783 0.875943 -0.229906
O46   O     O_R   0.712333 0.525521 0.898057 -0.346355
N14   N     N_R   0.914543 0.466012 0.360121 0.277626
O47   O     O_R   0.063160 0.437173 0.375954 -0.229849
O48   O     O_R   0.787623 0.474476 0.398072 -0.346352
N15   N     N_R   0.085465 0.966007 0.139876 0.277625
O49   O     O_R   0.936853 0.937166 0.124043 -0.229846
O50   O     O_R   0.212380 0.974476 0.101924 -0.346355
N16   N     N_R   0.414769 0.033878 0.639928 0.277616
O51   O     O_R   0.563503 0.062648 0.624095 -0.230008
O52   O     O_R   0.287782 0.025502 0.601983 -0.346353
N17   N     N_R   0.428021 0.459251 0.803176 0.208145
O53   O     O_R   0.361383 0.437910 0.755795 -0.367209
O54   O     O_R   0.367472 0.435093 0.850411 -0.343063
N18   N     N_R   0.071990 0.540715 0.303199 0.208145
O55   O     O_R   0.138668 0.562052 0.255822 -0.367260
O56   O     O_R   0.132520 0.564869 0.350438 -0.343054
N19   N     N_R   0.928007 0.040710 0.196796 0.208147
O57   O     O_R   0.861315 0.062042 0.244172 -0.367267
O58   O     O_R   0.867491 0.064866 0.149557 -0.343055
N20   N     N_R   0.571941 0.959147 0.696900 0.208153
O59   O     O_R   0.638424 0.937780 0.744292 -0.367034
O60   O     O_R   0.632596 0.934998 0.649676 -0.343070
H21   H     H_    0.586365 0.469148 0.668398 0.230142
H22   H     H_    0.913703 0.530841 0.168409 0.230143
H23   H     H_    0.086284 0.030839 0.331589 0.230143
H24   H     H_    0.413438 0.969119 0.831638 0.230143
N21   N     N_R   0.914777 0.386681 0.721136 0.293371
O61   O     O_R   0.920552 0.359304 0.671727 -0.235696
O62   O     O_R   0.024901 0.366404 0.760471 -0.287996
N22   N     N_R   0.585363 0.613338 0.221138 0.293351
O63   O     O_R   0.579785 0.640780 0.171757 -0.235720
O64   O     O_R   0.475023 0.633538 0.260444 -0.287918
N23   N     N_R   0.414603 0.113341 0.278861 0.293346
O65   O     O_R   0.420130 0.140802 0.328235 -0.235724
O66   O     O_R   0.524998 0.133520 0.239563 -0.287900
N24   N     N_R   0.084724 0.886756 0.778867 0.293449
O67   O     O_R   0.078214 0.859618 0.828379 -0.235595
O68   O     O_R   0.975372 0.866203 0.739434 -0.288265

loop_
_geom_bond_atom_site_label_1
_geom_bond_atom_site_label_2
_geom_bond_distance
_ccdc_geom_bond_type
C34   C38   1.578300 S    
C15   C27   1.575498 S    
N23   O65   1.301715 A    
O1    C5    1.343320 A    
N21   O61   1.301712 A    
C31   C35   1.565403 S    
O19   V1    1.783730 S    
C20   N20   1.482982 S    
C19   N15   1.485751 S    
O15   V3    1.964451 S    
N10   O39   1.301255 A    
C18   C34   1.597827 S    
N6    O32   1.302306 A    
C15   H19   1.110197 S    
O7    C3    1.341117 A    
C38   H6    1.105675 S    
N1    O21   1.299114 A    
C25   C41   1.564756 S    
C40   C44   1.566411 S    
C12   N4    1.482450 S    
C10   N2    1.482477 S    
C14   C18   1.603060 S    
N17   O54   1.302823 A    
C30   C34   1.565402 S    
O4    C8    1.343320 A    
C19   N19   1.482912 S    
N22   O64   1.301179 A    
N19   O58   1.302831 A    
C36   C48   1.498338 S    
C9    C25   1.588594 S    
N15   O49   1.303220 A    
O1    V3    1.964269 S    
C10   N6    1.483082 S    
C42   H22   1.113201 S    
O2    V4    1.964258 S    
C33   C37   1.578294 S    
O3    V1    1.964259 S    
N24   O67   1.301813 A    
C32   H16   1.100349 S    
C31   H11   1.103372 S    
N8    O35   1.302473 A    
O3    C7    1.343314 A    
C1    O15   1.343573 A    
C2    O16   1.343572 A    
N7    O34   1.302297 A    
N2    O24   1.302248 A    
O2    C6    1.343304 A    
C20   N16   1.485766 S    
C11   N7    1.483087 S    
O14   V2    1.964455 S    
C18   N18   1.482913 S    
C13   N9    1.477863 S    
C12   C28   1.588622 S    
C19   C35   1.597827 S    
C39   H7    1.105689 S    
O11   C7    1.341282 A    
O12   C8    1.341277 A    
N20   O60   1.302796 A    
N21   O62   1.301251 A    
O10   V2    1.980643 S    
C11   N3    1.482473 S    
N6    O31   1.302483 A    
N16   O52   1.301269 A    
C44   H24   1.113201 S    
C9    C29   1.584703 S    
C16   H20   1.110196 S    
C39   C43   1.566249 S    
C10   C26   1.588580 S    
O7    V3    1.980685 S    
C14   C26   1.575496 S    
C30   H14   1.100207 S    
C21   C45   1.215707 T    
O8    V4    1.980707 S    
C18   N14   1.485757 S    
N14   O47   1.303216 A    
N5    O29   1.302484 A    
C38   C42   1.566260 S    
O18   V4    1.783736 S    
C34   C46   1.498298 S    
C15   C19   1.603062 S    
C28   C52   1.496744 S    
C16   C28   1.575430 S    
C16   N12   1.477826 S    
C11   C31   1.584677 S    
C32   C36   1.565423 S    
C31   H15   1.100199 S    
C44   H4    1.109401 S    
O5    C1    1.341128 A    
C12   C32   1.584774 S    
C43   H23   1.113193 S    
C42   H2    1.109439 S    
N23   O66   1.301149 A    
C9    N1    1.482472 S    
C39   N23   1.475681 S    
N3    O25   1.299131 A    
C16   C20   1.602953 S    
O8    C4    1.341125 A    
N2    O23   1.299119 A    
C5    C55   1.450677 S    
O9    C5    1.341278 A    
C27   C43   1.564737 S    
C43   H3    1.109445 S    
C7    C53   1.450673 S    
N4    O28   1.302231 A    
C14   N10   1.477818 S    
C26   C42   1.564738 S    
C26   C50   1.496718 S    
C23   C47   1.215704 T    
C13   C25   1.575458 S    
C14   H18   1.110197 S    
C37   H5    1.105641 S    
C30   H10   1.103372 S    
C13   H17   1.110189 S    
C8    C54   1.450678 S    
N22   O63   1.301696 A    
N3    O26   1.302240 A    
N18   O56   1.302838 A    
C10   C30   1.584686 S    
C29   H9    1.103396 S    
N20   O59   1.299391 A    
C25   C49   1.496728 S    
C9    N5    1.483073 S    
C24   C48   1.215711 T    
C40   N24   1.475695 S    
N11   O41   1.301248 A    
O5    V1    1.980711 S    
N19   O57   1.299376 A    
C12   N8    1.483097 S    
N16   O51   1.303239 A    
O16   V4    1.964462 S    
O9    V1    1.980621 S    
N15   O50   1.301266 A    
C3    O13   1.343574 A    
C29   C33   1.565404 S    
O6    V2    1.980688 S    
N13   O46   1.301265 A    
C17   N13   1.485755 S    
O17   V3    1.783736 S    
C52   C56   1.215661 T    
C27   C51   1.496716 S    
C4    C21   1.450718 S    
N11   O42   1.301102 A    
C28   C44   1.564786 S    
O6    C2    1.341118 A    
N12   O44   1.301127 A    
O11   V3    1.980636 S    
N12   O43   1.301288 A    
N14   O48   1.301264 A    
N10   O40   1.301096 A    
O12   V4    1.980615 S    
N13   O45   1.303225 A    
C35   C39   1.578301 S    
C36   C40   1.578338 S    
O10   C6    1.341274 A    
N5    O30   1.302311 A    
C17   C33   1.597830 S    
O13   V1    1.964467 S    
C11   C27   1.588575 S    
C41   H21   1.113200 S    
C38   N22   1.475685 S    
N9    O37   1.301230 A    
C15   N11   1.477827 S    
C20   C36   1.597878 S    
O20   V2    1.783730 S    
N24   O68   1.301370 A    
C37   N21   1.475676 S    
C37   C41   1.566296 S    
C13   C17   1.603035 S    
N4    O27   1.299111 A    
N8    O36   1.302289 A    
C22   C46   1.215707 T    
C6    C56   1.450673 S    
C29   H13   1.100242 S    
C32   H12   1.103427 S    
C17   N17   1.482928 S    
N18   O55   1.299377 A    
C1    C24   1.450727 S    
N1    O22   1.302244 A    
C50   C54   1.215660 T    
C4    O14   1.343569 A    
C2    C23   1.450721 S    
N9    O38   1.301090 A    
C49   C53   1.215666 T    
C41   H1    1.109426 S    
C3    C22   1.450718 S    
C33   C45   1.498314 S    
N17   O53   1.299393 A    
C51   C55   1.215663 T    
C40   H8    1.105573 S    
O4    V2    1.964271 S    
N7    O33   1.302485 A    
C35   C47   1.498299 S    
