data_mof_unit_10609.cif
_audit_creation_date              2012-12-11T15:21:33-0500
_audit_creation_method            fapswitch 2.2
_symmetry_space_group_name_H-M    P1
_symmetry_Int_Tables_number       1
_space_group_crystal_system       triclinic
_cell_length_a                    19.291913
_cell_length_b                    7.288995
_cell_length_c                    17.671122
_cell_angle_alpha                 90.000061
_cell_angle_beta                  108.754519
_cell_angle_gamma                 89.999896
_cell_volume                      2352.95368379

loop_
_atom_site_label
_atom_site_type_symbol
_atom_type_description
_atom_site_fract_x
_atom_site_fract_y
_atom_site_fract_z
_atom_type_partial_charge
O1    O     O_R   0.562310 0.505770 0.439670 -0.515835
O2    O     O_R   0.437690 0.005770 0.560330 -0.515840
O3    O     O_R   0.411650 0.169150 0.405330 -0.559208
O4    O     O_R   0.588350 0.669150 0.594670 -0.559208
C1    C     C_R   0.385803 0.346069 0.382030 0.710854
C2    C     C_R   0.614197 0.846069 0.617970 0.710865
O5    O     O_R   0.560140 0.175610 0.430010 -0.532546
O6    O     O_R   0.439860 0.675610 0.569990 -0.532556
O7    O     O_R   0.587240 0.012100 0.585200 -0.511237
O8    O     O_R   0.412760 0.512100 0.414800 -0.511240
C3    C     C_R   0.582497 0.343789 0.416993 0.747000
C4    C     C_R   0.417502 0.843789 0.583007 0.746989
O9    O     O_3   0.508720 0.341420 0.550890 -0.373716
O10   O     O_3   0.491280 0.841420 0.449110 -0.373708
V1    V     V_3+5 0.498380 0.063930 0.490560 1.607732
V2    V     V_3+5 0.501620 0.563930 0.509440 1.607721
C5    C     C_R   0.180087 0.050813 0.867635 0.541755
C6    C     C_R   0.819909 0.550805 0.132360 0.541729
C7    C     C_R   0.126435 0.917734 0.861918 -0.256225
C8    C     C_R   0.873565 0.417734 0.138081 -0.256225
C9    C     C_R   0.115737 0.777383 0.805261 0.496183
C10   C     C_R   0.884264 0.277384 0.194738 0.496183
C11   C     C_R   0.160482 0.763014 0.755441 -0.069839
C12   C     C_R   0.839513 0.262998 0.244550 -0.069852
C13   C     C_R   0.215048 0.898380 0.761652 -0.002243
C14   C     C_R   0.784947 0.398366 0.238342 -0.002223
C15   C     C_R   0.222574 0.048628 0.815503 -0.171354
C16   C     C_R   0.777422 0.548616 0.184492 -0.171346
C17   C     C_R   0.149630 0.622513 0.697111 -0.122331
C18   C     C_R   0.850356 0.122474 0.302869 -0.122298
C19   C     C_R   0.193258 0.616027 0.646155 -0.100413
C20   C     C_R   0.806728 0.115981 0.353823 -0.100402
C21   C     C_R   0.254493 0.736863 0.659172 0.065967
C22   C     C_R   0.745500 0.236840 0.340818 0.065959
C23   C     C_R   0.262356 0.883741 0.714503 -0.007827
C24   C     C_R   0.737640 0.383725 0.285491 -0.007809
C25   C     C_R   0.317617 0.017471 0.722828 -0.145351
C26   C     C_R   0.682380 0.517460 0.277168 -0.145338
C27   C     C_R   0.321564 0.170571 0.772542 0.733453
C28   C     C_R   0.678433 0.670561 0.227455 0.733450
C29   C     C_R   0.273441 0.190437 0.816881 -0.189843
C30   C     C_R   0.726553 0.690425 0.183113 -0.189852
C31   C     C_R   0.307979 0.717631 0.618652 -0.118395
C32   C     C_R   0.692018 0.217621 0.381344 -0.118369
C33   C     C_R   0.363385 0.852481 0.627929 -0.255522
C34   C     C_R   0.636614 0.352476 0.372069 -0.255520
C35   C     C_R   0.367353 0.000027 0.679944 0.718024
C36   C     C_R   0.632645 0.500020 0.320054 0.718022
C37   C     C_3   0.762613 0.749511 0.831607 0.991893
C38   C     C_3   0.237387 0.249510 0.168393 0.991892
C39   C     C_3   0.692517 0.718598 0.757080 0.217497
C40   C     C_3   0.307483 0.218598 0.242920 0.217498
C41   C     C_3   0.827794 0.866453 0.737061 1.173269
C42   C     C_3   0.172206 0.366455 0.262939 1.173277
C43   C     C_3   0.763216 0.091210 0.803210 0.332865
C44   C     C_3   0.236784 0.591210 0.196790 0.332864
C45   C     C_3   0.810485 0.911728 0.816134 -0.575806
C46   C     C_3   0.189515 0.411728 0.183866 -0.575813
C47   C     C_3   0.685529 0.867705 0.690974 -0.434589
C48   C     C_3   0.314471 0.367705 0.309026 -0.434585
C49   C     C_3   0.756302 0.871423 0.663016 -0.403582
C50   C     C_3   0.243698 0.371424 0.336984 -0.403586
C51   C     C_3   0.687120 0.059493 0.733526 0.344313
C52   C     C_3   0.312879 0.559492 0.266474 0.344314
H1    H     H_    0.757392 0.004878 0.633211 0.237935
H2    H     H_    0.242608 0.504879 0.366790 0.237932
O11   O     O_R   0.087220 0.271820 0.085230 -0.485250
O12   O     O_R   0.912780 0.771820 0.914770 -0.485252
O13   O     O_R   0.939860 0.595540 0.069990 -0.518364
O14   O     O_R   0.060140 0.095540 0.930010 -0.518361
C53   C     C_R   0.919920 0.426847 0.085341 0.841037
C54   C     C_R   0.080080 0.926847 0.914659 0.841032
O15   O     O_R   0.088340 0.601930 0.094680 -0.523729
O16   O     O_R   0.911660 0.101930 0.905320 -0.523730
O17   O     O_R   0.062310 0.765410 0.939660 -0.536048
O18   O     O_R   0.937690 0.265410 0.060340 -0.536058
C55   C     C_R   0.116657 0.431828 0.115285 0.804092
C56   C     C_R   0.883343 0.931828 0.884715 0.804083
O19   O     O_3   0.991270 0.429630 0.949130 -0.365264
O20   O     O_3   0.008730 0.929630 0.050870 -0.365270
V3    V     V_3+5 0.001620 0.707150 0.009440 1.839831
V4    V     V_3+5 0.998380 0.207150 0.990560 1.839832
F1    F     F_    0.193910 0.173384 0.928618 -0.632975
F2    F     F_    0.806086 0.673376 0.071377 -0.632979
F3    F     F_    0.741553 0.786818 0.897937 -0.578940
F4    F     F_    0.258447 0.286817 0.102063 -0.578940
F5    F     F_    0.631048 0.722211 0.781508 -0.599779
F6    F     F_    0.368952 0.222210 0.218493 -0.599779
C57   C     C_2   0.692223 0.533078 0.723457 0.715137
H3    H     H_    0.646072 0.444971 0.719298 0.094543
O21   O     O_2   0.740883 0.484621 0.698013 -0.434742
C58   C     C_2   0.307777 0.033078 0.276543 0.715136
H4    H     H_    0.353928 0.944971 0.280703 0.094544
O22   O     O_2   0.259117 0.984622 0.301987 -0.434743
F7    F     F_    0.861384 0.696104 0.743887 -0.541939
F8    F     F_    0.138616 0.196106 0.256113 -0.541934
C59   C     C_2   0.757522 0.739632 0.597063 0.597518
H5    H     H_    0.709548 0.660817 0.564713 0.041349
O23   O     O_2   0.812019 0.726943 0.576531 -0.434173
C60   C     C_2   0.242478 0.239633 0.402937 0.597523
H6    H     H_    0.290452 0.160818 0.435287 0.041336
O24   O     O_2   0.187981 0.226943 0.423469 -0.434159
F9    F     F_    0.803268 0.223159 0.779278 -0.496841
F10   F     F_    0.196732 0.723159 0.220722 -0.496840
C61   C     C_2   0.755539 0.165094 0.880874 0.617878
H7    H     H_    0.779596 0.094095 0.937158 0.042900
O25   O     O_2   0.724236 0.310162 0.881809 -0.448660
C62   C     C_2   0.244461 0.665092 0.119126 0.617877
H8    H     H_    0.220404 0.594093 0.062842 0.042907
O26   O     O_2   0.275764 0.810161 0.118191 -0.448659
C63   C     C_2   0.618124 0.093418 0.756506 0.575835
H9    H     H_    0.571096 0.157962 0.713584 0.113420
O27   O     O_2   0.613009 0.046951 0.820896 -0.422322
C64   C     C_2   0.381875 0.593417 0.243494 0.575835
H10   H     H_    0.428904 0.657961 0.286416 0.113423
O28   O     O_2   0.386991 0.546949 0.179104 -0.422322
F11   F     F_    0.683823 0.186518 0.675125 -0.667996
F12   F     F_    0.316177 0.686518 0.324875 -0.667997
F13   F     F_    0.877186 0.993170 0.725500 -0.577458
F14   F     F_    0.122814 0.493172 0.274500 -0.577449
F15   F     F_    0.059474 0.659359 0.798116 -0.638135
F16   F     F_    0.940537 0.159386 0.201894 -0.638114
C65   C     C_2   0.091571 0.482207 0.687686 0.696534
H11   H     H_    0.095438 0.385909 0.735736 0.041329
O29   O     O_2   0.038649 0.476390 0.626966 -0.441712
C66   C     C_2   0.908399 0.982134 0.312273 0.696435
H12   H     H_    0.904537 0.885907 0.264200 0.041346
O30   O     O_2   0.961307 0.976205 0.373004 -0.441729
C67   C     C_2   0.169404 0.493825 0.574959 0.551385
H13   H     H_    0.163546 0.549157 0.516195 0.084623
O31   O     O_2   0.158476 0.330481 0.581722 -0.484197
C68   C     C_2   0.830568 0.993727 0.425001 0.551386
H14   H     H_    0.836452 0.049029 0.483776 0.084638
O32   O     O_2   0.841460 0.830372 0.418210 -0.484226
C69   C     C_2   0.309869 0.554168 0.569528 0.468055
H15   H     H_    0.306443 0.570773 0.507453 0.015374
O33   O     O_2   0.318666 0.401278 0.599236 -0.480261
C70   C     C_2   0.690129 0.054172 0.430476 0.468031
H16   H     H_    0.693576 0.070792 0.492555 0.015371
O34   O     O_2   0.681306 0.901282 0.400768 -0.480234
F17   F     F_    0.422811 0.123097 0.691621 -0.592976
F18   F     F_    0.577187 0.623091 0.308377 -0.592966
F19   F     F_    0.370325 0.307234 0.775174 -0.541138
F20   F     F_    0.629673 0.807226 0.224825 -0.541145
C71   C     C_2   0.273887 0.367409 0.859136 0.683284
H17   H     H_    0.223211 0.425253 0.862593 0.033118
O35   O     O_2   0.330665 0.452082 0.889567 -0.422519
C72   C     C_2   0.726104 0.867391 0.140854 0.683302
H18   H     H_    0.776777 0.925244 0.137396 0.033084
O36   O     O_2   0.669323 0.952051 0.110419 -0.422512
F21   F     F_    0.803504 0.589118 0.849716 -0.564675
F22   F     F_    0.196496 0.089117 0.150284 -0.564675

loop_
_geom_bond_atom_site_label_1
_geom_bond_atom_site_label_2
_ccdc_geom_bond_type
C18   C20   A    
C18   C66   S    
C66   H12   S    
C42   F14   S    
C41   F7    S    
C63   H9    S    
O1    C3    A    
C30   C72   S    
C2    O7    A    
C71   H17   S    
C27   F19   S    
C52   F12   S    
C65   H11   S    
C27   C29   A    
O5    C3    A    
C61   O25   D    
C43   C61   S    
O12   V3    S    
C11   C17   A    
C58   H4    S    
C23   C25   A    
C12   C14   A    
C67   H13   S    
C53   O18   A    
C51   F11   S    
C65   O29   D    
C59   H5    S    
C37   C45   S    
C62   H8    S    
C6    C8    A    
C48   C50   S    
C16   C30   A    
O13   C53   A    
C44   C62   S    
C40   C48   S    
C46   C55   S    
C59   O23   D    
C41   C49   S    
C44   C46   S    
C68   H14   S    
C37   C39   S    
C43   C51   S    
C38   C40   S    
C44   C52   S    
C8    C53   S    
C25   C35   A    
C26   C36   A    
C69   H15   S    
O2    C4    A    
O6    V2    S    
C32   C70   S    
C7    C54   S    
O16   V4    S    
C54   O17   A    
C2    C47   S    
O15   V3    S    
C14   C16   A    
C71   O35   D    
C32   C34   A    
C10   F16   S    
C33   C35   A    
O12   C56   A    
C34   C36   A    
C47   C49   S    
C52   C64   S    
C19   C21   A    
C50   H2    S    
C5    C15   A    
C9    F15   S    
C37   F3    S    
C40   F6    S    
C6    C16   A    
C72   H18   S    
C44   F10   S    
O4    C2    A    
C39   F5    S    
C37   F21   S    
O17   V3    S    
O5    V1    S    
C42   C50   S    
C5    F1    S    
C21   C31   A    
O4    V2    S    
C43   C45   S    
C38   F22   S    
O11   C55   A    
C15   C29   A    
C6    F2    S    
O6    C4    A    
C58   O22   D    
C38   C46   S    
C36   F18   S    
C63   O27   D    
O1    V2    S    
C43   F9    S    
C31   C69   S    
O2    V1    S    
C31   C33   A    
C70   O34   D    
C13   C23   A    
C68   O32   D    
C50   C60   S    
C14   C24   A    
C8    C10   A    
C9    C11   A    
C10   C12   A    
C40   C58   S    
C39   C47   S    
O18   V4    S    
C24   C26   A    
C20   C68   S    
O3    V1    S    
C60   O24   D    
C42   C46   S    
C69   O33   D    
C22   C32   A    
C66   O30   D    
C1    C48   S    
C7    C9    A    
C17   C19   A    
C42   F8    S    
C45   C56   S    
C49   C59   S    
C72   O36   D    
O20   V3    S    
O3    C1    A    
C41   C45   S    
O19   V4    S    
C64   O28   D    
C41   F13   S    
C64   H10   S    
C4    C33   S    
C13   C15   A    
C61   H7    S    
C35   F17   S    
C47   C51   S    
C48   C52   S    
C28   F20   S    
O7    V1    S    
C1    O8    A    
C25   C27   A    
O8    V2    S    
C39   C57   S    
C26   C28   A    
C17   C65   S    
C28   C30   A    
C60   H6    S    
C21   C23   A    
C62   O26   D    
C22   C24   A    
C11   C13   A    
C51   C63   S    
O14   V4    S    
C12   C18   A    
O13   V3    S    
C70   H16   S    
C38   F4    S    
C5    C7    A    
C49   H1    S    
C29   C71   S    
O11   V4    S    
C19   C67   S    
C57   O21   D    
O16   C56   A    
O9    V2    S    
O15   C55   A    
O10   V1    S    
C3    C34   S    
O14   C54   A    
C57   H3    S    
C20   C22   A    
C67   O31   D    
