data_mof_unit_54107.cif
_audit_creation_date              2012-12-10T20:46:52-0500
_audit_creation_method            fapswitch 2.2
_symmetry_space_group_name_H-M    P1
_symmetry_Int_Tables_number       1
_space_group_crystal_system       triclinic
_cell_length_a                    12.907815
_cell_length_b                    8.917638
_cell_length_c                    8.104328
_cell_angle_alpha                 90.00124
_cell_angle_beta                  96.685855
_cell_angle_gamma                 89.998839
_cell_volume                      926.522646095

loop_
_atom_site_label
_atom_site_type_symbol
_atom_type_description
_atom_site_fract_x
_atom_site_fract_y
_atom_site_fract_z
_atom_type_partial_charge
C1    C     C_R   0.500000 0.218012 0.499999 0.888452
C2    C     C_R   0.873731 0.470790 0.709568 0.312407
C3    C     C_R   0.137187 0.426945 0.590166 0.430812
C4    C     C_R   0.862818 0.426971 0.409820 0.430792
C5    C     C_R   0.029325 0.430861 0.578723 -0.070351
C6    C     C_R   0.970679 0.430881 0.421267 -0.070370
C7    C     C_1   0.500000 0.065245 0.499998 -0.196995
C8    C     C_1   0.500000 0.934803 0.500002 -0.187525
C9    C     C_3   0.771046 0.250806 0.246344 0.178428
C10   C     C_3   0.850870 0.149449 0.175039 -0.433641
C11   C     C_3   0.809012 0.990312 0.146614 -0.844232
C12   C     C_R   0.500000 0.781999 0.500001 0.938215
C13   C     C_3   0.228977 0.250742 0.753554 0.178337
C14   C     C_3   0.149197 0.149366 0.824920 -0.433611
C15   C     C_3   0.191057 0.990218 0.853200 -0.844256
C16   C     C_R   0.297364 0.492616 0.468029 0.925479
C17   C     C_R   0.702637 0.492617 0.531971 0.925479
C18   C     C_R   0.814125 0.463975 0.551855 -0.285863
C19   C     C_R   0.185878 0.463976 0.448139 -0.285885
C20   C     C_R   0.020275 0.443743 0.277849 -0.212541
C21   C     C_R   0.979728 0.443694 0.722144 -0.212533
C22   C     C_R   0.126272 0.470826 0.290429 0.312409
Cl1   Cl    Cl    0.823107 0.521443 0.894759 -0.591645
Cl2   Cl    Cl    0.176893 0.521512 0.105246 -0.591617
H1    H     H_    0.975938 0.446639 0.156318 0.248131
H2    H     H_    0.302736 0.248287 0.839199 0.184591
H3    H     H_    0.248315 0.205472 0.632310 0.085287
H4    H     H_    0.130317 0.196086 0.945036 0.257169
H5    H     H_    0.076336 0.144774 0.737417 0.218778
H6    H     H_    0.209216 0.940489 0.734189 0.262345
H7    H     H_    0.131383 0.919487 0.903861 0.288154
H8    H     H_    0.262728 0.990778 0.943538 0.267424
H9    H     H_    0.024065 0.446556 0.843677 0.248108
H10   H     H_    0.697316 0.248357 0.160632 0.184604
H11   H     H_    0.751664 0.205516 0.367551 0.085281
H12   H     H_    0.869820 0.196212 0.054981 0.257176
H13   H     H_    0.923692 0.144816 0.262630 0.218754
H14   H     H_    0.790723 0.940565 0.265543 0.262353
H15   H     H_    0.868740 0.919572 0.096096 0.288128
H16   H     H_    0.737420 0.990912 0.056110 0.267427
N1    N     N_1   0.500020 0.500000 0.073640 0.000088
N2    N     N_1   0.499980 0.500000 0.926360 0.000087
O1    O     O_R   0.499990 0.285340 0.636850 -0.637374
O2    O     O_3   0.193872 0.401478 0.743758 -0.578437
O3    O     O_R   0.500010 0.714660 0.363150 -0.611932
O4    O     O_R   0.500010 0.285340 0.363150 -0.637360
O5    O     O_R   0.499990 0.714660 0.636850 -0.611939
O6    O     O_R   0.346350 0.500000 0.614250 -0.586074
O7    O     O_R   0.653650 0.500000 0.385750 -0.586079
O8    O     O_R   0.346360 0.500000 0.340500 -0.564701
O9    O     O_R   0.653640 0.500000 0.659500 -0.564698
O10   O     O_3   0.806135 0.401546 0.256216 -0.578427
Zn1   Zn    Zn3+2 0.499990 0.500000 0.682780 1.036694
Zn2   Zn    Zn3+2 0.500010 0.500000 0.317220 1.036699

loop_
_geom_bond_atom_site_label_1
_geom_bond_atom_site_label_2
_ccdc_geom_bond_type
C11   H14   S    
N1    N2    T    
C3    C19   A    
C13   H2    S    
C2    C18   A    
C6    C20   A    
C9    C10   S    
O5    Zn1   S    
C8    C12   S    
C4    C18   A    
C17   O9    A    
C2    C21   A    
C12   O5    A    
C17   C18   S    
C15   H8    S    
C13   C14   S    
C11   H15   S    
N1    Zn2   S    
O4    Zn2   S    
O8    Zn2   S    
C9    O10   S    
C4    O10   S    
C10   H13   S    
C5    C6    A    
C16   O8    A    
O3    Zn2   S    
C16   C19   S    
N2    Zn1   S    
O6    Zn1   S    
C3    O2    S    
C22   Cl2   S    
C1    O4    A    
C21   H9    S    
C20   H1    S    
C20   C22   A    
C14   H5    S    
C11   H16   S    
C3    C5    A    
C7    C8    T    
C19   C22   A    
C5    C21   A    
C16   O6    A    
C15   H6    S    
C4    C6    A    
C10   C11   S    
C17   O7    A    
C2    Cl1   S    
C9    H11   S    
C14   C15   S    
C13   H3    S    
C10   H12   S    
C14   H4    S    
C1    C7    S    
O1    Zn1   S    
C15   H7    S    
C1    O1    A    
C13   O2    S    
O7    Zn2   S    
C9    H10   S    
C12   O3    A    
O9    Zn1   S    
