data_mof_unit_53516.cif
_audit_creation_date              2012-12-11T17:11:37-0500
_audit_creation_method            fapswitch 2.2
_symmetry_space_group_name_H-M    P1
_symmetry_Int_Tables_number       1
_space_group_crystal_system       triclinic
_cell_length_a                    14.957602
_cell_length_b                    6.933972
_cell_length_c                    13.641503
_cell_angle_alpha                 89.931737
_cell_angle_beta                  100.770012
_cell_angle_gamma                 90.101132
_cell_volume                      1389.91180142

loop_
_atom_site_label
_atom_site_type_symbol
_atom_type_description
_atom_site_fract_x
_atom_site_fract_y
_atom_site_fract_z
_atom_type_partial_charge
O1    O     O_R   0.398250 0.605080 0.401520 -0.535434
O2    O     O_R   0.898250 0.394920 0.901520 -0.537562
O3    O     O_R   0.584130 0.932110 0.405450 -0.541612
O4    O     O_R   0.084130 0.067890 0.905450 -0.539381
O5    O     O_R   0.601750 0.105090 0.598480 -0.536578
O6    O     O_R   0.101750 0.894910 0.098480 -0.534641
C1    C     C_R   0.614837 0.765143 0.386182 0.732323
C2    C     C_R   0.110782 0.236022 0.881628 0.732570
O7    O     O_R   0.397870 0.934620 0.389680 -0.537947
O8    O     O_R   0.897870 0.065380 0.889680 -0.537179
O9    O     O_R   0.414160 0.107620 0.582600 -0.538461
O10   O     O_R   0.914160 0.892380 0.082600 -0.538001
C3    C     C_R   0.363967 0.765681 0.362663 0.737734
C4    C     C_R   0.864061 0.234253 0.862531 0.726530
O11   O     O_R   0.585840 0.602550 0.417400 -0.544068
O12   O     O_R   0.085840 0.397450 0.917400 -0.543317
O13   O     O_3   0.505560 0.772440 0.563310 -0.370340
O14   O     O_3   0.005560 0.227560 0.063310 -0.368317
V1    V     V_3+5 0.498970 0.046250 0.488250 1.409388
V2    V     V_3+5 0.998970 0.953750 0.988250 1.409518
O15   O     O_R   0.415870 0.437500 0.594550 -0.545400
O16   O     O_R   0.915870 0.562500 0.094550 -0.545423
C5    C     C_R   0.386015 0.269490 0.614236 0.757181
C6    C     C_R   0.887624 0.730434 0.116111 0.758755
O17   O     O_R   0.602130 0.434980 0.610320 -0.540495
O18   O     O_R   0.102130 0.565020 0.110320 -0.537903
C7    C     C_R   0.635750 0.265864 0.637642 0.738877
C8    C     C_R   0.136002 0.734128 0.137320 0.735913
V3    V     V_3+5 0.501030 0.546580 0.511750 1.404005
V4    V     V_3+5 0.001030 0.453420 0.011750 1.404863
O19   O     O_3   0.494440 0.270520 0.436690 -0.372596
O20   O     O_3   0.994440 0.729480 0.936690 -0.376409
C9    C     C_1   0.716200 0.255127 0.717070 -0.185650
C10   C     C_1   0.216326 0.744849 0.216903 -0.188694
C11   C     C_1   0.783644 0.244884 0.783068 -0.192398
C12   C     C_1   0.283625 0.754958 0.283103 -0.190771
C13   C     C_2   0.269421 0.108165 0.693275 -0.165060
C14   C     C_2   0.786049 0.896151 0.212037 -0.164191
C15   C     C_2   0.314794 0.268638 0.676397 -0.338396
C16   C     C_2   0.825092 0.733076 0.188184 -0.341409
H1    H     H_    0.287692 0.973966 0.661058 0.135804
H2    H     H_    0.800752 0.029098 0.175839 0.137535
H3    H     H_    0.295805 0.407414 0.702642 0.129476
H4    H     H_    0.814432 0.598339 0.224911 0.129449
C17   C     C_2   0.191347 0.101891 0.748166 0.114474
C18   C     C_2   0.730016 0.911614 0.291669 0.115776
C19   C     C_2   0.178341 0.243174 0.814279 -0.327585
C20   C     C_2   0.679958 0.758926 0.315930 -0.332476
H5    H     H_    0.222109 0.368954 0.823795 0.110662
H6    H     H_    0.683480 0.621657 0.278827 0.115094
C21   C     C_3   0.129137 0.926345 0.726279 -0.320116
C22   C     C_3   0.032811 0.982042 0.672837 -0.284552
C23   C     C_3   0.971024 0.805176 0.654164 -0.762332
H7    H     H_    0.997735 0.701093 0.604931 0.218027
H8    H     H_    0.966334 0.733265 0.725819 0.242416
H9    H     H_    0.901612 0.849853 0.617361 0.208999
H10   H     H_    0.001581 0.087103 0.717589 0.185261
H11   H     H_    0.036540 0.050895 0.600053 0.186392
H12   H     H_    0.156804 0.824251 0.676697 0.145056
H13   H     H_    0.127737 0.842618 0.795257 0.191142
C24   C     C_3   0.734456 0.107932 0.342676 -0.313568
C25   C     C_3   0.789205 0.098114 0.449622 -0.297567
C26   C     C_3   0.809281 0.299520 0.493496 -0.783859
H14   H     H_    0.744982 0.379507 0.492881 0.233672
H15   H     H_    0.852088 0.381779 0.449645 0.223448
H16   H     H_    0.846725 0.287642 0.571618 0.214932
H17   H     H_    0.751247 0.014650 0.498064 0.194264
H18   H     H_    0.855074 0.024069 0.449478 0.194784
H19   H     H_    0.769185 0.213414 0.300919 0.147326
H20   H     H_    0.665985 0.170563 0.340184 0.188047

loop_
_geom_bond_atom_site_label_1
_geom_bond_atom_site_label_2
_ccdc_geom_bond_type
C24   H20   S    
O6    V2    S    
V4    O20   S    
C26   H15   S    
O3    V1    S    
C25   C26   S    
O5    V1    S    
O17   C7    A    
O13   V3    S    
O10   C6    A    
O18   C8    A    
C25   H18   S    
O4    C2    A    
V1    O19   S    
C1    C20   S    
O10   V2    S    
C2    O12   A    
C1    O11   A    
C2    C19   S    
C8    C10   S    
C13   C15   D    
O16   V4    S    
C23   H7    S    
C7    C9    S    
O17   V3    S    
C14   C16   D    
O9    V1    S    
O1    V3    S    
C6    C16   S    
C17   C19   D    
C22   H11   S    
C25   H17   S    
C3    C12   S    
V3    O19   S    
C5    C15   S    
C20   H6    S    
C9    C11   T    
V2    O20   S    
O11   V3    S    
O3    C1    A    
C10   C12   T    
C23   H8    S    
O15   C5    A    
C13   H1    S    
C24   C25   S    
O2    C4    A    
O16   C6    A    
C26   H16   S    
C21   H12   S    
O2    V4    S    
C17   C21   S    
O14   V4    S    
C13   C17   S    
C22   H10   S    
O4    V2    S    
C18   C20   D    
C16   H4    S    
O1    C3    A    
C22   C23   S    
O14   V2    S    
C19   H5    S    
O7    V1    S    
O8    C4    A    
C23   H9    S    
C24   H19   S    
O9    C5    A    
O7    C3    A    
O13   V1    S    
C15   H3    S    
C21   H13   S    
C18   C24   S    
C14   C18   S    
O5    C7    A    
O15   V3    S    
O12   V4    S    
C4    C11   S    
C14   H2    S    
O6    C8    A    
C21   C22   S    
O8    V2    S    
C26   H14   S    
O18   V4    S    
