data_mof_unit_30384.cif
_audit_creation_date              2012-12-10T18:10:56-0500
_audit_creation_method            fapswitch 2.2
_symmetry_space_group_name_H-M    P1
_symmetry_Int_Tables_number       1
_space_group_crystal_system       triclinic
_cell_length_a                    12.616014
_cell_length_b                    13.130653
_cell_length_c                    15.713713
_cell_angle_alpha                 90.517422
_cell_angle_beta                  103.084466
_cell_angle_gamma                 82.272976
_cell_volume                      2511.85533185

loop_
_atom_site_label
_atom_site_type_symbol
_atom_type_description
_atom_site_fract_x
_atom_site_fract_y
_atom_site_fract_z
_atom_type_partial_charge
C1    C     C_R   0.438654 0.691220 0.486487 0.844871
C2    C     C_R   0.596244 0.200016 0.500478 -0.052252
C3    C     C_R   0.299258 0.838689 0.496733 -0.192580
C4    C     C_R   0.501464 0.499935 0.661636 0.905057
C5    C     C_R   0.270157 0.943709 0.503214 -0.150847
C6    C     C_R   0.343545 0.010934 0.494495 -0.182866
C7    C     C_R   0.445911 0.973763 0.474713 0.083792
C8    C     C_R   0.466719 0.869493 0.454284 0.082539
C9    C     C_R   0.528500 0.036482 0.474709 0.076425
C10   C     C_R   0.621005 0.000133 0.440224 0.169737
C11   C     C_R   0.631324 0.901175 0.407756 -0.247423
C12   C     C_3   0.383229 0.496921 0.024972 0.389415
C13   C     C_R   0.555260 0.836369 0.414805 -0.198050
C14   C     C_R   0.522671 0.133814 0.510198 -0.224899
C15   C     C_R   0.687570 0.164802 0.466404 -0.204817
C16   C     C_R   0.561086 0.308698 0.508553 0.859719
C17   C     C_R   0.399077 0.800871 0.475228 -0.111330
C18   C     C_R   0.086381 0.347777 0.378874 -0.411219
C19   C     C_R   0.799775 0.630485 0.601814 0.021813
C20   C     C_R   0.904467 0.658994 0.623492 -0.258197
C21   C     C_R   0.986020 0.609398 0.585253 -0.198556
C22   C     C_R   0.962967 0.530251 0.525042 0.040219
C23   C     C_3   0.501197 0.489731 0.082955 0.171262
C24   C     C_R   0.854819 0.503853 0.505482 0.230651
C25   C     C_R   0.042102 0.476930 0.483154 -0.008786
C26   C     C_R   0.011038 0.399500 0.422448 0.129290
C27   C     C_R   0.904873 0.374279 0.405451 -0.261163
C28   C     C_R   0.498878 0.499174 0.338457 0.888077
C29   C     C_R   0.828192 0.425571 0.446633 -0.209613
C30   C     C_R   0.151440 0.496797 0.498917 -0.160036
C31   C     C_R   0.192497 0.373829 0.394472 0.630690
C32   C     C_3   0.390578 0.490264 0.928178 -0.496957
C33   C     C_3   0.554410 0.585076 0.963089 -0.354072
C34   C     C_3   0.567607 0.387499 0.063543 -0.470067
C35   C     C_3   0.557675 0.581019 0.061537 -0.342785
C36   C     C_1   0.497276 0.495138 0.249229 -0.203363
C37   C     C_3   0.511580 0.487617 0.919489 0.116627
C38   C     C_3   0.231351 0.578909 0.074727 0.094714
C39   C     C_3   0.132132 0.558097 0.003356 -0.368799
C40   C     C_3   0.030907 0.555120 0.040619 -0.956669
C41   C     C_3   0.238157 0.337963 0.261819 0.068848
C42   C     C_3   0.231241 0.233910 0.217944 -0.342854
C43   C     C_3   0.201632 0.246386 0.118515 -0.962222
C44   C     C_2   0.555013 0.288833 0.925520 0.308615
C45   C     C_3   0.586079 0.388666 0.968275 0.480356
C46   C     C_3   0.738222 0.388744 0.899020 0.118878
C47   C     C_3   0.856713 0.335326 0.918059 -0.319577
C48   C     C_3   0.907344 0.341228 0.839040 -0.961514
C49   C     C_1   0.497994 0.491851 0.173975 -0.077418
C50   C     C_1   0.509783 0.492262 0.827401 -0.143058
C51   C     C_1   0.506160 0.496453 0.751413 -0.197613
C52   C     C_R   0.700974 0.064099 0.437726 -0.195052
H1    H     H_    0.356460 0.420637 0.899325 0.120959
H2    H     H_    0.192502 0.972846 0.518793 0.143736
H3    H     H_    0.337780 0.557135 0.890247 0.224537
H4    H     H_    0.565782 0.760481 0.387988 0.173293
H5    H     H_    0.880689 0.314687 0.359737 0.153969
H6    H     H_    0.063025 0.288169 0.333055 0.156247
H7    H     H_    0.183078 0.552667 0.544915 0.150580
H8    H     H_    0.736004 0.668886 0.631209 0.143308
H9    H     H_    0.065608 0.634845 0.603824 0.136748
H10   H     H_    0.922313 0.719546 0.669613 0.152849
H11   H     H_    0.748344 0.402416 0.430867 0.209117
H12   H     H_    0.345963 0.428518 0.040007 0.034904
H13   H     H_    0.637771 0.591960 0.953370 0.183286
H14   H     H_    0.499494 0.655194 0.932871 0.188881
H15   H     H_    0.516339 0.655066 0.080847 0.201604
H16   H     H_    0.644627 0.571857 0.099210 0.180648
H17   H     H_    0.523300 0.322717 0.074887 0.149311
H18   H     H_    0.208914 0.651715 0.106956 0.171154
H19   H     H_    0.252658 0.517837 0.126898 0.113241
H20   H     H_    0.113780 0.619800 0.952102 0.234589
H21   H     H_    0.151040 0.483407 0.972493 0.213609
H22   H     H_    0.045461 0.490687 0.088977 0.258532
H23   H     H_    0.648152 0.374663 0.111758 0.222941
H24   H     H_    0.959659 0.543974 0.986876 0.269084
H25   H     H_    0.010772 0.628633 0.072706 0.266462
H26   H     H_    0.302570 0.374306 0.240441 0.172285
H27   H     H_    0.159325 0.390006 0.238064 0.106824
H28   H     H_    0.311775 0.184416 0.238380 0.238782
H29   H     H_    0.168097 0.195136 0.238915 0.217191
H30   H     H_    0.120250 0.293892 0.096408 0.264687
H31   H     H_    0.197760 0.169682 0.088562 0.273551
H32   H     H_    0.264752 0.283506 0.095905 0.255405
H33   H     H_    0.488368 0.289681 0.868047 0.045650
H34   H     H_    0.745130 0.215954 0.458111 0.149148
H35   H     H_    0.736466 0.468378 0.874931 0.145910
H36   H     H_    0.688922 0.346053 0.846485 0.132955
H37   H     H_    0.906876 0.371919 0.974315 0.228062
H38   H     H_    0.858356 0.253333 0.935976 0.241930
H39   H     H_    0.859226 0.303920 0.782139 0.272364
H40   H     H_    0.992853 0.300933 0.854863 0.267359
H41   H     H_    0.909255 0.422674 0.821603 0.266093
H42   H     H_    0.699414 0.873085 0.378550 0.151636
H43   H     H_    0.771322 0.037517 0.410705 0.137473
H44   H     H_    0.458623 0.161767 0.543289 0.147706
H45   H     H_    0.245261 0.786954 0.511143 0.152586
H46   H     H_    0.317020 0.091598 0.501342 0.145579
N1    N     N_R   0.222200 0.444690 0.455710 -0.135870
N2    N     N_R   0.776960 0.554780 0.543830 -0.131374
O1    O     O_R   0.366740 0.627160 0.478850 -0.619838
O2    O     O_3   0.270489 0.323188 0.353879 -0.617619
O3    O     O_2   0.605757 0.206217 0.955231 -0.549032
O4    O     O_3   0.700972 0.393183 0.977804 -0.632866
O5    O     O_R   0.544830 0.662520 0.507140 -0.617811
O6    O     O_R   0.410920 0.482310 0.608710 -0.614052
O7    O     O_R   0.589010 0.517670 0.637000 -0.617081
O8    O     O_R   0.455170 0.337480 0.492860 -0.565539
O9    O     O_R   0.633260 0.372840 0.521150 -0.642472
O10   O     O_R   0.410990 0.482330 0.363000 -0.594687
O11   O     O_R   0.589080 0.517690 0.391290 -0.634892
O12   O     O_3   0.321195 0.592305 0.037907 -0.633559
Zn1   Zn    Zn3+2 0.381090 0.476390 0.481110 0.968582
Zn2   Zn    Zn3+2 0.618910 0.523610 0.518890 0.924398

loop_
_geom_bond_atom_site_label_1
_geom_bond_atom_site_label_2
_ccdc_geom_bond_type
C38   H18   S    
C42   H28   S    
C8    C13   A    
C27   C29   A    
O1    Zn1   S    
C41   C42   S    
C19   C20   A    
C18   C26   A    
C10   C52   A    
C29   H11   S    
C33   H13   S    
C7    C8    A    
C12   C23   S    
C26   C27   A    
C6    H46   S    
C38   C39   S    
C12   H12   S    
C23   C49   S    
C43   H31   S    
C41   O2    S    
C52   H43   S    
C3    H45   S    
C24   C29   A    
C46   C47   S    
C18   H6    S    
C22   C25   A    
C16   O9    A    
C39   H20   S    
C31   N1    A    
C2    C16   S    
C9    C10   A    
C32   H3    S    
C21   H9    S    
C34   H23   S    
C13   H4    S    
C21   C22   A    
C12   C32   S    
C43   H32   S    
C47   H37   S    
C42   H29   S    
C14   H44   S    
C44   O3    D    
C33   H14   S    
C46   H36   S    
C28   O11   A    
C4    O7    A    
C48   H41   S    
C4    C51   S    
C31   O2    S    
O5    Zn2   S    
N2    Zn2   S    
C27   H5    S    
C41   H26   S    
O6    Zn1   S    
C28   O10   A    
C25   C26   A    
C15   C52   A    
C46   O4    S    
C30   N1    A    
C48   H39   S    
C33   C37   S    
C40   H24   S    
O8    Zn1   S    
C9    C14   A    
O7    Zn2   S    
N1    Zn1   S    
C45   O4    S    
C5    H2    S    
C47   C48   S    
O10   Zn1   S    
C35   H15   S    
C23   C34   S    
C30   H7    S    
C50   C51   T    
C34   C45   S    
C32   C37   S    
C2    C15   A    
C34   H17   S    
O9    Zn2   S    
C15   H34   S    
C11   H42   S    
C23   C35   S    
C47   H38   S    
C22   C24   A    
C42   C43   S    
C38   O12   S    
C44   H33   S    
C1    O1    A    
C32   H1    S    
C12   O12   S    
C44   C45   S    
C46   H35   S    
C25   C30   A    
C7    C9    A    
C38   H19   S    
C24   N2    A    
C3    C5    A    
C41   H27   S    
C19   N2    A    
C6    C7    A    
C19   H8    S    
C1    C17   S    
C8    C17   A    
C37   C50   S    
C11   C13   A    
C5    C6    A    
C4    O6    A    
C35   H16   S    
C33   C35   S    
C40   H22   S    
C3    C17   A    
O11   Zn2   S    
C39   H21   S    
C20   H10   S    
C2    C14   A    
C10   C11   A    
C16   O8    A    
C39   C40   S    
C20   C21   A    
C28   C36   S    
C48   H40   S    
C43   H30   S    
C40   H25   S    
C18   C31   A    
C37   C45   S    
C36   C49   T    
C1    O5    A    
