data_mof_unit_20682.cif
_audit_creation_date              2012-12-11T15:49:58-0500
_audit_creation_method            fapswitch 2.2
_symmetry_space_group_name_H-M    P1
_symmetry_Int_Tables_number       1
_space_group_crystal_system       triclinic
_cell_length_a                    8.241943
_cell_length_b                    19.035968
_cell_length_c                    27.054829
_cell_angle_alpha                 94.87636
_cell_angle_beta                  92.868286
_cell_angle_gamma                 85.19407
_cell_volume                      4210.55030767

loop_
_atom_site_label
_atom_site_type_symbol
_atom_type_description
_atom_site_fract_x
_atom_site_fract_y
_atom_site_fract_z
_atom_type_partial_charge
Ba1   Ba    Ba6+2 0.854000 0.466860 0.523710 1.659035
Ba2   Ba    Ba6+2 0.335820 0.533080 0.476290 1.645440
C1    C     C_3   0.711507 0.205430 0.660066 -0.346415
C2    C     C_R   0.911462 0.570513 0.176628 0.574887
C3    C     C_2   0.759954 0.549232 0.272107 -0.083300
C4    C     C_3   0.127721 0.315185 0.660254 0.316147
C5    C     C_3   0.742758 0.572059 0.326435 -0.051336
C6    C     C_1   0.982248 0.490844 0.343296 0.033371
C7    C     C_2   0.021599 0.487308 0.295712 -0.104432
C8    C     C_2   0.902393 0.515932 0.256532 0.192145
C9    C     C_R   0.017565 0.504278 0.102206 -0.080904
C10   C     C_R   0.047473 0.444564 0.129749 -0.037823
C11   C     C_R   0.116862 0.381779 0.106028 -0.055354
C12   C     C_3   0.665721 0.277323 0.640557 0.344764
C13   C     C_R   0.948785 0.567490 0.126012 -0.024168
C14   C     C_2   0.851179 0.528247 0.360337 -0.291722
C15   C     C_2   0.349880 0.480695 0.641199 -0.281156
C16   C     C_3   0.112900 0.294442 0.712791 -0.276698
C17   C     C_R   0.156978 0.432494 0.975331 -0.011910
C18   C     C_R   0.068767 0.558958 0.972944 0.029316
C19   C     C_R   0.132195 0.493921 0.948674 0.050629
C20   C     C_R   0.213598 0.368669 0.949098 -0.104370
C21   C     C_R   0.250820 0.364602 0.899157 0.224691
C22   C     C_R   0.232253 0.425942 0.872350 -0.056672
C23   C     C_3   0.519311 0.632875 0.625830 0.293811
C24   C     C_R   0.171085 0.490387 0.897262 -0.107111
C25   C     C_R   0.148940 0.551636 0.870856 -0.026820
C26   C     C_R   0.188249 0.548512 0.820311 0.597774
C27   C     C_R   0.271660 0.425078 0.821637 0.602108
C28   C     C_3   0.187906 0.317668 0.418481 0.312408
C29   C     C_2   0.430711 0.450108 0.727623 -0.082203
C30   C     C_3   0.448803 0.430536 0.672920 -0.046224
C31   C     C_1   0.211281 0.512372 0.657295 0.027759
C32   C     C_2   0.169427 0.513009 0.704519 -0.103334
C33   C     C_2   0.287753 0.482769 0.743371 0.192083
C34   C     C_3   0.523420 0.649293 0.681843 -0.351767
C35   C     C_R   0.122928 0.436289 0.026996 0.029600
C36   C     C_R   0.055989 0.500827 0.050833 0.053125
C37   C     C_R   0.026881 0.561993 0.023874 0.020201
C38   C     C_R   0.154345 0.377687 0.056120 -0.092940
C39   C     C_R   0.918139 0.626933 0.098789 -0.057776
C40   C     C_3   0.212489 0.238519 0.404469 -0.361052
C41   C     C_R   0.050036 0.619114 0.945201 -0.098113
C42   C     C_R   0.088900 0.615386 0.895562 -0.054684
C43   C     C_R   0.955743 0.624363 0.049077 -0.101717
C44   C     C_R   0.403319 0.297026 0.522764 -0.326589
C45   C     C_3   0.060079 0.685884 0.338898 0.340098
C46   C     C_R   0.538273 0.273800 0.494878 0.056967
C47   C     C_R   0.583955 0.200427 0.486951 0.102771
C48   C     C_R   0.492421 0.151408 0.507993 -0.035506
C49   C     C_R   0.353410 0.176351 0.534515 -0.153308
C50   C     C_R   0.306389 0.248867 0.540344 0.012542
C51   C     C_R   0.582050 0.036408 0.543396 -0.063445
C52   C     C_3   0.006769 0.681545 0.579403 0.312626
C53   C     C_R   0.634025 0.964374 0.537609 -0.075998
C54   C     C_R   0.644486 0.928923 0.490013 0.054567
C55   C     C_R   0.597175 0.966093 0.448379 -0.059643
C56   C     C_3   0.072478 0.706854 0.286327 -0.317426
C57   C     C_R   0.541059 0.037698 0.454258 -0.036111
C58   C     C_R   0.537913 0.074058 0.501730 0.081343
C59   C     C_R   0.837358 0.826575 0.458895 -0.131424
C60   C     C_R   0.886916 0.753841 0.456158 0.009741
C61   C     C_R   0.656551 0.732761 0.503207 0.042180
C62   C     C_R   0.607928 0.804977 0.507142 -0.118276
C63   C     C_R   0.696022 0.852393 0.484277 -0.014105
C64   C     C_3   0.990913 0.761300 0.591447 -0.382747
C65   C     C_R   0.791201 0.707261 0.476060 -0.281898
C66   C     C_3   0.672710 0.383363 0.376482 0.309146
C67   C     C_3   0.520088 0.722550 0.358288 0.359526
C68   C     C_3   0.671278 0.366943 0.320469 -0.343208
C69   C     C_3   0.477398 0.793195 0.336593 -0.358935
C70   C     C_R   0.007582 0.448712 0.180453 0.599928
H1    H     H_    0.702713 0.275200 0.601455 0.069187
H2    H     H_    0.584091 0.429406 0.385026 0.074904
H3    H     H_    0.843389 0.190293 0.656077 0.150121
H4    H     H_    0.764736 0.323151 0.310688 0.141993
H5    H     H_    0.698117 0.414190 0.302085 0.065520
H6    H     H_    0.549304 0.351268 0.306603 0.134840
H7    H     H_    0.530984 0.287224 0.641660 -0.055898
H8    H     H_    0.641323 0.164966 0.638554 0.064078
H9    H     H_    0.393113 0.622304 0.613096 0.017463
H10   H     H_    0.602989 0.584994 0.617322 0.069385
H11   H     H_    0.437847 0.695994 0.691790 0.136257
H12   H     H_    0.309159 0.227462 0.377057 0.129781
H13   H     H_    0.486852 0.603341 0.700079 0.074761
H14   H     H_    0.648653 0.660494 0.695572 0.134137
H15   H     H_    0.682506 0.206853 0.699805 0.137122
H16   H     H_    0.103491 0.342794 0.738636 0.120960
H17   H     H_    0.135684 0.635290 0.342699 0.088145
H18   H     H_    0.930725 0.678496 0.344781 -0.056255
H19   H     H_    0.190715 0.728788 0.281746 0.146777
H20   H     H_    0.064884 0.659436 0.259955 0.123813
H21   H     H_    0.972174 0.747143 0.277543 0.118589
H22   H     H_    0.654918 0.712456 0.358357 -0.065760
H23   H     H_    0.248716 0.209907 0.437685 0.072452
H24   H     H_    0.480282 0.726734 0.397161 0.074550
H25   H     H_    0.547314 0.834330 0.357417 0.064243
H26   H     H_    0.345488 0.809195 0.339425 0.150389
H27   H     H_    0.043587 0.363008 0.655101 0.094843
H28   H     H_    0.509284 0.789363 0.297001 0.124328
H29   H     H_    0.141535 0.464974 0.285124 0.131708
H30   H     H_    0.143397 0.335028 0.126158 0.127387
H31   H     H_    0.522685 0.429245 0.753812 0.122161
H32   H     H_    0.228186 0.319521 0.966243 0.103681
H33   H     H_    0.210310 0.327464 0.041857 0.079772
H34   H     H_    0.097290 0.218635 0.387986 0.163825
H35   H     H_    0.666800 0.568503 0.245683 0.120185
H36   H     H_    0.864064 0.676347 0.115916 0.124446
H37   H     H_    0.007065 0.670805 0.960754 0.071918
H38   H     H_    0.254885 0.327479 0.655814 -0.053329
H39   H     H_    0.071648 0.663418 0.876460 0.125595
H40   H     H_    0.049793 0.535557 0.715251 0.128495
H41   H     H_    0.925239 0.672587 0.031454 0.072449
H42   H     H_    0.837764 0.540104 0.399933 0.083259
H43   H     H_    0.382672 0.482087 0.602961 0.076927
H44   H     H_    0.503528 0.824319 0.528617 0.079541
H45   H     H_    0.886350 0.663302 0.567705 -0.000908
H46   H     H_    0.668110 0.936369 0.570259 0.070240
H47   H     H_    0.578385 0.063011 0.580350 0.067178
H48   H     H_    0.601425 0.939492 0.411444 0.068117
H49   H     H_    0.001548 0.266409 0.715662 0.147464
H50   H     H_    0.503104 0.065235 0.421675 0.093522
H51   H     H_    0.911383 0.862899 0.443366 0.088273
H52   H     H_    0.278529 0.139255 0.548851 0.096821
H53   H     H_    0.829501 0.651345 0.474087 0.061134
H54   H     H_    0.366167 0.352987 0.527544 0.074406
H55   H     H_    0.220907 0.259368 0.723742 0.142280
H56   H     H_    0.091643 0.668886 0.548819 0.072720
H57   H     H_    0.306699 0.337804 0.430301 -0.004312
H58   H     H_    0.103253 0.327067 0.449395 0.071058
H59   H     H_    0.796068 0.396255 0.389969 0.003792
H60   H     H_    0.899210 0.775655 0.620070 0.132124
H61   H     H_    0.952117 0.788586 0.557793 0.062918
H62   H     H_    0.110298 0.779637 0.605610 0.129092
I1    I     I_    0.330748 0.260085 0.869927 -0.370386
I2    I     I_    0.788130 0.163408 0.442904 -0.453719
N1    N     N_R   0.940981 0.511484 0.203808 -0.422118
N2    N     N_R   0.248279 0.485634 0.795927 -0.427356
O1    O     O_2   0.913240 0.537010 0.617740 -0.457165
O2    O     O_2   0.224758 0.750275 0.464679 -0.481881
O3    O     O_3   0.116654 0.739229 0.372732 -0.599766
O4    O     O_3   0.145240 0.536960 0.557560 -0.493949
O5    O     O_3   0.557280 0.416300 0.475860 -0.495241
O6    O     O_2   0.376710 0.670070 0.522470 -0.457982
O7    O     O_3   0.568164 0.691048 0.603419 -0.640322
O8    O     O_2   0.416927 0.531878 0.322555 -0.497168
O9    O     O_3   0.440815 0.669119 0.329706 -0.593113
O10   O     O_2   0.029977 0.395977 0.203461 -0.592919
O11   O     O_2   0.326901 0.370153 0.800144 -0.577083
O12   O     O_3   0.630826 0.323688 0.398204 -0.609858
O13   O     O_2   0.853448 0.626367 0.196520 -0.619727
O14   O     O_2   0.171423 0.602272 0.798269 -0.594277
O15   O     O_3   0.669960 0.410470 0.588880 -0.483297
O16   O     O_2   0.777548 0.466581 0.677280 -0.495559
O17   O     O_3   0.064976 0.649721 0.622139 -0.624502
O18   O     O_3   0.745967 0.329614 0.669979 -0.596029
O19   O     O_2   0.812980 0.329910 0.477500 -0.439496
O20   O     O_3   0.078660 0.374870 0.564770 -0.497408
O21   O     O_2   0.968384 0.249989 0.535601 -0.445485
O22   O     O_3   0.086586 0.259016 0.626281 -0.602838
O23   O     O_2   0.276450 0.462960 0.382230 -0.460683
O24   O     O_3   0.044470 0.462980 0.442430 -0.497332
O25   O     O_3   0.519740 0.589470 0.411120 -0.476152
O26   O     O_3   0.123277 0.350445 0.376795 -0.620885
O27   O     O_3   0.632420 0.583650 0.524140 -0.477529
O28   O     O_3   0.111040 0.625070 0.435230 -0.491793
P1    P     P_3+3 0.082480 0.557670 0.610090 0.993182
P2    P     P_3+3 0.635220 0.340300 0.462910 1.025579
P3    P     P_3+3 0.110277 0.282853 0.566205 0.962383
P4    P     P_3+3 0.107220 0.442270 0.389900 0.995504
P5    P     P_3+3 0.085094 0.717432 0.432769 0.946848
P6    P     P_3+3 0.662198 0.412058 0.653227 0.947988
P7    P     P_3+3 0.561057 0.671522 0.538981 0.949740
P8    P     P_3+3 0.529118 0.587570 0.346767 0.945019

loop_
_geom_bond_atom_site_label_1
_geom_bond_atom_site_label_2
_ccdc_geom_bond_type
C53   C54   A    
C62   H44   S    
C39   H36   S    
C50   P3    S    
C68   H6    S    
Ba2   O6    S    
O16   P6    D    
O26   P4    S    
C28   O26   S    
C19   C24   A    
C67   H24   S    
Ba2   O24   S    
O9    P8    S    
C20   H32   S    
C27   N2    Am   
C69   H25   S    
C24   C25   A    
C60   C65   A    
Ba1   O5    S    
Ba1   O20   S    
C17   C19   A    
C56   H21   S    
C22   C24   A    
C32   C33   S    
C35   C38   A    
C65   H53   S    
C33   N2    S    
C36   C37   A    
C55   C57   A    
Ba1   P1    S    
C34   H11   S    
C66   H2    S    
C54   C63   S    
C5    P8    S    
C44   C50   A    
O3    P5    S    
C32   H40   S    
C54   C55   A    
O19   P2    D    
Ba1   Ba2   S    
C67   C69   S    
C22   C27   A    
C11   C38   A    
Ba1   O4    S    
C17   C35   A    
O4    P1    S    
C64   H62   S    
C9    C13   A    
C25   C42   A    
O17   P1    S    
C6    C7    D    
O24   P4    S    
O6    P7    D    
C21   C22   A    
C8    N1    S    
C1    H3    S    
C56   H19   S    
Ba2   O28   S    
C49   H52   S    
Ba1   O1    S    
C37   C43   A    
C57   H50   S    
C30   P6    S    
O28   P5    S    
C6    C14   D    
C68   H5    S    
C23   H9    S    
Ba2   O5    S    
C45   H17   S    
C31   P1    S    
C15   C31   D    
C1    H8    S    
Ba2   O23   S    
C51   C58   A    
C6    P4    S    
C61   P7    S    
C64   H60   S    
C51   C53   A    
C4    C16   S    
C69   H26   S    
C44   C46   A    
C1    H15   S    
C40   H23   S    
C12   H1    S    
C17   C20   A    
C26   N2    Am   
C13   C39   A    
C67   H22   S    
C52   O17   S    
C3    C5    S    
C18   C37   A    
C23   C34   S    
Ba1   P2    S    
C34   H14   S    
C70   O10   D    
C52   H56   S    
O18   P6    S    
C16   H16   S    
C49   C50   A    
C29   H31   S    
C4    H38   S    
C9    C36   A    
O1    P1    D    
C41   C42   A    
C61   C65   A    
C35   C36   A    
C60   P5    S    
C43   H41   S    
C16   H55   S    
C64   H61   S    
C29   C30   S    
C46   P2    S    
Ba1   O27   S    
O22   P3    S    
O12   P2    S    
C48   C49   A    
C40   H12   S    
C12   H7    S    
C18   C19   A    
Ba1   O15   S    
C40   H34   S    
Ba2   O27   S    
C1    C12   S    
Ba2   P4    S    
C55   H48   S    
O23   P4    D    
C66   C68   S    
C70   N1    Am   
C47   I2    S    
O7    P7    S    
Ba1   O24   S    
C26   O14   D    
O2    P5    D    
C68   H4    S    
C23   H10   S    
Ba2   O4    S    
C45   H18   S    
C29   C33   D    
C18   C41   A    
C15   H43   S    
C3    H35   S    
C2    O13   D    
C46   C47   A    
O21   P3    D    
C12   O18   S    
C44   H54   S    
C5    C14   S    
C2    N1    Am   
C14   H42   S    
Ba2   O25   S    
C4    O22   S    
C9    C10   A    
C51   H47   S    
O20   P3    S    
C52   C64   S    
C66   H59   S    
C34   H13   S    
C28   H57   S    
C69   H28   S    
C45   O3    S    
C21   I1    S    
C59   H51   S    
C48   C58   S    
C62   C63   A    
C2    C13   A    
Ba1   O19   S    
C3    C8    D    
C28   H58   S    
C4    H27   S    
C45   C56   S    
C56   H20   S    
C67   O9    S    
O8    P8    D    
O15   P6    S    
C31   C32   D    
C7    C8    S    
C10   C70   A    
C59   C60   A    
O5    P2    S    
C66   O12   S    
C16   H49   S    
C27   O11   D    
C61   C62   A    
C42   H39   S    
C59   C63   A    
C57   C58   A    
C10   C11   A    
C7    H29   S    
C47   C48   A    
C52   H45   S    
C25   C26   A    
C15   C30   S    
C39   C43   A    
C20   C21   A    
C28   C40   S    
C23   O7    S    
C41   H37   S    
C11   H30   S    
O25   P8    S    
O27   P7    S    
C38   H33   S    
C53   H46   S    
