data_mof_unit_56281.cif
_audit_creation_date              2012-12-10T17:24:50-0500
_audit_creation_method            fapswitch 2.2
_symmetry_space_group_name_H-M    P1
_symmetry_Int_Tables_number       1
_space_group_crystal_system       triclinic
_cell_length_a                    18.456016
_cell_length_b                    19.130882
_cell_length_c                    18.743743
_cell_angle_alpha                 110.494307
_cell_angle_beta                  109.11157
_cell_angle_gamma                 109.568402
_cell_volume                      5045.6074862

loop_
_atom_site_label
_atom_site_type_symbol
_atom_type_description
_atom_site_fract_x
_atom_site_fract_y
_atom_site_fract_z
_atom_type_partial_charge
C1    C     C_R   0.622143 0.618772 0.500953 0.933385
C2    C     C_R   0.662803 0.735241 0.470388 0.047524
C3    C     C_R   0.811378 0.810819 0.495670 -0.166233
C4    C     C_R   0.379838 0.500182 0.378885 0.857794
C5    C     C_R   0.824587 0.741715 0.496005 0.082544
C6    C     C_R   0.762676 0.677832 0.499510 0.123756
C7    C     C_R   0.684837 0.679771 0.493048 -0.125715
C8    C     C_R   0.896336 0.732847 0.490038 -0.136755
C9    C     C_R   0.909526 0.666620 0.494170 -0.108079
C10   C     C_R   0.851233 0.606616 0.502670 -0.135072
C11   C     C_R   0.778123 0.611180 0.504292 -0.061707
C12   C     C_3   0.196965 0.510645 0.276310 0.485623
C13   C     C_R   0.751321 0.654354 0.805185 0.369739
C14   C     C_R   0.769407 0.705347 0.891174 0.138381
C15   C     C_R   0.784191 0.676085 0.949718 -0.251224
C16   C     C_R   0.378637 0.380874 0.499503 0.857594
C17   C     C_R   0.792525 0.602871 0.927639 0.117283
C18   C     C_R   0.781541 0.556143 0.843584 -0.023902
C19   C     C_R   0.739891 0.569786 0.777445 -0.121873
C20   C     C_R   0.808004 0.495022 0.821423 -0.079307
C21   C     C_R   0.760364 0.423243 0.735392 -0.007923
C22   C     C_R   0.692598 0.419614 0.668800 0.019899
C23   C     C_3   0.296890 0.577020 0.328648 0.138425
C24   C     C_R   0.686342 0.496933 0.689035 -0.160053
C25   C     C_R   0.772919 0.351095 0.717237 -0.311440
C26   C     C_R   0.724406 0.278634 0.633253 0.396231
C27   C     C_R   0.659523 0.275037 0.566751 -0.225402
C28   C     C_R   0.621003 0.499517 0.621757 0.944054
C29   C     C_R   0.636181 0.338708 0.586389 0.140699
C30   C     C_R   0.420823 0.359488 0.648550 -0.129939
C31   C     C_R   0.451692 0.336431 0.709855 -0.115681
C32   C     C_R   0.401681 0.253685 0.692206 -0.096787
C33   C     C_R   0.318122 0.196162 0.616366 -0.040736
C34   C     C_3   0.314490 0.501522 0.311887 -0.116184
C35   C     C_R   0.280919 0.221480 0.557590 0.098645
C36   C     C_R   0.337152 0.300513 0.569562 0.097471
C37   C     C_R   0.191097 0.170253 0.486329 -0.232048
C38   C     C_R   0.166036 0.186211 0.415855 0.096052
C39   C     C_R   0.226438 0.261015 0.424176 0.102864
C40   C     C_3   0.313343 0.493578 0.227176 -0.144148
C41   C     C_R   0.311279 0.316440 0.500259 -0.152084
C42   C     C_R   0.083588 0.127769 0.335309 -0.024554
C43   C     C_R   0.059222 0.147134 0.269312 -0.021400
C44   C     C_R   0.117562 0.222906 0.279712 -0.096054
C45   C     C_R   0.574155 0.717711 0.431560 -0.165973
C46   C     C_R   0.200816 0.279114 0.355856 -0.114892
C47   C     C_R   0.012985 0.619521 0.133188 0.915447
C48   C     C_R   0.125540 0.500625 0.124254 0.910882
C49   C     C_R   0.005021 0.380293 0.883737 0.820290
C50   C     C_R   0.881529 0.502804 0.888126 0.884486
C51   C     C_R   0.001098 0.880794 0.379763 0.807990
C52   C     C_3   0.294653 0.569118 0.242764 -0.260017
C53   C     C_R   0.878966 0.880041 0.499415 0.871745
C54   C     C_R   0.013324 0.131515 0.619113 0.982502
C55   C     C_R   0.121141 0.111401 0.492562 0.921370
C56   C     C_R   0.554774 0.773918 0.409300 -0.189102
C57   C     C_R   0.172560 0.805098 0.259402 0.087117
C58   C     C_R   0.220195 0.890283 0.276849 0.322420
C59   C     C_R   0.178628 0.940133 0.282258 0.270647
C60   C     C_R   0.108832 0.917749 0.299816 -0.345047
C61   C     C_R   0.065856 0.835892 0.289753 0.000974
C62   C     C_R   0.087620 0.774215 0.252846 -0.031967
C63   C     C_R   0.998818 0.813103 0.311310 -0.076293
C64   C     C_3   0.194449 0.502667 0.191584 -0.130378
C65   C     C_R   0.943092 0.726464 0.283165 0.028319
C66   C     C_R   0.961053 0.662995 0.240852 0.100966
C67   C     C_R   0.623740 0.853617 0.436729 0.213787
C68   C     C_R   0.025551 0.685448 0.214772 -0.119043
C69   C     C_R   0.867226 0.701056 0.292878 -0.234714
C70   C     C_R   0.813442 0.614816 0.265525 0.232052
C71   C     C_R   0.839318 0.555048 0.236539 -0.162094
C72   C     C_R   0.913505 0.579154 0.226097 -0.094665
C73   C     C_R   0.949044 0.368310 0.717339 -0.177347
C74   C     C_R   0.914386 0.359089 0.635079 -0.222940
C75   C     C_R   0.925076 0.308077 0.570788 0.228061
C76   C     C_3   0.212213 0.427330 0.174998 -0.187708
C77   C     C_R   0.977243 0.270988 0.591545 0.407253
C78   C     C_R   0.712360 0.874732 0.483009 0.127886
C79   C     C_R   0.998430 0.265954 0.669983 -0.054647
C80   C     C_R   0.985141 0.317597 0.734252 0.085784
C81   C     C_R   0.035584 0.215731 0.689695 -0.094698
C82   C     C_R   0.078527 0.235789 0.778852 -0.089158
C83   C     C_R   0.049604 0.273029 0.834454 0.032895
C84   C     C_R   0.006673 0.317244 0.813880 -0.042914
C85   C     C_R   0.146662 0.217584 0.814705 0.419216
C86   C     C_R   0.160310 0.209201 0.889137 0.174010
C87   C     C_R   0.118190 0.231787 0.934892 -0.244145
C88   C     C_3   0.214731 0.435289 0.260867 -0.238193
C89   C     C_R   0.730437 0.808508 0.484246 -0.011135
C90   C     C_R   0.068086 0.268508 0.911484 -0.208504
H1    H     H_    0.327203 0.623202 0.233814 0.200853
H2    H     H_    0.464475 0.422716 0.662569 0.150872
H3    H     H_    0.516452 0.381353 0.768943 0.162748
H4    H     H_    0.428051 0.233532 0.736893 0.155193
H5    H     H_    0.286751 0.130852 0.602999 0.167311
H6    H     H_    0.038478 0.064332 0.319405 0.138286
H7    H     H_    0.995796 0.101787 0.208714 0.158452
H8    H     H_    0.176220 0.366125 0.110997 0.157558
H9    H     H_    0.244940 0.336990 0.361032 0.117091
H10   H     H_    0.800807 0.489209 0.220084 0.179195
H11   H     H_    0.083760 0.961374 0.314673 0.162034
H12   H     H_    0.941431 0.773999 0.478380 0.163039
H13   H     H_    0.847394 0.746981 0.318445 0.158779
H14   H     H_    0.933082 0.531514 0.207074 0.219217
H15   H     H_    0.128821 0.225809 0.992273 0.183061
H16   H     H_    0.181591 0.381255 0.269187 0.157565
H17   H     H_    0.943684 0.413483 0.766221 0.156842
H18   H     H_    0.880799 0.393747 0.622081 0.169620
H19   H     H_    0.042828 0.291677 0.953468 0.175481
H20   H     H_    0.861335 0.554936 0.505773 0.156683
H21   H     H_    0.519043 0.658312 0.413357 0.144726
H22   H     H_    0.486267 0.757177 0.374157 0.186518
H23   H     H_    0.964604 0.661271 0.489557 0.163154
H24   H     H_    0.836014 0.639758 0.693297 0.358250
H25   H     H_    0.617617 0.126086 0.628321 0.361022
H26   H     H_    0.444251 0.059934 0.349118 0.395504
H27   H     H_    0.284194 0.110305 0.396558 0.339927
H28   H     H_    0.114887 0.355173 0.507649 0.389131
H29   H     H_    0.375194 0.305276 0.859146 0.382348
H30   H     H_    0.105492 0.530998 0.423256 0.392750
H31   H     H_    0.734086 0.560643 0.508108 0.181734
H32   H     H_    0.616823 0.214878 0.503494 0.211239
H33   H     H_    0.790409 0.710987 0.013041 0.201381
H34   H     H_    0.362773 0.486420 0.208518 0.184838
H35   H     H_    0.818372 0.348450 0.768248 0.195186
H36   H     H_    0.098790 0.236901 0.227601 0.144776
I1    I     I_    0.589817 0.937652 0.403855 -0.027201
I2    I     I_    0.362039 0.696620 0.450959 -0.156682
I3    I     I_    0.805267 0.005597 0.586011 -0.121189
I4    I     I_    0.773056 0.825696 0.937159 -0.153164
I5    I     I_    0.778815 0.547736 0.005796 -0.319565
I6    I     I_    0.496538 0.271757 0.517681 -0.277828
I7    I     I_    0.237437 0.732767 0.267310 -0.155576
I8    I     I_    0.691523 0.573503 0.264410 -0.340099
I9    I     I_    0.868331 0.299458 0.447001 -0.172045
I10   I     I_    0.245505 0.165359 0.938980 -0.133401
O1    O     O_R   0.592010 0.539900 0.448660 -0.651594
O2    O     O_R   0.948620 0.908400 0.356980 -0.637122
O3    O     O_R   0.960510 0.908410 0.552140 -0.611758
O4    O     O_R   0.591210 0.643320 0.551330 -0.547823
O5    O     O_R   0.856270 0.908390 0.447890 -0.612451
O6    O     O_R   0.051380 0.091620 0.643040 -0.587043
O7    O     O_R   0.947140 0.091600 0.538800 -0.579525
O8    O     O_R   0.143730 0.091640 0.552130 -0.597680
O9    O     O_R   0.039490 0.091610 0.447890 -0.571159
O10   O     O_R   0.408080 0.448290 0.356360 -0.615671
O11   O     O_R   0.407280 0.551710 0.459030 -0.599502
O12   O     O_R   0.054870 0.643310 0.094700 -0.600153
O13   O     O_R   0.408790 0.356680 0.448670 -0.561250
O14   O     O_R   0.407990 0.460100 0.551340 -0.630847
O15   O     O_R   0.592720 0.448290 0.540970 -0.613638
O16   O     O_R   0.591920 0.551710 0.643640 -0.601637
O17   O     O_R   0.951440 0.539900 0.094740 -0.613639
O18   O     O_2   0.714622 0.736341 0.720911 -0.224568
O19   O     O_2   0.871036 0.789234 0.815445 -0.243788
O20   O     O_3   0.784253 0.645902 0.666455 -0.619119
O21   O     O_2   0.754034 0.159189 0.543481 -0.254764
O22   O     O_2   0.798807 0.198172 0.696721 -0.301074
O23   O     O_R   0.044440 0.448270 0.096110 -0.592661
O24   O     O_3   0.630318 0.104326 0.580249 -0.471537
O25   O     O_2   0.386213 0.924987 0.370952 -0.254660
O26   O     O_2   0.334118 0.888649 0.217774 -0.243488
O27   O     O_3   0.382340 0.042355 0.336162 -0.467471
O28   O     O_2   0.239153 0.005587 0.194366 -0.155056
O29   O     O_2   0.117682 0.019900 0.208473 -0.295606
O30   O     O_3   0.276070 0.120041 0.346671 -0.474501
O31   O     O_2   0.117535 0.259798 0.587003 -0.304236
O32   O     O_2   0.982326 0.195774 0.445265 -0.282525
O33   O     O_3   0.083788 0.362304 0.541534 -0.521497
O34   O     O_R   0.147870 0.551680 0.096080 -0.609451
O35   O     O_2   0.227672 0.145919 0.744146 -0.296891
O36   O     O_2   0.222160 0.264871 0.724855 -0.261595
O37   O     O_3   0.331055 0.302564 0.878708 -0.524961
O38   O     O_2   0.115314 0.598615 0.317497 -0.326175
O39   O     O_2   0.028251 0.440091 0.243393 -0.304985
O40   O     O_3   0.151183 0.526483 0.408432 -0.521169
O41   O     O_R   0.952810 0.356650 0.912880 -0.605457
O42   O     O_R   0.056240 0.460060 0.912840 -0.619555
O43   O     O_R   0.859800 0.448280 0.911500 -0.605346
O44   O     O_R   0.963240 0.551690 0.911470 -0.612126
O45   O     O_R   0.052860 0.908430 0.461230 -0.622839
S1    S     S_3+6 0.780506 0.709258 0.751640 0.057732
S2    S     S_3+6 0.730632 0.184533 0.614448 0.043833
S3    S     S_3+6 0.332727 0.935871 0.300001 0.100966
S4    S     S_3+6 0.202343 0.021842 0.255200 0.104245
S5    S     S_3+6 0.041423 0.268546 0.539721 0.040465
S6    S     S_3+6 0.231355 0.230844 0.786194 0.051458
S7    S     S_3+6 0.118806 0.519173 0.309944 0.024277
Zn1   Zn    Zn3+2 0.500540 0.430950 0.431450 1.062623
Zn2   Zn    Zn3+2 0.499460 0.569050 0.568550 1.099097
Zn3   Zn    Zn3+2 0.934770 0.430930 0.003810 1.059005
Zn4   Zn    Zn3+2 0.072900 0.569020 0.003770 1.060317
Zn5   Zn    Zn3+2 0.069600 0.000030 0.569620 1.088065
Zn6   Zn    Zn3+2 0.930400 0.000000 0.430410 1.077718

loop_
_geom_bond_atom_site_label_1
_geom_bond_atom_site_label_2
_ccdc_geom_bond_type
O12   Zn4   S    
C32   H4    S    
C46   H9    S    
C63   C65   A    
C85   S6    S    
O41   Zn3   S    
C22   C29   A    
C17   I5    S    
O30   S4    S    
O4    Zn2   S    
C73   C74   A    
H26   O27   S    
C66   C68   A    
C2    C7    A    
C80   C84   A    
C81   C82   A    
C57   C58   A    
O19   S1    D    
C57   C62   A    
C39   C41   A    
C85   C86   A    
O2    Zn6   S    
C12   C23   S    
C44   H36   S    
C26   C27   A    
C15   H33   S    
C83   C84   A    
C42   H6    S    
C5    C6    A    
C49   C84   S    
C35   C37   A    
C78   I3    S    
O33   S5    S    
C38   C42   A    
O17   Zn3   S    
C30   C31   A    
C12   C64   S    
C75   I9    S    
C73   H17   S    
C29   I6    S    
C27   C29   A    
O36   S6    D    
C76   H8    S    
C12   S7    S    
O34   Zn4   S    
C88   H16   S    
C58   S3    S    
C18   C19   A    
C73   C80   A    
C50   O43   A    
C61   C63   A    
C25   H35   S    
O16   Zn2   S    
O38   S7    D    
O39   S7    D    
H30   O40   S    
C66   C72   A    
C35   C36   A    
C45   C56   A    
C8    C9    A    
C30   C36   A    
C20   C50   S    
O10   Zn1   S    
C59   S4    S    
C70   C71   A    
O45   Zn5   S    
C9    C10   A    
C76   C88   S    
O24   S2    S    
C18   C20   A    
C61   C62   A    
C26   S2    S    
C77   C79   A    
C54   O7    A    
C59   C60   A    
C78   C89   A    
C1    C7    S    
C21   C22   A    
C3    C53   S    
C77   S5    S    
C57   I7    S    
C36   C41   A    
C11   H31   S    
C67   C78   A    
O11   Zn2   S    
C33   H5    S    
H24   O20   S    
C27   H32   S    
C44   C46   A    
O40   S7    S    
C49   O41   A    
C69   H13   S    
C2    C45   A    
C40   H34   S    
C48   O23   A    
C4    C34   S    
O32   S5    D    
C74   C75   A    
C12   C88   S    
O23   Zn3   S    
C51   C63   S    
C30   H2    S    
O28   S4    D    
O44   Zn4   S    
C6    C11   A    
C79   C81   A    
O20   S1    S    
C86   C87   A    
C13   C19   A    
O8    Zn5   S    
C47   O17   A    
H28   O33   S    
C3    C5    A    
C25   C26   A    
C31   H3    S    
O31   S5    D    
C82   C83   A    
O29   S4    D    
C40   C76   S    
C60   C61   A    
C2    C89   A    
C50   O44   A    
C43   C44   A    
O26   S3    D    
C37   C38   A    
C67   I1    S    
O14   Zn2   S    
O42   Zn4   S    
C31   C32   A    
C87   H15   S    
H27   O30   S    
C23   C34   S    
C4    O10   A    
C17   C18   A    
C64   C76   S    
C34   C88   S    
C75   C77   A    
O9    Zn6   S    
C16   O13   A    
C1    O4    A    
C39   C46   A    
O1    Zn1   S    
C86   I10   S    
C54   O6    A    
C28   O16   A    
C52   C64   S    
C22   C24   A    
C42   C43   A    
C60   H11   S    
C82   C85   A    
C47   C68   S    
C1    O1    A    
C24   C28   S    
C49   O42   A    
C14   I4    S    
C15   C17   A    
C83   C90   A    
C21   C25   A    
C47   O12   A    
O37   S6    S    
C55   O8    A    
C55   O9    A    
O27   S3    S    
C53   O3    A    
C43   H7    S    
C51   O45   A    
C5    C8    A    
C45   H21   S    
C6    C7    A    
C4    O11   A    
C62   C68   A    
C56   C67   A    
C72   H14   S    
C71   H10   S    
O13   Zn1   S    
O35   S6    D    
H25   O24   S    
C3    C89   A    
C9    H23   S    
C32   C33   A    
O25   S3    D    
C19   C24   A    
C58   C59   A    
C71   C72   A    
C40   C52   S    
H29   O37   S    
O7    Zn6   S    
C23   C52   S    
C38   C39   A    
C65   C69   A    
C48   O34   A    
O18   S1    D    
C33   C35   A    
O6    Zn5   S    
C10   H20   S    
C53   O5    A    
O5    Zn6   S    
C65   C66   A    
C69   C70   A    
C48   C64   S    
C10   C11   A    
C74   H18   S    
C79   C80   A    
C37   C55   S    
C51   O2    A    
O15   Zn1   S    
O43   Zn3   S    
C20   C21   A    
C28   O15   A    
C13   S1    S    
C87   C90   A    
C70   I8    S    
C14   C15   A    
C34   C40   S    
C52   H1    S    
C16   O14   A    
O21   S2    D    
C90   H19   S    
C13   C14   A    
C8    H12   S    
C16   C41   S    
C56   H22   S    
C54   C81   S    
O3    Zn5   S    
O22   S2    D    
C23   I2    S    
