data_mof_unit_20929.cif
_audit_creation_date              2012-10-26T18:26:35-0400
_audit_creation_method            fapswitch 2.2
_symmetry_space_group_name_H-M    P1
_symmetry_Int_Tables_number       1
_space_group_crystal_system       triclinic
_cell_length_a                    15.846706
_cell_length_b                    8.692823
_cell_length_c                    7.451827
_cell_angle_alpha                 103.003916
_cell_angle_beta                  94.007887
_cell_angle_gamma                 92.226273
_cell_volume                      996.163556247

loop_
_atom_site_label
_atom_site_type_symbol
_atom_type_description
_atom_site_fract_x
_atom_site_fract_y
_atom_site_fract_z
_atom_type_partial_charge
C1    C     C_R   0.497482 0.199737 0.453271 0.547063
C2    C     C_3   0.975856 0.649917 0.512935 -0.121847
C3    C     C_1   0.250586 0.499960 0.507948 -0.020077
C4    C     C_1   0.749414 0.500040 0.492052 -0.020076
C5    C     C_3   0.033728 0.594435 0.661570 -0.091593
C6    C     C_3   0.966272 0.405564 0.338429 -0.091593
C7    C     C_3   0.083420 0.499233 0.506520 0.052654
C8    C     C_3   0.916580 0.500767 0.493480 0.052657
C9    C     C_1   0.175087 0.499727 0.508923 -0.036951
C10   C     C_1   0.824913 0.500273 0.491077 -0.036949
C11   C     C_R   0.502518 0.800263 0.546729 0.547063
C12   C     C_R   0.340005 0.499805 0.502581 0.548872
C13   C     C_R   0.659995 0.500195 0.497419 0.548872
C14   C     C_2   0.496273 0.031843 0.427024 -0.154592
C15   C     C_2   0.503727 0.968157 0.572976 -0.154591
C16   C     C_3   0.973661 0.446699 0.638400 0.124504
C17   C     C_3   0.026339 0.553301 0.361600 0.124504
C18   C     C_3   0.024144 0.350083 0.487064 -0.121847
Cu1   Cu    Cu3+1 0.509330 0.517380 0.684380 0.967463
Cu2   Cu    Cu3+1 0.490670 0.482620 0.315620 0.967463
H1    H     H_    0.044374 0.228265 0.480758 0.100961
H2    H     H_    0.905467 0.285082 0.735992 0.225295
H3    H     H_    0.004553 0.643417 0.135087 0.238540
H4    H     H_    0.094536 0.714917 0.264013 0.225294
H5    H     H_    0.955626 0.771735 0.519242 0.100961
H6    H     H_    0.938255 0.331355 0.204745 0.121129
H7    H     H_    0.061745 0.668645 0.795255 0.121130
H8    H     H_    0.489243 0.960271 0.286352 0.135569
H9    H     H_    0.510757 0.039729 0.713648 0.135569
H10   H     H_    0.434442 0.377558 0.948773 0.240948
H11   H     H_    0.565558 0.622442 0.051227 0.240948
H12   H     H_    0.995447 0.356596 0.864922 0.238543
N1    N     N_2   0.476600 0.456420 0.038510 -0.254597
N2    N     N_2   0.523400 0.543580 0.961490 -0.254597
N3    N     N_3   0.942838 0.388777 0.791974 -0.627368
N4    N     N_3   0.057162 0.611226 0.208027 -0.627367
O1    O     O_R   0.506070 0.286130 0.619780 -0.506298
O2    O     O_R   0.493930 0.713870 0.380220 -0.506298
O3    O     O_R   0.490300 0.256770 0.308360 -0.498118
O4    O     O_R   0.509700 0.743230 0.691640 -0.498118
O5    O     O_R   0.386960 0.514660 0.655680 -0.501205
O6    O     O_R   0.613040 0.485340 0.344320 -0.501206
O7    O     O_R   0.371190 0.485310 0.344260 -0.490358
O8    O     O_R   0.628810 0.514690 0.655740 -0.490358

loop_
_geom_bond_atom_site_label_1
_geom_bond_atom_site_label_2
_ccdc_geom_bond_type
C11   O2    A    
Cu2   O6    S    
C12   O5    A    
C3    C9    T    
C17   N4    S    
C2    H5    S    
C18   H1    S    
Cu2   O2    S    
Cu1   Cu2   S    
C1    O1    A    
C7    C18   S    
N1    N2    D    
Cu2   O3    S    
H11   N2    S    
C8    C16   S    
C6    H6    S    
C2    C17   S    
H2    N3    S    
C1    C14   S    
H4    N4    S    
Cu2   N1    S    
C8    C10   S    
C13   O6    A    
C15   H9    S    
C12   O7    A    
C16   N3    S    
C11   O4    A    
C6    C18   S    
C2    C5    S    
Cu1   O4    S    
C1    O3    A    
C4    C10   T    
H12   N3    S    
C7    C9    S    
Cu2   O7    S    
Cu1   O8    S    
C16   C18   S    
H3    N4    S    
C4    C13   S    
C5    C7    S    
C6    C17   S    
C14   C15   D    
C5    C16   S    
C6    C8    S    
C3    C12   S    
Cu1   O1    S    
H10   N1    S    
C14   H8    S    
C5    H7    S    
C11   C15   S    
C13   O8    A    
C2    C8    S    
Cu1   O5    S    
C7    C17   S    
Cu1   N2    S    
