data_mof_unit_31913.cif
_audit_creation_date              2012-10-26T19:20:38-0400
_audit_creation_method            fapswitch 2.2
_symmetry_space_group_name_H-M    P1
_symmetry_Int_Tables_number       1
_space_group_crystal_system       triclinic
_cell_length_a                    10.884503
_cell_length_b                    11.095847
_cell_length_c                    9.801479
_cell_angle_alpha                 111.920744
_cell_angle_beta                  98.084286
_cell_angle_gamma                 91.810128
_cell_volume                      1082.68863173

loop_
_atom_site_label
_atom_site_type_symbol
_atom_type_description
_atom_site_fract_x
_atom_site_fract_y
_atom_site_fract_z
_atom_type_partial_charge
C1    C     C_R   0.489176 0.253361 0.438885 0.597221
C2    C     C_R   0.733608 0.477034 0.494747 0.620606
C3    C     C_R   0.152069 0.515189 0.771830 0.251711
C4    C     C_R   0.834569 0.298032 0.226823 0.228545
C5    C     C_R   0.104595 0.582417 0.901346 -0.012139
C6    C     C_R   0.881707 0.255850 0.092594 -0.084196
C7    C     C_R   0.978113 0.561307 0.899762 0.218050
C8    C     C_R   0.994551 0.312067 0.084348 0.218642
C9    C     C_R   0.904242 0.480859 0.764467 0.317834
C10   C     C_R   0.065280 0.407646 0.213909 0.304876
C11   C     C_R   0.945798 0.469408 0.628601 -0.007671
C12   C     C_R   0.510903 0.746495 0.561070 0.598055
C13   C     C_R   0.034641 0.424796 0.356577 -0.003867
C14   C     C_R   0.075230 0.485862 0.630734 -0.058895
C15   C     C_R   0.909367 0.387949 0.358231 0.008001
C16   C     C_R   0.863035 0.439222 0.492715 0.049918
C17   C     C_R   0.121862 0.472691 0.495768 -0.006777
C18   C     C_2   0.492823 0.113195 0.400319 0.276624
C19   C     C_2   0.507432 0.886440 0.599552 0.259479
C20   C     C_2   0.474658 0.061603 0.501039 0.227638
C21   C     C_2   0.526048 0.937943 0.498740 0.233412
C22   C     C_2   0.514019 0.509205 0.082994 0.025481
C23   C     C_2   0.506117 0.477069 0.917315 0.045047
C24   C     C_R   0.259853 0.494213 0.499401 0.571787
Cl1   Cl    Cl    0.042660 0.261749 0.908604 -0.522666
Cl2   Cl    Cl    0.918028 0.621441 0.068024 -0.533092
Cl3   Cl    Cl    0.636659 0.866364 0.381223 -0.488429
Cl4   Cl    Cl    0.361523 0.130554 0.615139 -0.537152
Cl5   Cl    Cl    0.488069 0.980786 0.784977 -0.448237
Cl6   Cl    Cl    0.507282 0.017383 0.213709 -0.427978
Cu1   Cu    Cu3+1 0.521920 0.521810 0.644910 1.110675
Cu2   Cu    Cu3+1 0.478080 0.478190 0.355090 1.101070
H1    H     H_    0.166698 0.625259 0.006992 0.192742
H2    H     H_    0.173037 0.465809 0.104369 0.359540
H3    H     H_    0.828106 0.182817 0.992605 0.178540
H4    H     H_    0.456761 0.385320 0.841277 0.227116
H5    H     H_    0.581110 0.587909 0.159494 0.208195
H6    H     H_    0.599811 0.641809 0.938942 0.265218
H7    H     H_    0.384243 0.369274 0.061602 0.260199
H8    H     H_    0.237213 0.359947 0.697758 0.379294
H9    H     H_    0.681048 0.184402 0.133249 0.375346
H10   H     H_    0.795898 0.408383 0.863787 0.360541
N1    N     N_2   0.445130 0.445420 0.137360 -0.341667
N2    N     N_2   0.554870 0.554580 0.862640 -0.321157
O1    O     O_R   0.511700 0.332340 0.577400 -0.491564
O2    O     O_3   0.721729 0.242706 0.234888 -0.628411
O3    O     O_3   0.803167 0.400151 0.761199 -0.618979
O4    O     O_3   0.142233 0.502220 0.200417 -0.613999
O5    O     O_R   0.488300 0.667660 0.422600 -0.483149
O6    O     O_R   0.474680 0.295500 0.332650 -0.452531
O7    O     O_R   0.525320 0.704500 0.667350 -0.456878
O8    O     O_R   0.338170 0.518410 0.622370 -0.473015
O9    O     O_R   0.661830 0.481590 0.377630 -0.470478
O10   O     O_R   0.301150 0.481570 0.377630 -0.452559
O11   O     O_R   0.698850 0.518430 0.622370 -0.466732
O12   O     O_3   0.246171 0.440209 0.789562 -0.669188

loop_
_geom_bond_atom_site_label_1
_geom_bond_atom_site_label_2
_ccdc_geom_bond_type
C24   O8    A    
H7    N1    S    
H9    O2    S    
H6    N2    S    
C18   Cl6   S    
C2    C16   S    
C1    O6    A    
Cu1   Cu2   S    
C13   C17   A    
Cu1   O8    S    
C2    O11   A    
Cu2   O6    S    
C3    C5    A    
C4    C15   A    
C12   O5    A    
C21   Cl3   S    
C4    O2    S    
C6    H3    S    
C8    Cl1   S    
C9    C11   A    
C14   C17   A    
C1    O1    A    
C1    C18   S    
C3    C14   A    
C7    Cl2   S    
C12   C19   S    
Cu2   O10   S    
C19   C21   D    
Cu2   N1    S    
C9    O3    S    
C18   C20   D    
H10   O3    S    
C13   C15   A    
C10   O4    S    
C11   C14   A    
Cu1   O1    S    
Cu2   O5    S    
C17   C24   S    
H2    O4    S    
Cu1   N2    S    
C24   O10   A    
C15   C16   A    
C19   Cl5   S    
C7    C9    A    
Cu2   O9    S    
C12   O7    A    
C20   C21   S    
C8    C10   A    
C23   H4    S    
C3    O12   S    
C5    C7    A    
C22   C23   S    
C6    C8    A    
C20   Cl4   S    
Cu1   O11   S    
C22   H5    S    
C4    C6    A    
C10   C13   A    
C11   C16   A    
C23   N2    D    
C22   N1    D    
Cu1   O7    S    
H8    O12   S    
C2    O9    A    
C5    H1    S    
