data_mof_unit_39882.cif
_audit_creation_date              2012-10-26T21:26:56-0400
_audit_creation_method            fapswitch 2.2
_symmetry_space_group_name_H-M    P1
_symmetry_Int_Tables_number       1
_space_group_crystal_system       monoclinic
_cell_length_a                    16.449899
_cell_length_b                    16.449899
_cell_length_c                    29.444407
_cell_angle_alpha                 90.000012
_cell_angle_beta                  90.0
_cell_angle_gamma                 90.0
_cell_volume                      7967.6323047

loop_
_atom_site_label
_atom_site_type_symbol
_atom_type_description
_atom_site_fract_x
_atom_site_fract_y
_atom_site_fract_z
_atom_type_partial_charge
C1    C     C_1   0.999906 0.130085 0.194806 0.186312
C2    C     C_3   0.000000 1.000000 0.750000 -0.056347
C3    C     C_R   0.998938 0.196850 0.162190 -0.057694
C4    C     C_R   0.998938 0.803149 0.837810 -0.057694
C5    C     C_R   0.803149 0.998938 0.662190 -0.057694
C6    C     C_R   0.196850 0.998938 0.337810 -0.057694
C7    C     C_R   0.001061 0.803149 0.162190 -0.057694
C8    C     C_R   0.001061 0.196850 0.837810 -0.057694
C9    C     C_R   0.196850 0.001061 0.662190 -0.057694
C10   C     C_R   0.803149 0.001061 0.337810 -0.057694
C11   C     C_R   0.999756 0.612688 0.939209 0.627702
C12   C     C_1   0.999906 0.869914 0.805194 0.186312
C13   C     C_R   0.999756 0.387312 0.060791 0.627702
C14   C     C_R   0.387312 0.999756 0.439209 0.627702
C15   C     C_R   0.612688 0.999756 0.560791 0.627702
C16   C     C_R   0.000244 0.387312 0.939209 0.627702
C17   C     C_R   0.000244 0.612688 0.060791 0.627702
C18   C     C_R   0.612688 0.000244 0.439209 0.627702
C19   C     C_R   0.387312 0.000244 0.560791 0.627702
C20   C     C_R   0.066947 0.248693 0.157410 0.212888
C21   C     C_R   0.930304 0.792018 0.865834 0.164240
C22   C     C_R   0.751307 0.066947 0.657410 0.212888
C23   C     C_1   0.869915 0.999906 0.694806 0.186313
C24   C     C_R   0.207982 0.930304 0.365834 0.164240
C25   C     C_R   0.933053 0.751307 0.157410 0.212888
C26   C     C_R   0.069696 0.207982 0.865834 0.164240
C27   C     C_R   0.248693 0.933053 0.657410 0.212889
C28   C     C_R   0.792018 0.069696 0.365834 0.164240
C29   C     C_R   0.066947 0.751307 0.842590 0.212888
C30   C     C_R   0.930304 0.207982 0.134166 0.164240
C31   C     C_R   0.751307 0.933053 0.342590 0.212888
C32   C     C_R   0.207982 0.069696 0.634166 0.164240
C33   C     C_R   0.933053 0.248693 0.842589 0.212888
C34   C     C_1   0.130085 0.999906 0.305194 0.186313
C35   C     C_R   0.069696 0.792018 0.134166 0.164240
C36   C     C_R   0.248693 0.066947 0.342590 0.212888
C37   C     C_R   0.792018 0.930304 0.634166 0.164240
C38   C     C_R   0.060898 0.318765 0.129639 0.203582
C39   C     C_R   0.935923 0.738194 0.903401 0.177500
C40   C     C_R   0.681235 0.060898 0.629639 0.203582
C41   C     C_R   0.261806 0.935923 0.403401 0.177499
C42   C     C_R   0.939102 0.681235 0.129639 0.203582
C43   C     C_R   0.064077 0.261806 0.903401 0.177500
C44   C     C_R   0.318765 0.939102 0.629639 0.203582
C45   C     C_1   0.000094 0.869915 0.194806 0.186312
C46   C     C_R   0.738194 0.064077 0.403401 0.177499
C47   C     C_R   0.060898 0.681235 0.870361 0.203582
C48   C     C_R   0.935923 0.261806 0.096599 0.177499
C49   C     C_R   0.681235 0.939102 0.370361 0.203582
C50   C     C_R   0.261806 0.064077 0.596599 0.177500
C51   C     C_R   0.939102 0.318765 0.870361 0.203582
C52   C     C_R   0.064077 0.738194 0.096599 0.177499
C53   C     C_R   0.318765 0.060898 0.370361 0.203582
C54   C     C_R   0.738194 0.935923 0.596599 0.177499
C55   C     C_R   0.998828 0.321833 0.096024 -0.056576
C56   C     C_1   0.000094 0.130085 0.805194 0.186312
C57   C     C_R   0.998828 0.678167 0.903976 -0.056576
C58   C     C_R   0.678167 0.998828 0.596024 -0.056575
C59   C     C_R   0.321833 0.998828 0.403976 -0.056576
C60   C     C_R   0.001172 0.678167 0.096024 -0.056575
C61   C     C_R   0.001172 0.321833 0.903976 -0.056576
C62   C     C_R   0.321833 0.001172 0.596024 -0.056576
C63   C     C_R   0.678167 0.001172 0.403976 -0.056575
C64   C     C_1   0.000047 0.072635 0.220624 0.112945
C65   C     C_1   0.000047 0.927365 0.779376 0.112945
C66   C     C_1   0.927365 0.000047 0.720624 0.112944
C67   C     C_1   0.130085 0.000094 0.694806 0.186312
C68   C     C_1   0.072635 0.000047 0.279376 0.112945
C69   C     C_1   0.999953 0.927365 0.220624 0.112945
C70   C     C_1   0.999953 0.072635 0.779376 0.112945
C71   C     C_1   0.072635 0.999953 0.720624 0.112945
C72   C     C_1   0.927365 0.999953 0.279376 0.112945
C73   C     C_1   0.869915 0.000094 0.305194 0.186313
C74   C     C_3   1.000000 0.000000 0.250000 -0.056347
Cu1   Cu    Cu3+1 0.919200 0.500000 0.000000 1.344595
Cu2   Cu    Cu3+1 0.080800 0.500000 0.000000 1.344595
Cu3   Cu    Cu3+1 0.500000 0.919200 0.500000 1.344595
Cu4   Cu    Cu3+1 0.500000 0.080800 0.500000 1.344595
H1    H     H_    0.201170 0.452309 0.193247 0.380443
H2    H     H_    0.797658 0.151333 0.019808 0.395966
H3    H     H_    0.547691 0.798830 0.306753 0.380443
H4    H     H_    0.151333 0.202342 0.519808 0.395966
H5    H     H_    0.798830 0.452309 0.806753 0.380443
H6    H     H_    0.202342 0.848666 0.019808 0.395966
H7    H     H_    0.452309 0.201170 0.306753 0.380443
H8    H     H_    0.848666 0.797657 0.519808 0.395966
H9    H     H_    0.286129 0.255883 0.179651 0.393122
H10   H     H_    0.752942 0.745470 0.858226 0.363963
H11   H     H_    0.744114 0.286128 0.679652 0.393123
H12   H     H_    0.797658 0.848666 0.980192 0.395966
H13   H     H_    0.254529 0.752942 0.358226 0.363962
H14   H     H_    0.713871 0.744116 0.179651 0.393122
H15   H     H_    0.247058 0.254530 0.858226 0.363962
H16   H     H_    0.255884 0.713871 0.679652 0.393122
H17   H     H_    0.745470 0.247058 0.358226 0.363962
H18   H     H_    0.286129 0.744116 0.820349 0.393122
H19   H     H_    0.752942 0.254530 0.141774 0.363962
H20   H     H_    0.744116 0.713871 0.320348 0.393123
H21   H     H_    0.254529 0.247058 0.641774 0.363962
H22   H     H_    0.713870 0.255883 0.820349 0.393122
H23   H     H_    0.547691 0.201171 0.693246 0.380443
H24   H     H_    0.247058 0.745470 0.141774 0.363962
H25   H     H_    0.255884 0.286129 0.320348 0.393123
H26   H     H_    0.745470 0.752942 0.641774 0.363962
H27   H     H_    0.151333 0.797658 0.480191 0.395965
H28   H     H_    0.798830 0.547691 0.193247 0.380443
H29   H     H_    0.202342 0.151333 0.980191 0.395966
H30   H     H_    0.452309 0.798830 0.693247 0.380443
H31   H     H_    0.848667 0.202342 0.480192 0.395966
H32   H     H_    0.201171 0.547692 0.806753 0.380443
O1    O     O_R   0.931980 0.584070 0.954320 -0.456783
O2    O     O_R   0.068020 0.584070 0.954320 -0.446911
O3    O     O_3   0.201700 0.243954 0.625715 -0.388470
O4    O     O_2   0.845714 0.261941 0.767593 -0.170526
O5    O     O_2   0.830700 0.134425 0.810185 -0.222610
O6    O     O_3   0.759809 0.262154 0.841813 -0.415451
O7    O     O_2   0.156777 0.929849 0.129329 -0.152043
O8    O     O_2   0.172672 0.849210 0.198232 -0.245478
O9    O     O_3   0.243954 0.798300 0.125715 -0.388470
O10   O     O_2   0.261941 0.154286 0.267594 -0.170527
O11   O     O_2   0.134425 0.169300 0.310185 -0.222609
O12   O     O_3   0.262154 0.240191 0.341813 -0.415451
O13   O     O_R   0.415930 0.068020 0.545680 -0.456784
O14   O     O_2   0.929849 0.843222 0.629329 -0.152043
O15   O     O_2   0.849209 0.827328 0.698232 -0.245478
O16   O     O_3   0.798300 0.756046 0.625715 -0.388470
O17   O     O_R   0.584070 0.931980 0.454320 -0.446911
O18   O     O_R   0.068020 0.584070 0.045680 -0.456784
O19   O     O_R   0.931980 0.415930 0.954320 -0.446911
O20   O     O_R   0.584070 0.931980 0.545680 -0.456784
O21   O     O_R   0.415930 0.068020 0.454320 -0.446910
O22   O     O_2   0.198173 0.398753 0.107568 -0.197636
O23   O     O_2   0.082184 0.482443 0.130039 -0.266685
O24   O     O_3   0.160054 0.408320 0.192978 -0.423027
O25   O     O_R   0.068020 0.415930 0.045680 -0.446911
O26   O     O_2   0.799419 0.695531 0.947730 -0.221425
O27   O     O_2   0.915671 0.734687 0.994653 -0.259657
O28   O     O_3   0.836843 0.848601 0.954649 -0.395150
O29   O     O_2   0.601248 0.198173 0.607568 -0.197637
O30   O     O_2   0.517557 0.082185 0.630039 -0.266684
O31   O     O_3   0.591680 0.160054 0.692978 -0.423029
O32   O     O_2   0.304469 0.799419 0.447730 -0.221425
O33   O     O_2   0.265313 0.915671 0.494653 -0.259657
O34   O     O_3   0.151399 0.836843 0.454648 -0.395150
O35   O     O_2   0.801827 0.601247 0.107568 -0.197636
O36   O     O_R   0.415930 0.931980 0.454320 -0.456784
O37   O     O_2   0.917816 0.517557 0.130039 -0.266685
O38   O     O_3   0.839946 0.591680 0.192978 -0.423027
O39   O     O_2   0.200581 0.304469 0.947730 -0.221425
O40   O     O_2   0.084329 0.265313 0.994653 -0.259657
O41   O     O_3   0.163157 0.151399 0.954649 -0.395150
O42   O     O_2   0.398753 0.801827 0.607568 -0.197636
O43   O     O_2   0.482443 0.917816 0.630039 -0.266685
O44   O     O_3   0.408320 0.839947 0.692978 -0.423027
O45   O     O_2   0.695531 0.200581 0.447731 -0.221424
O46   O     O_2   0.734687 0.084329 0.494653 -0.259656
O47   O     O_R   0.584070 0.068020 0.545680 -0.446910
O48   O     O_3   0.848601 0.163157 0.454649 -0.395150
O49   O     O_2   0.198173 0.601247 0.892432 -0.197637
O50   O     O_2   0.082185 0.517557 0.869961 -0.266684
O51   O     O_3   0.160054 0.591680 0.807022 -0.423027
O52   O     O_2   0.799419 0.304469 0.052269 -0.221425
O53   O     O_2   0.915671 0.265313 0.005347 -0.259657
O54   O     O_3   0.836843 0.151399 0.045351 -0.395150
O55   O     O_2   0.601247 0.801827 0.392432 -0.197636
O56   O     O_2   0.517557 0.917815 0.369961 -0.266685
O57   O     O_3   0.591680 0.839946 0.307022 -0.423027
O58   O     O_R   0.068020 0.415930 0.954320 -0.456783
O59   O     O_2   0.304469 0.200581 0.552269 -0.221425
O60   O     O_2   0.265313 0.084329 0.505347 -0.259657
O61   O     O_3   0.151399 0.163157 0.545351 -0.395150
O62   O     O_2   0.801827 0.398753 0.892432 -0.197636
O63   O     O_2   0.917816 0.482443 0.869961 -0.266685
O64   O     O_3   0.839946 0.408320 0.807021 -0.423026
O65   O     O_2   0.200581 0.695531 0.052269 -0.221425
O66   O     O_2   0.084329 0.734687 0.005347 -0.259657
O67   O     O_3   0.163157 0.848601 0.045351 -0.395150
O68   O     O_2   0.398753 0.198173 0.392432 -0.197636
O69   O     O_R   0.931980 0.584070 0.045680 -0.446911
O70   O     O_2   0.482443 0.082184 0.369961 -0.266685
O71   O     O_3   0.408320 0.160053 0.307022 -0.423027
O72   O     O_2   0.695530 0.799419 0.552269 -0.221425
O73   O     O_2   0.734687 0.915671 0.505347 -0.259657
O74   O     O_3   0.848601 0.836843 0.545351 -0.395150
O75   O     O_2   0.154286 0.261941 0.232406 -0.170527
O76   O     O_2   0.169300 0.134425 0.189814 -0.222610
O77   O     O_3   0.240191 0.262154 0.158186 -0.415450
O78   O     O_2   0.843222 0.929849 0.870671 -0.152043
O79   O     O_2   0.827328 0.849209 0.801768 -0.245478
O80   O     O_R   0.584070 0.068020 0.454320 -0.456784
O81   O     O_3   0.756046 0.798300 0.874285 -0.388471
O82   O     O_2   0.738059 0.154287 0.732406 -0.170529
O83   O     O_2   0.865575 0.169300 0.689815 -0.222607
O84   O     O_3   0.737847 0.240191 0.658186 -0.415451
O85   O     O_2   0.070151 0.843223 0.370671 -0.152043
O86   O     O_2   0.150790 0.827328 0.301768 -0.245478
O87   O     O_3   0.201700 0.756046 0.374285 -0.388470
O88   O     O_2   0.845714 0.738059 0.232406 -0.170527
O89   O     O_2   0.830700 0.865575 0.189814 -0.222609
O90   O     O_3   0.759809 0.737846 0.158186 -0.415451
O91   O     O_R   0.415930 0.931980 0.545680 -0.446911
O92   O     O_2   0.156777 0.070151 0.870671 -0.152043
O93   O     O_2   0.172672 0.150790 0.801768 -0.245478
O94   O     O_3   0.243954 0.201700 0.874285 -0.388470
O95   O     O_2   0.261941 0.845714 0.732406 -0.170527
O96   O     O_2   0.134425 0.830700 0.689814 -0.222609
O97   O     O_3   0.262154 0.759809 0.658187 -0.415451
O98   O     O_2   0.929849 0.156777 0.370671 -0.152043
O99   O     O_2   0.849209 0.172672 0.301768 -0.245478
O100  O     O_3   0.798300 0.243954 0.374285 -0.388470
O101  O     O_2   0.154286 0.738059 0.767594 -0.170527
O102  O     O_R   0.931980 0.415930 0.045680 -0.456784
O103  O     O_2   0.169300 0.865575 0.810185 -0.222609
O104  O     O_3   0.240191 0.737846 0.841814 -0.415451
O105  O     O_2   0.843222 0.070151 0.129329 -0.152043
O106  O     O_2   0.827328 0.150790 0.198232 -0.245478
O107  O     O_3   0.756046 0.201700 0.125715 -0.388470
O108  O     O_2   0.738059 0.845714 0.267594 -0.170527
O109  O     O_2   0.865575 0.830700 0.310185 -0.222609
O110  O     O_3   0.737846 0.759809 0.341813 -0.415451
O111  O     O_2   0.070151 0.156777 0.629329 -0.152043
O112  O     O_2   0.150790 0.172672 0.698232 -0.245478
S1    S     S_3+6 0.126534 0.404354 0.139119 0.119302
S2    S     S_3+6 0.870696 0.247664 0.048578 0.117131
S3    S     S_3+6 0.595646 0.873466 0.360881 0.119302
S4    S     S_3+6 0.247664 0.129304 0.548578 0.117131
S5    S     S_3+6 0.873466 0.404354 0.860881 0.119302
S6    S     S_3+6 0.129304 0.752336 0.048578 0.117131
S7    S     S_3+6 0.404354 0.126533 0.360881 0.119302
S8    S     S_3+6 0.752335 0.870696 0.548578 0.117131
S9    S     S_3+6 0.158952 0.224956 0.185893 0.138728
S10   S     S_3+6 0.838241 0.844695 0.852402 0.124088
S11   S     S_3+6 0.775045 0.158952 0.685893 0.138729
S12   S     S_3+6 0.870696 0.752336 0.951422 0.117131
S13   S     S_3+6 0.155305 0.838241 0.352402 0.124088
S14   S     S_3+6 0.841048 0.775044 0.185893 0.138728
S15   S     S_3+6 0.161759 0.155305 0.852402 0.124088
S16   S     S_3+6 0.224956 0.841048 0.685894 0.138729
S17   S     S_3+6 0.844695 0.161759 0.352402 0.124088
S18   S     S_3+6 0.158952 0.775044 0.814106 0.138728
S19   S     S_3+6 0.838241 0.155305 0.147598 0.124088
S20   S     S_3+6 0.775044 0.841048 0.314106 0.138729
S21   S     S_3+6 0.155305 0.161759 0.647598 0.124088
S22   S     S_3+6 0.841048 0.224956 0.814106 0.138729
S23   S     S_3+6 0.595646 0.126534 0.639119 0.119301
S24   S     S_3+6 0.161759 0.844695 0.147598 0.124088
S25   S     S_3+6 0.224956 0.158952 0.314106 0.138729
S26   S     S_3+6 0.844695 0.838241 0.647598 0.124088
S27   S     S_3+6 0.247664 0.870696 0.451422 0.117131
S28   S     S_3+6 0.873466 0.595646 0.139119 0.119302
S29   S     S_3+6 0.129304 0.247664 0.951422 0.117131
S30   S     S_3+6 0.404354 0.873467 0.639119 0.119302
S31   S     S_3+6 0.752336 0.129304 0.451422 0.117131
S32   S     S_3+6 0.126534 0.595646 0.860881 0.119302

loop_
_geom_bond_atom_site_label_1
_geom_bond_atom_site_label_2
_ccdc_geom_bond_type
O39   S29   D    
C48   C55   A    
O4    S22   D    
O34   S27   S    
O6    S22   S    
O37   S28   D    
C49   C63   A    
H20   O110  S    
H10   O81   S    
O22   S1    D    
C8    C26   A    
C31   S20   S    
C2    C70   S    
C51   C61   A    
O64   S5    S    
C2    C65   S    
C8    C56   S    
H27   O34   S    
C52   S6    S    
C40   S23   S    
C53   C59   A    
H28   O38   S    
O82   S11   D    
O7    S24   D    
C14   C59   S    
C9    C27   A    
C37   S26   S    
C29   C47   A    
C7    C45   S    
C23   C66   T    
C30   C48   A    
O9    S24   S    
C31   C49   A    
C15   O47   A    
C5    C37   A    
C28   S17   S    
C54   C58   A    
O62   S5    D    
C18   C63   S    
O57   S3    S    
C19   C62   S    
C68   C74   S    
C39   C57   A    
C19   O91   A    
H18   O104  S    
O50   S32   D    
H15   O94   S    
H2    O54   S    
C36   C53   A    
C52   C60   A    
O97   S16   S    
H32   O51   S    
H23   O31   S    
C10   C31   A    
C44   S30   S    
C38   C55   A    
C25   S14   S    
O71   S7    S    
O81   S10   S    
O3    S21   S    
C30   S19   S    
Cu4   O80   S    
O31   S23   S    
O10   S25   D    
C4    C12   S    
Cu1   O69   S    
C29   S18   S    
C4    C29   A    
Cu3   O17   S    
Cu3   Cu4   S    
C8    C33   A    
O77   S9    S    
O103  S18   D    
O59   S4    D    
C22   C40   A    
O32   S27   D    
H8    O74   S    
C24   C41   A    
C13   O25   A    
C13   O102  A    
O85   S13   D    
H6    O67   S    
O92   S15   D    
O28   S12   S    
O66   S6    D    
H31   O48   S    
C27   C44   A    
O98   S17   D    
O83   S11   D    
O51   S32   S    
H12   O28   S    
Cu2   O25   S    
O72   S8    D    
C26   C43   A    
C14   O21   A    
O87   S13   S    
O75   S9    D    
O43   S30   D    
O70   S7    D    
O105  S19   D    
C40   C58   A    
C5    C22   A    
C45   C69   T    
O30   S23   D    
O90   S14   S    
O35   S28   D    
O40   S29   D    
O79   S10   D    
C41   C59   A    
O68   S7    D    
C72   C74   S    
O63   S5    D    
C34   C68   T    
C72   C73   T    
O41   S29   S    
Cu1   O102  S    
C48   S2    S    
C44   C62   A    
O53   S2    D    
C21   S10   S    
O110  S20   S    
O16   S26   S    
O65   S6    D    
C6    C34   S    
O26   S12   D    
C1    C3    S    
C38   S1    S    
O14   S26   D    
C3    C30   A    
O104  S18   S    
Cu1   Cu2   S    
C9    C67   S    
Cu4   O13   S    
C18   O17   A    
C47   C57   A    
C22   S11   S    
C20   C38   A    
O54   S2    S    
Cu4   O47   S    
C5    C23   S    
O61   S4    S    
Cu2   O2    S    
C6    C24   A    
C46   S31   S    
O55   S3    D    
H3    O57   S    
H30   O44   S    
C3    C20   A    
O96   S16   D    
Cu1   O1    S    
C16   O19   A    
O73   S8    D    
C32   C50   A    
C47   S32   S    
C37   C54   A    
O23   S1    D    
O52   S2    D    
C56   C70   T    
O60   S4    D    
C32   S21   S    
C51   S5    S    
C50   C62   A    
C15   C58   S    
H19   O107  S    
C9    C32   A    
C16   C61   S    
O84   S11   S    
C49   S3    S    
C2    C71   S    
O29   S23   D    
C1    C64   T    
C42   C60   A    
O42   S30   D    
O46   S31   D    
C43   C61   A    
C19   O13   A    
O111  S21   D    
C10   C28   A    
O106  S19   D    
C36   S25   S    
H1    O24   S    
H4    O61   S    
C18   O80   A    
C35   S24   S    
H7    O71   S    
O33   S27   D    
C11   O2    A    
O101  S18   D    
H17   O100  S    
C7    C35   A    
C21   C39   A    
Cu4   O21   S    
H16   O97   S    
O99   S17   D    
O94   S15   S    
C2    C66   S    
Cu3   O91   S    
C25   C42   A    
H21   O3    S    
C39   S12   S    
H9    O77   S    
O112  S21   D    
O8    S24   D    
C17   O18   A    
O76   S9    D    
O86   S13   D    
C33   C51   A    
C12   C65   T    
C14   O36   A    
O38   S28   S    
C7    C25   A    
O109  S20   D    
C46   C63   A    
C28   C46   A    
H22   O6    S    
O48   S31   S    
H29   O41   S    
C24   S13   S    
C11   C57   S    
O89   S14   D    
O100  S17   S    
O67   S6    S    
C4    C21   A    
O45   S31   D    
C26   S15   S    
C17   O69   A    
C33   S22   S    
C15   O20   A    
O44   S30   S    
C16   O58   A    
O56   S3    D    
Cu2   O18   S    
H11   O84   S    
C10   C73   S    
C6    C36   A    
Cu2   O58   S    
C67   C71   T    
Cu3   O20   S    
O108  S20   D    
O95   S16   D    
O107  S19   S    
O93   S15   D    
C50   S4    S    
C17   C60   S    
O74   S8    S    
O5    S22   D    
H13   O87   S    
C43   S29   S    
O11   S25   D    
H26   O16   S    
C42   S28   S    
O24   S1    S    
H5    O64   S    
C41   S27   S    
C35   C52   A    
C20   S9    S    
C11   O1    A    
C64   C74   S    
C69   C74   S    
O15   S26   D    
O88   S14   D    
O49   S32   D    
O27   S12   D    
H14   O90   S    
H25   O12   S    
O78   S10   D    
Cu3   O36   S    
C54   S8    S    
H24   O9    S    
Cu1   O19   S    
C27   S16   S    
C53   S7    S    
O12   S25   S    
C13   C55   S    
