data_mof_unit_29527.cif
_audit_creation_date              2012-12-11T17:06:34-0500
_audit_creation_method            fapswitch 2.2
_symmetry_space_group_name_H-M    P1
_symmetry_Int_Tables_number       1
_space_group_crystal_system       triclinic
_cell_length_a                    6.984971
_cell_length_b                    14.53729
_cell_length_c                    15.955574
_cell_angle_alpha                 90.690936
_cell_angle_beta                  90.162279
_cell_angle_gamma                 89.966098
_cell_volume                      1620.0451032

loop_
_atom_site_label
_atom_site_type_symbol
_atom_type_description
_atom_site_fract_x
_atom_site_fract_y
_atom_site_fract_z
_atom_type_partial_charge
O1    O     O_R   0.494400 0.415450 0.412630 -0.534418
O2    O     O_R   0.823940 0.405730 0.586760 -0.552298
O3    O     O_R   0.994240 0.584550 0.587370 -0.536024
C1    C     C_R   0.655006 0.381379 0.613413 0.696682
O4    O     O_R   0.824110 0.404430 0.413240 -0.548412
O5    O     O_R   0.994420 0.583240 0.412620 -0.541290
C2    C     C_R   0.655455 0.382410 0.384226 0.699988
O6    O     O_R   0.494230 0.416760 0.587380 -0.535776
O7    O     O_3   0.660800 0.558670 0.500000 -0.368305
V1    V     V_3+5 0.935650 0.489120 0.500000 1.369643
O8    O     O_R   0.324140 0.594270 0.413240 -0.538119
C3    C     C_R   0.155153 0.614962 0.383667 0.698426
O9    O     O_R   0.323960 0.595570 0.586760 -0.541626
C4    C     C_R   0.155341 0.617668 0.615516 0.680146
V2    V     V_3+5 0.435660 0.510880 0.500000 1.403213
O10   O     O_3   0.160640 0.441330 0.500000 -0.379570
C5    C     C_3   0.056275 0.668133 0.772100 -0.141973
C6    C     C_3   0.228684 0.716742 0.814968 -0.137052
H1    H     H_    0.307075 0.691260 0.870668 0.125172
H2    H     H_    0.993102 0.601674 0.791504 0.102109
C7    C     C_3   0.120887 0.808905 0.810233 -0.006980
C8    C     C_3   0.948276 0.761111 0.768176 -0.120831
C9    C     C_3   0.037314 0.779567 0.681139 -0.135435
C10   C     C_3   0.209744 0.828185 0.724002 -0.143800
C11   C     C_3   0.317748 0.735191 0.727935 -0.123565
C12   C     C_3   0.145127 0.687378 0.685853 -0.004733
H3    H     H_    0.795872 0.772012 0.785204 0.104623
H4    H     H_    0.958650 0.805099 0.625512 0.100778
H5    H     H_    0.272821 0.894695 0.704612 0.101743
H6    H     H_    0.470199 0.724277 0.711016 0.107829
C13   C     C_R   0.280097 0.760630 0.196027 0.056488
C14   C     C_R   0.120346 0.815711 0.182273 -0.112365
C15   C     C_R   0.968357 0.805270 0.239975 -0.201440
H7    H     H_    0.842190 0.848084 0.235205 0.118178
C16   C     C_R   0.979940 0.740460 0.305905 -0.186224
H8    H     H_    0.861834 0.735743 0.349424 0.126996
C17   C     C_R   0.142970 0.683248 0.315677 -0.101296
C18   C     C_R   0.288817 0.695924 0.257255 -0.023454
C19   C     C_3   0.474661 0.657673 0.225328 -0.253323
C20   C     C_3   0.465677 0.733762 0.157462 0.311046
H9    H     H_    0.592094 0.667814 0.271583 0.100484
H10   H     H_    0.572673 0.790085 0.164577 0.041312
C21   C     C_R   0.477859 0.299452 0.726327 0.076602
C22   C     C_R   0.645425 0.312534 0.681352 -0.110970
C23   C     C_R   0.801355 0.257205 0.703024 -0.191129
H11   H     H_    0.924955 0.257498 0.664766 0.136978
C24   C     C_R   0.790895 0.193948 0.768773 -0.196196
H12   H     H_    0.909327 0.147588 0.778728 0.140712
C25   C     C_R   0.623119 0.184854 0.816398 -0.111256
C26   C     C_R   0.468294 0.242022 0.796075 0.079996
C27   C     C_3   0.269712 0.213002 0.774186 -0.449679
C28   C     C_3   0.289638 0.267074 0.693442 -0.169665
H13   H     H_    0.166041 0.244331 0.818870 0.168411
H14   H     H_    0.254453 0.137254 0.765990 0.167571
H15   H     H_    0.191149 0.326775 0.688684 0.126077
C29   C     C_R   0.486256 0.255486 0.306080 0.131250
C30   C     C_R   0.647694 0.310842 0.317595 -0.100019
C31   C     C_R   0.803916 0.295256 0.263940 -0.188347
H16   H     H_    0.928580 0.338705 0.268816 0.136762
C32   C     C_R   0.792494 0.230270 0.197950 -0.192888
H17   H     H_    0.910264 0.224516 0.154480 0.132961
C33   C     C_R   0.624128 0.179195 0.183602 -0.107634
C34   C     C_R   0.475106 0.190260 0.241354 0.100920
C35   C     C_3   0.270405 0.212065 0.224965 -0.425126
C36   C     C_3   0.284740 0.284889 0.293557 -0.403301
H18   H     H_    0.175380 0.153784 0.241587 0.170795
H19   H     H_    0.246825 0.240837 0.161595 0.173728
H20   H     H_    0.194319 0.271286 0.348688 0.174776
H21   H     H_    0.274390 0.356345 0.270143 0.178058
O11   O     O_R   0.771650 0.079500 0.908680 -0.540237
O12   O     O_R   0.441690 0.091800 0.082800 -0.541297
O13   O     O_R   0.271460 0.912980 0.083410 -0.532011
C37   C     C_R   0.610785 0.113620 0.112041 0.686134
O14   O     O_R   0.441930 0.090510 0.909280 -0.540849
O15   O     O_R   0.271690 0.911670 0.908660 -0.532699
C38   C     C_R   0.610702 0.113430 0.881593 0.694404
O16   O     O_R   0.771410 0.080810 0.083440 -0.540321
O17   O     O_3   0.605100 0.937580 0.996050 -0.373916
V3    V     V_3+5 0.330220 0.007110 0.996030 1.401599
O18   O     O_R   0.941980 0.900620 0.909250 -0.547530
C39   C     C_R   0.110619 0.878539 0.880545 0.689367
O19   O     O_R   0.941740 0.901920 0.082770 -0.551316
C40   C     C_R   0.110589 0.881132 0.112124 0.719934
V4    V     V_3+5 0.830220 0.985300 0.996000 1.374196
O20   O     O_3   0.105210 0.054870 0.996020 -0.372870
O21   O     O_3   0.437028 0.700314 0.074714 -0.542477
C41   C     C_3   0.614130 0.697105 0.032526 -0.203989
H22   H     H_    0.725981 0.660533 0.069029 0.126812
H23   H     H_    0.664387 0.767449 0.018111 0.162173
H24   H     H_    0.594608 0.659372 0.972286 0.139991
C42   C     C_R   0.299975 0.204470 0.615332 0.142226
C43   C     C_R   0.422358 0.127007 0.611700 -0.127094
C44   C     C_R   0.417239 0.066234 0.543209 -0.147152
C45   C     C_R   0.287184 0.080211 0.478162 -0.091068
C46   C     C_R   0.164846 0.155986 0.480847 -0.138960
C47   C     C_R   0.175646 0.219356 0.547311 -0.138904
H25   H     H_    0.519322 0.111867 0.662406 0.126077
H26   H     H_    0.511379 0.007069 0.541541 0.108229
H27   H     H_    0.280037 0.031962 0.426044 0.104896
H28   H     H_    0.059876 0.165107 0.431671 0.108912
H29   H     H_    0.081817 0.278247 0.546468 0.132554
C48   C     C_R   0.465616 0.560985 0.188263 0.207625
C49   C     C_R   0.292803 0.521269 0.159429 -0.078766
C50   C     C_R   0.295067 0.438788 0.113481 -0.166901
C51   C     C_R   0.468783 0.395538 0.095162 -0.072652
C52   C     C_R   0.640326 0.434041 0.123731 -0.105072
C53   C     C_R   0.638773 0.515362 0.171246 -0.163286
H30   H     H_    0.156757 0.555067 0.169790 0.101870
H31   H     H_    0.162132 0.409005 0.091136 0.101255
H32   H     H_    0.470566 0.332326 0.058616 0.096618
H33   H     H_    0.775101 0.401314 0.108399 0.104511
H34   H     H_    0.773616 0.545099 0.191502 0.094048

loop_
_geom_bond_atom_site_label_1
_geom_bond_atom_site_label_2
_ccdc_geom_bond_type
C41   H22   S    
C44   C45   A    
C6    C7    S    
C53   H34   S    
C16   H8    S    
C1    O6    A    
O12   V3    S    
C24   C25   A    
C23   H11   S    
C29   C30   A    
C17   C18   A    
O14   C38   A    
C5    C12   S    
C7    C8    S    
C16   C17   A    
C51   H32   S    
O13   V3    S    
O5    C3    A    
C50   H31   S    
C21   C28   S    
C52   C53   A    
C31   C32   A    
V2    O10   S    
C5    H2    S    
C13   C20   S    
C32   C33   A    
C6    H1    S    
C9    C12   S    
C20   O21   S    
C3    C17   S    
C10   H5    S    
C42   C47   A    
C41   H24   S    
O8    V2    S    
C13   C14   A    
C9    C10   S    
C33   C37   S    
C49   H30   S    
O1    V2    S    
O11   V4    S    
O7    V1    S    
C28   H15   S    
O18   V4    S    
C20   H10   S    
C47   H29   S    
C45   C46   A    
C6    C11   S    
C50   C51   A    
C43   H25   S    
C15   H7    S    
C52   H33   S    
C23   C24   A    
C25   C38   S    
C27   C28   S    
C35   H19   S    
C10   C11   S    
C46   H28   S    
C19   H9    S    
C42   C43   A    
O12   C37   A    
O17   V3    S    
O15   C39   A    
C1    C22   S    
O16   V4    S    
C26   C27   S    
C11   C12   S    
C4    C12   S    
C32   H17   S    
C27   H13   S    
C35   H18   S    
O2    C1    A    
C21   C22   A    
C33   C34   A    
C24   H12   S    
C36   H20   S    
C5    C6    S    
C29   C34   A    
C48   C53   A    
C9    H4    S    
V4    O20   S    
O3    C4    A    
C7    C39   S    
O19   C40   A    
O6    V2    S    
O19   V4    S    
C8    H3    S    
C41   H23   S    
O11   C38   A    
C31   H16   S    
O2    V1    S    
V3    O20   S    
C22   C23   A    
O21   C41   S    
C19   C48   S    
O4    C2    A    
C11   H6    S    
C14   C40   S    
O1    C2    A    
O18   C39   A    
O5    V1    S    
O8    C3    A    
C21   C26   A    
C51   C52   A    
C5    C8    S    
C13   C18   A    
O14   V3    S    
C27   H14   S    
C14   C15   A    
O9    V2    S    
O7    V2    S    
O4    V1    S    
O3    V1    S    
V1    O10   S    
C35   C36   S    
C30   C31   A    
C18   C19   S    
C45   H27   S    
C36   H21   S    
C43   C44   A    
C15   C16   A    
C48   C49   A    
O13   C40   A    
C34   C35   S    
C19   C20   S    
O17   V4    S    
C25   C26   A    
C7    C10   S    
C49   C50   A    
C37   O16   A    
C8    C9    S    
C28   C42   S    
O9    C4    A    
O15   V3    S    
C44   H26   S    
C2    C30   S    
C46   C47   A    
C29   C36   S    
