data_mof_unit_41151.cif
_audit_creation_date              2012-12-10T18:58:45-0500
_audit_creation_method            fapswitch 2.2
_symmetry_space_group_name_H-M    P1
_symmetry_Int_Tables_number       1
_space_group_crystal_system       triclinic
_cell_length_a                    13.003527
_cell_length_b                    10.850566
_cell_length_c                    9.544852
_cell_angle_alpha                 90.342088
_cell_angle_beta                  95.99061
_cell_angle_gamma                 90.480073
_cell_volume                      1339.30363361

loop_
_atom_site_label
_atom_site_type_symbol
_atom_type_description
_atom_site_fract_x
_atom_site_fract_y
_atom_site_fract_z
_atom_type_partial_charge
C1    C     C_R   0.496784 0.262536 0.499120 0.818522
C2    C     C_R   0.027833 0.486856 0.566507 0.172166
C3    C     C_R   0.972204 0.501819 0.432580 0.173384
C4    C     C_R   0.864877 0.504653 0.420716 -0.266283
C5    C     C_R   0.867741 0.475950 0.673204 -0.161032
C6    C     C_R   0.975188 0.473274 0.686146 -0.220881
C7    C     C_R   0.482098 0.064996 0.620993 0.126198
C8    C     C_R   0.483378 0.130020 0.496232 -0.141031
C9    C     C_R   0.466102 0.065490 0.368012 -0.321565
C10   C     C_R   0.464802 0.935733 0.366043 0.400543
C11   C     C_R   0.482533 0.871381 0.495503 -0.146626
C12   C     C_R   0.300547 0.499594 0.473830 0.800540
C13   C     C_R   0.481646 0.938343 0.620948 0.063242
C14   C     C_3   0.551160 0.934795 0.755734 -0.475410
C15   C     C_3   0.551726 0.074498 0.754856 -0.437300
C16   C     C_R   0.587275 0.531360 0.086487 0.198971
C17   C     C_R   0.417386 0.456604 0.062344 -0.071704
C18   C     C_R   0.417332 0.456711 0.913625 -0.098041
C19   C     C_R   0.587807 0.529941 0.939025 0.291742
C20   C     C_3   0.645124 0.649492 0.942795 0.137307
C21   C     C_3   0.643733 0.651481 0.101589 -0.528959
C22   C     C_R   0.496291 0.737944 0.499298 0.835923
C23   C     C_R   0.699462 0.498150 0.526103 0.809632
C24   C     C_R   0.812199 0.493419 0.540809 -0.058817
C25   C     C_R   0.187811 0.499113 0.458689 -0.047229
C26   C     C_R   0.024725 0.514136 0.312651 -0.211665
C27   C     C_R   0.132181 0.512657 0.325620 -0.193075
C28   C     C_R   0.135232 0.485654 0.578637 -0.260319
Cu1   Cu    Cu3+1 0.499990 0.499980 0.640670 0.954131
Cu2   Cu    Cu3+1 0.500010 0.500020 0.359330 0.967105
H1    H     H_    0.822683 0.515736 0.317732 0.153785
H2    H     H_    0.628020 0.894704 0.742490 0.195085
H3    H     H_    0.512380 0.115797 0.841616 0.196830
H4    H     H_    0.628543 0.115349 0.740004 0.196168
H5    H     H_    0.349917 0.422883 0.107830 0.136245
H6    H     H_    0.349810 0.422907 0.848767 0.143374
H7    H     H_    0.600371 0.722885 0.885805 0.126788
H8    H     H_    0.721444 0.643135 0.160811 0.205274
H9    H     H_    0.595761 0.726780 0.138683 0.223936
H10   H     H_    0.828314 0.463222 0.766458 0.205556
H11   H     H_    0.982821 0.525420 0.209319 0.145402
H12   H     H_    0.016972 0.460467 0.789280 0.137293
H13   H     H_    0.171599 0.523058 0.231814 0.156074
H14   H     H_    0.177625 0.474315 0.681681 0.144593
H15   H     H_    0.458307 0.115228 0.269437 0.161793
H16   H     H_    0.510632 0.897204 0.843288 0.197662
N1    N     N_R   0.500660 0.500930 0.148010 -0.177574
N2    N     N_R   0.500660 0.500890 0.852110 -0.218663
O1    O     O_R   0.500000 0.319640 0.618810 -0.583156
O2    O     O_R   0.500010 0.319680 0.381230 -0.586521
O3    O     O_R   0.348990 0.499960 0.599490 -0.595472
O4    O     O_R   0.349000 0.500000 0.361910 -0.592048
O5    O     O_R   0.499990 0.680320 0.618770 -0.591196
O6    O     O_R   0.500000 0.680360 0.381190 -0.517576
O7    O     O_R   0.651000 0.500000 0.638090 -0.558617
O8    O     O_R   0.651010 0.500040 0.400510 -0.590879
O9    O     O_3   0.744894 0.634919 0.903040 -0.732215
H17   H     H_    0.776159 0.718725 0.905904 0.327016
O10   O     O_3   0.450295 0.871853 0.239707 -0.728800
H18   H     H_    0.439879 0.931112 0.160918 0.310374

loop_
_geom_bond_atom_site_label_1
_geom_bond_atom_site_label_2
_ccdc_geom_bond_type
O10   H18   S    
C23   C24   S    
C16   C21   S    
C23   O7    A    
Cu1   Cu2   S    
C25   C27   A    
C1    C8    S    
C11   C13   A    
C9    C10   A    
C15   H4    S    
C19   C20   S    
C21   H9    S    
C12   C25   S    
Cu2   O8    S    
C18   N2    A    
C7    C15   S    
C10   O10   S    
O9    H17   S    
C7    C8    A    
C22   O6    A    
Cu1   O1    S    
C13   C14   S    
C25   C28   A    
C9    H15   S    
C20   H7    S    
Cu2   O6    S    
C23   O8    A    
C26   C27   A    
C2    C6    A    
C5    C24   A    
Cu1   O5    S    
C28   H14   S    
C16   C19   A    
C16   N1    A    
C17   H5    S    
C12   O4    A    
Cu1   O3    S    
C17   C18   A    
C22   O5    A    
C2    C3    A    
C6    H12   S    
C5    C6    A    
C4    C24   A    
C4    H1    S    
C10   C11   A    
Cu1   N2    S    
C3    C4    A    
C27   H13   S    
Cu2   N1    S    
C7    C13   A    
C12   O3    A    
C20   C21   S    
C11   C22   S    
C14   H16   S    
C1    O2    A    
C5    H10   S    
Cu2   O4    S    
C14   C15   S    
C2    C28   A    
Cu1   O7    S    
Cu2   O2    S    
C20   O9    S    
C19   N2    A    
C18   H6    S    
C15   H3    S    
C3    C26   A    
C21   H8    S    
C17   N1    A    
C26   H11   S    
C14   H2    S    
C8    C9    A    
C1    O1    A    
