data_mof_unit_9318.cif
_audit_creation_date              2012-12-11T19:41:53-0500
_audit_creation_method            fapswitch 2.2
_symmetry_space_group_name_H-M    P1
_symmetry_Int_Tables_number       1
_space_group_crystal_system       triclinic
_cell_length_a                    8.17724
_cell_length_b                    15.094889
_cell_length_c                    26.95743
_cell_angle_alpha                 98.86601
_cell_angle_beta                  92.483327
_cell_angle_gamma                 81.100384
_cell_volume                      3247.49091113

loop_
_atom_site_label
_atom_site_type_symbol
_atom_type_description
_atom_site_fract_x
_atom_site_fract_y
_atom_site_fract_z
_atom_type_partial_charge
Ba1   Ba    Ba6+2 0.860050 0.456430 0.522530 1.645722
Ba2   Ba    Ba6+2 0.329780 0.543490 0.477460 1.654707
C1    C     C_3   0.692092 0.136964 0.649823 -0.366842
C2    C     C_3   0.684625 0.227914 0.631540 0.344338
C3    C     C_3   0.482418 0.687229 0.632071 0.298179
C4    C     C_3   0.451601 0.723405 0.687267 -0.367579
C5    C     C_3   0.989617 0.758074 0.343474 0.365277
C6    C     C_3   0.877415 0.827693 0.317358 0.008503
C7    C     C_3   0.486930 0.790562 0.371932 0.405195
C8    C     C_3   0.427124 0.885971 0.359540 -0.254561
C9    C     C_R   0.009871 0.441520 0.177273 0.637535
C10   C     C_R   0.957376 0.603849 0.186355 0.600271
C11   C     C_2   0.770029 0.577349 0.276095 -0.087138
C12   C     C_3   0.188784 0.257823 0.655627 0.287772
C13   C     C_3   0.735217 0.592155 0.331580 -0.058824
C14   C     C_1   0.981214 0.481598 0.342556 0.036311
C15   C     C_2   0.028594 0.481005 0.295705 -0.074020
C16   C     C_2   0.916215 0.529028 0.259105 0.216793
C17   C     C_R   0.042918 0.517386 0.104999 -0.108958
C18   C     C_R   0.052349 0.436046 0.125905 -0.072147
C19   C     C_R   0.098744 0.352650 0.093885 0.226363
C20   C     C_R   0.992480 0.601200 0.135310 -0.021428
C21   C     C_2   0.834272 0.521606 0.359080 -0.253056
C22   C     C_2   0.355001 0.480543 0.641131 -0.283065
C23   C     C_3   0.150756 0.243118 0.708142 -0.336062
C24   C     C_R   0.205632 0.432064 0.974491 0.006194
C25   C     C_R   0.079062 0.592110 0.979117 0.022552
C26   C     C_R   0.158829 0.510711 0.951006 0.054929
C27   C     C_R   0.312216 0.358026 0.947499 -0.064643
C28   C     C_R   0.347118 0.357673 0.897050 -0.076488
C29   C     C_R   0.286569 0.431358 0.872118 -0.034428
C30   C     C_R   0.194516 0.508668 0.899265 -0.079148
C31   C     C_R   0.140116 0.584524 0.874898 -0.035218
C32   C     C_R   0.175150 0.581226 0.823531 0.593082
C33   C     C_R   0.322720 0.430546 0.821076 0.582202
C34   C     C_3   0.220141 0.265696 0.412791 0.309291
C35   C     C_2   0.464438 0.485738 0.729206 -0.073059
C36   C     C_3   0.505391 0.488976 0.675131 -0.052445
C37   C     C_1   0.209264 0.520686 0.657879 0.037228
C38   C     C_2   0.170690 0.523164 0.705657 -0.103810
C39   C     C_2   0.304822 0.503297 0.744367 0.202719
C40   C     C_R   0.147643 0.432422 0.024098 -0.017688
C41   C     C_R   0.082988 0.515378 0.053537 0.057018
C42   C     C_R   0.055986 0.596334 0.031684 0.026007
C43   C     C_R   0.142894 0.352149 0.044259 -0.099233
C44   C     C_R   0.977999 0.681339 0.114057 -0.031521
C45   C     C_3   0.247349 0.163180 0.397429 -0.372456
C46   C     C_R   0.024298 0.666655 0.953499 -0.097725
C47   C     C_R   0.053029 0.662563 0.902526 -0.054397
C48   C     C_R   0.006757 0.679001 0.063319 -0.098749
C49   C     C_R   0.843751 0.831134 0.463731 -0.011544
C50   C     C_R   0.778712 0.924497 0.468594 -0.037776
C51   C     C_R   0.645895 0.112208 0.480576 -0.034663
C52   C     C_R   0.788104 0.077366 0.451903 -0.029059
C53   C     C_R   0.855250 0.985819 0.447017 -0.106042
C54   C     C_R   0.580209 0.206003 0.488206 0.054279
C55   C     C_R   0.435520 0.235743 0.515366 -0.298453
C56   C     C_3   0.977108 0.733548 0.585365 0.308273
C57   C     C_R   0.615129 0.803879 0.511022 0.021622
C58   C     C_R   0.550556 0.896712 0.517682 -0.030325
C59   C     C_R   0.631118 0.957241 0.495759 0.015082
C60   C     C_R   0.407877 0.930668 0.545850 -0.045547
C61   C     C_R   0.341312 0.021412 0.550730 -0.104473
C62   C     C_R   0.417898 0.082675 0.529205 -0.033637
C63   C     C_R   0.565744 0.050922 0.502141 0.007843
C64   C     C_R   0.350442 0.174904 0.534012 -0.007030
C65   C     C_R   0.756211 0.771886 0.482745 -0.290889
C66   C     C_3   0.951530 0.836199 0.599898 -0.384183
C67   C     C_3   0.664166 0.330216 0.365028 0.259544
C68   C     C_3   0.587435 0.300345 0.313560 -0.273495
H1    H     H_    0.796002 0.225117 0.608907 0.109724
H2    H     H_    0.336849 0.143870 0.366360 0.134456
H3    H     H_    0.296979 0.128835 0.429542 0.052579
H4    H     H_    0.128167 0.139617 0.384757 0.136094
H5    H     H_    0.858706 0.711077 0.572360 0.002951
H6    H     H_    0.066816 0.714894 0.554540 0.076935
H7    H     H_    0.854130 0.857275 0.628604 0.134527
H8    H     H_    0.913176 0.869889 0.566677 0.061359
H9    H     H_    0.068949 0.858687 0.615403 0.118460
H10   H     H_    0.792648 0.342240 0.360494 0.000241
H11   H     H_    0.588985 0.393454 0.383166 0.065038
H12   H     H_    0.695190 0.082086 0.617123 0.074084
H13   H     H_    0.650899 0.232003 0.297638 0.133358
H14   H     H_    0.454592 0.295864 0.317788 0.114459
H15   H     H_    0.571850 0.238920 0.607728 -0.039474
H16   H     H_    0.581454 0.136983 0.672307 0.126535
H17   H     H_    0.365220 0.667742 0.614689 0.028516
H18   H     H_    0.580312 0.626952 0.628947 0.035052
H19   H     H_    0.360121 0.786519 0.690837 0.139061
H20   H     H_    0.401409 0.672958 0.705738 0.077516
H21   H     H_    0.569128 0.738303 0.706614 0.127365
H22   H     H_    0.805481 0.123562 0.673354 0.136282
H23   H     H_    0.200834 0.294131 0.736225 0.131246
H24   H     H_    0.069430 0.711719 0.315231 0.110916
H25   H     H_    0.911321 0.716179 0.359279 -0.113992
H26   H     H_    0.789183 0.792901 0.291914 0.095602
H27   H     H_    0.806575 0.878816 0.345649 0.038141
H28   H     H_    0.624113 0.777884 0.370371 -0.160319
H29   H     H_    0.450450 0.789359 0.411006 0.068813
H30   H     H_    0.491767 0.935402 0.384796 0.017062
H31   H     H_    0.292547 0.905136 0.365859 0.144487
H32   H     H_    0.139182 0.329214 0.651794 0.075746
H33   H     H_    0.148548 0.444728 0.283357 0.117261
H34   H     H_    0.564877 0.475016 0.756335 0.102934
H35   H     H_    0.427114 0.299911 0.877499 0.127713
H36   H     H_    0.164670 0.287013 0.020820 0.109173
H37   H     H_    0.684639 0.612493 0.251085 0.111910
H38   H     H_    0.941592 0.746837 0.136584 0.151699
H39   H     H_    0.953978 0.728618 0.971711 0.081142
H40   H     H_    0.324978 0.246076 0.651129 -0.009890
H41   H     H_    0.007624 0.721671 0.884858 0.127726
H42   H     H_    0.042536 0.539429 0.716951 0.123304
H43   H     H_    0.994464 0.743675 0.050130 0.087655
H44   H     H_    0.792478 0.512750 0.395430 0.064365
H45   H     H_    0.366353 0.442113 0.603579 0.071806
H46   H     H_    0.851044 0.119863 0.433001 0.114283
H47   H     H_    0.966296 0.963601 0.425386 0.103608
H48   H     H_    0.229727 0.042474 0.572105 0.110855
H49   H     H_    0.343299 0.887880 0.564094 0.104297
H50   H     H_    0.383550 0.306822 0.519639 0.070268
H51   H     H_    0.014736 0.250809 0.712758 0.148751
H52   H     H_    0.805261 0.700411 0.478856 0.066234
H53   H     H_    0.207766 0.174115 0.714731 0.119600
H54   H     H_    0.340232 0.288531 0.423370 -0.006912
H55   H     H_    0.136450 0.282904 0.445301 0.071552
N1    N     N_R   0.963075 0.524636 0.206789 -0.429801
N2    N     N_R   0.265409 0.504618 0.796969 -0.425314
O1    O     O_2   0.906480 0.548660 0.619050 -0.465366
O2    O     O_3   0.670166 0.257518 0.391967 -0.638316
O3    O     O_3   0.113901 0.196874 0.620615 -0.610702
O4    O     O_2   0.283210 0.451310 0.380920 -0.475338
O5    O     O_3   0.051220 0.451340 0.441120 -0.492333
O6    O     O_3   0.503410 0.617620 0.414290 -0.474687
O7    O     O_3   0.151261 0.305878 0.371836 -0.623040
O8    O     O_3   0.617150 0.609960 0.527100 -0.474856
O9    O     O_3   0.088210 0.664420 0.439670 -0.469498
O10   O     O_2   0.185869 0.823935 0.473025 -0.492310
O11   O     O_3   0.091226 0.802458 0.379337 -0.592470
O12   O     O_3   0.138490 0.548590 0.558870 -0.494133
O13   O     O_3   0.572560 0.389960 0.472890 -0.491463
O14   O     O_2   0.345660 0.723580 0.528500 -0.470381
O15   O     O_3   0.534584 0.755280 0.609467 -0.644983
O16   O     O_2   0.403958 0.548627 0.323564 -0.480074
O17   O     O_3   0.415589 0.724789 0.338569 -0.569100
O18   O     O_2   0.012516 0.372506 0.195724 -0.540242
O19   O     O_2   0.405263 0.363587 0.798095 -0.598370
O20   O     O_2   0.922483 0.677180 0.212812 -0.595673
O21   O     O_2   0.127892 0.647376 0.802770 -0.594217
O22   O     O_3   0.686300 0.382310 0.585700 -0.488289
O23   O     O_2   0.850202 0.427473 0.670419 -0.496189
O24   O     O_3   0.035003 0.694117 0.627631 -0.626440
O25   O     O_3   0.678683 0.297310 0.672905 -0.591360
O26   O     O_2   0.844040 0.276390 0.471470 -0.463513
O27   O     O_3   0.101510 0.335500 0.560330 -0.485684
O28   O     O_2   0.009082 0.176197 0.527588 -0.488945
P1    P     P_3+3 0.071950 0.575820 0.612140 0.994925
P2    P     P_3+3 0.664370 0.290050 0.457240 0.978625
P3    P     P_3+3 0.144383 0.219395 0.560247 0.927919
P4    P     P_3+3 0.117760 0.424110 0.387850 0.994570
P5    P     P_3+3 0.051493 0.781879 0.439432 0.958733
P6    P     P_3+3 0.680780 0.400978 0.651272 0.973465
P7    P     P_3+3 0.532225 0.723774 0.544265 0.938992
P8    P     P_3+3 0.513062 0.617765 0.349932 0.987809
C69   C     C_1   0.600959 0.361952 0.277515 0.292137
N3    N     N_1   0.610306 0.409209 0.248161 -0.247145
I1    I     I_    0.014724 0.896046 0.273666 -0.353815
C70   C     C_1   0.460869 0.892590 0.307329 0.363140
N4    N     N_1   0.487103 0.897971 0.266141 -0.217890
I2    I     I_    0.106337 0.220548 0.113915 -0.278510
C71   C     C_1   0.408967 0.287278 0.971464 0.269307
N5    N     N_1   0.487252 0.230670 0.990480 -0.244358

loop_
_geom_bond_atom_site_label_1
_geom_bond_atom_site_label_2
_ccdc_geom_bond_type
C25   C46   A    
C23   H23   S    
C7    H28   S    
C39   N2    S    
C34   H55   S    
C6    H26   S    
Ba1   O1    S    
C64   P3    S    
C55   C64   A    
C11   H37   S    
Ba1   O5    S    
O2    P2    S    
C56   H6    S    
C5    C6    S    
C38   H42   S    
C51   C52   A    
C56   O24   S    
C60   C61   A    
C11   C16   D    
Ba2   O12   S    
C10   O20   D    
C13   P8    S    
C69   N3    T    
C34   H54   S    
C35   C36   S    
O27   P3    S    
C50   C59   A    
C12   O3    S    
C28   C29   A    
C12   H32   S    
C10   N1    Am   
C71   N5    T    
C31   C47   A    
C4    H21   S    
C10   C20   A    
C49   P5    S    
C22   C37   D    
C54   C55   A    
C34   C45   S    
C58   C60   A    
Ba1   Ba2   S    
C5    H24   S    
C57   C65   A    
C3    H18   S    
C32   O21   D    
C25   C42   A    
C36   P6    S    
C17   C18   A    
C8    C70   S    
C52   H46   S    
Ba2   O5    S    
Ba1   O22   S    
C27   C71   S    
C68   H14   S    
C7    C8    S    
O25   P6    S    
Ba1   O12   S    
C50   C53   A    
C47   H41   S    
C66   H9    S    
C13   C21   S    
O7    P4    S    
C57   C58   A    
C7    H29   S    
C14   P4    S    
O26   P2    D    
C67   C68   S    
O6    P8    S    
O16   P8    D    
C7    O17   S    
C17   C41   A    
C56   H5    S    
C31   C32   A    
C19   C43   A    
C66   H8    S    
C2    O25   S    
C9    C18   A    
O5    P4    S    
Ba2   O4    S    
C49   C50   A    
Ba2   O6    S    
C26   C30   A    
C9    N1    Am   
C34   O7    S    
C45   H3    S    
C70   N4    T    
C61   H48   S    
C32   N2    Am   
C2    H15   S    
C4    H20   S    
Ba2   O9    S    
C44   H38   S    
C1    H22   S    
C33   O19   D    
O9    P5    S    
Ba1   P1    S    
Ba1   O26   S    
C6    H27   S    
C27   C28   A    
C59   C63   A    
O13   P2    S    
C5    O11   S    
C54   P2    S    
C22   C36   S    
C29   C30   A    
C17   C20   A    
C1    H12   S    
C15   C16   S    
C49   C65   A    
O24   P1    S    
C8    H30   S    
C68   H13   S    
C23   H53   S    
C60   H49   S    
Ba1   O13   S    
C6    I1    S    
C24   C27   A    
C55   H50   S    
C56   C66   S    
C46   C47   A    
C20   C44   A    
C14   C21   D    
C11   C13   S    
C28   H35   S    
O8    P7    S    
C29   C33   A    
O22   P6    S    
C40   C41   A    
Ba2   P4    S    
C1    C2    S    
C65   H52   S    
C37   C38   D    
C51   C63   A    
C43   H36   S    
C24   C40   A    
C53   H47   S    
C51   C54   A    
C42   C48   A    
C66   H7    S    
C12   H40   S    
O23   P6    D    
C52   C53   A    
O4    P4    D    
O10   P5    D    
C8    H31   S    
C9    O18   D    
C45   H4    S    
C68   C69   S    
O15   P7    S    
C35   H34   S    
C4    H19   S    
C5    H25   S    
C44   C48   A    
C24   C26   A    
Ba2   O8    S    
C37   P1    S    
O3    P3    S    
C48   H43   S    
Ba2   O13   S    
C62   C63   A    
C33   N2    Am   
Ba1   P2    S    
C15   H33   S    
O17   P8    S    
C57   P7    S    
C30   C31   A    
C21   H44   S    
C3    O15   S    
C3    C4    S    
O12   P1    S    
C41   C42   A    
C19   I2    S    
C46   H39   S    
C12   C23   S    
C35   C39   D    
Ba1   O27   S    
C45   H2    S    
C67   H11   S    
O1    P1    D    
C61   C62   A    
C3    H17   S    
O11   P5    S    
O14   P7    D    
C18   C19   A    
C22   H45   S    
C67   O2    S    
C25   C26   A    
Ba2   O14   S    
C58   C59   A    
C67   H10   S    
C38   C39   S    
Ba1   O8    S    
C23   H51   S    
C40   C43   A    
C2    H1    S    
C16   N1    S    
C14   C15   D    
C62   C64   A    
O28   P3    D    
C1    H16   S    
