data_mof_unit_50447.cif
_audit_creation_date              2012-12-11T15:37:02-0500
_audit_creation_method            fapswitch 2.2
_symmetry_space_group_name_H-M    P1
_symmetry_Int_Tables_number       1
_space_group_crystal_system       triclinic
_cell_length_a                    15.066035
_cell_length_b                    15.071401
_cell_length_c                    34.851997
_cell_angle_alpha                 91.266436
_cell_angle_beta                  91.771857
_cell_angle_gamma                 60.111158
_cell_volume                      6857.65457676

loop_
_atom_site_label
_atom_site_type_symbol
_atom_type_description
_atom_site_fract_x
_atom_site_fract_y
_atom_site_fract_z
_atom_type_partial_charge
C1    C     C_R   0.610710 0.302682 0.444039 0.547562
C2    C     C_R   0.599312 0.095051 0.762858 -0.113642
C3    C     C_R   0.109946 0.751304 0.886277 -0.004538
C4    C     C_R   0.133493 0.739031 0.847255 -0.098094
C5    C     C_R   0.111844 0.675293 0.823715 0.017464
C6    C     C_R   0.072618 0.618055 0.839708 -0.129382
C7    C     C_R   0.048796 0.629403 0.878279 -0.136563
C8    C     C_R   0.170375 0.579086 0.762195 -0.117514
C9    C     C_R   0.179690 0.577019 0.722584 -0.115313
C10   C     C_R   0.142872 0.668613 0.702210 0.030413
C11   C     C_R   0.096232 0.762389 0.722055 -0.117415
C12   C     C_R   0.087164 0.764411 0.761745 -0.115876
C13   C     C_R   0.597628 0.169051 0.788639 0.028495
C14   C     C_R   0.642746 0.715711 0.157739 0.032945
C15   C     C_R   0.124571 0.672715 0.782049 0.028405
C16   C     C_R   0.201157 0.722787 0.645884 -0.121253
C17   C     C_R   0.238472 0.703912 0.608804 -0.128275
C18   C     C_R   0.188600 0.574454 0.600162 -0.125022
C19   C     C_R   0.150782 0.593778 0.637149 -0.121494
C20   C     C_R   0.161209 0.664625 0.660860 0.032448
C21   C     C_R   0.236894 0.626134 0.586382 0.023103
C22   C     C_R   0.673261 0.078813 0.906097 0.021677
C23   C     C_R   0.598785 0.063901 0.886481 -0.129052
C24   C     C_R   0.549291 0.194446 0.640637 -0.119564
C25   C     C_R   0.569419 0.098087 0.848769 -0.121895
C26   C     C_3   0.555255 0.754361 0.091835 -0.387551
C27   C     C_3   0.134710 0.820718 0.910439 -0.387642
C28   C     C_3   0.542946 0.735744 0.174817 -0.400568
C29   C     C_R   0.823425 0.665361 0.165165 -0.144046
C30   C     C_R   0.551080 0.219034 0.602371 -0.124266
C31   C     C_R   0.693114 0.247432 0.617664 -0.124976
C32   C     C_R   0.690306 0.224271 0.655924 -0.122203
C33   C     C_R   0.616115 0.201162 0.667891 0.029257
C34   C     C_R   0.620620 0.249377 0.590859 0.022895
C35   C     C_R   0.045548 0.739063 0.048562 0.536598
C36   C     C_R   0.731483 0.685878 0.181251 0.027644
C37   C     C_R   0.746609 0.745463 0.063558 0.536999
C38   C     C_R   0.751415 0.040149 0.050717 0.541308
C39   C     C_R   0.017466 0.722293 0.939833 0.543900
C40   C     C_R   0.717220 0.730094 0.954919 0.537493
C41   C     C_R   0.827864 0.679063 0.126283 -0.146284
C42   C     C_R   0.721429 0.024396 0.942070 0.542979
C43   C     C_R   0.752300 0.583841 0.239020 -0.118102
C44   C     C_R   0.744791 0.577079 0.278454 -0.115101
C45   C     C_R   0.715363 0.663481 0.302229 0.026616
C46   C     C_R   0.696944 0.755846 0.286029 -0.119983
C47   C     C_R   0.613595 0.148227 0.830323 0.031770
C48   C     C_R   0.704632 0.762438 0.246539 -0.118597
C49   C     C_R   0.730449 0.676931 0.222960 0.019928
C50   C     C_R   0.603458 0.736442 0.358879 -0.119306
C51   C     C_R   0.593274 0.610234 0.449405 0.544497
C52   C     C_R   0.573503 0.723631 0.394823 -0.125709
C53   C     C_R   0.728651 0.559004 0.400722 -0.122838
C54   C     C_R   0.758546 0.571884 0.364793 -0.117026
C55   C     C_R   0.694358 0.658923 0.342976 0.030127
C56   C     C_R   0.633940 0.632981 0.415393 0.019578
C57   C     C_R   0.102688 0.728405 0.084908 0.017986
C58   C     C_R   0.682556 0.169217 0.851063 -0.118188
C59   C     C_R   0.149334 0.634193 0.104066 -0.131913
C60   C     C_R   0.173217 0.629716 0.143118 -0.127226
C61   C     C_R   0.152210 0.718968 0.163539 0.027347
C62   C     C_R   0.116446 0.811031 0.143731 -0.124368
C63   C     C_R   0.303941 0.591473 0.442361 0.542612
C64   C     C_R   0.091673 0.815818 0.104545 -0.130886
C65   C     C_R   0.212613 0.753204 0.226869 -0.115364
C66   C     C_R   0.219908 0.745185 0.266860 -0.108710
C67   C     C_R   0.169412 0.702613 0.286258 0.031920
C68   C     C_R   0.108650 0.671754 0.264983 -0.116737
C69   C     C_R   0.712011 0.134917 0.888521 -0.124511
C70   C     C_R   0.102552 0.678531 0.225121 -0.116181
C71   C     C_R   0.156006 0.717420 0.205765 0.026787
C72   C     C_R   0.202024 0.589492 0.342561 -0.120240
C73   C     C_R   0.232756 0.563186 0.380719 -0.125276
C74   C     C_R   0.228976 0.724427 0.391184 -0.123844
C75   C     C_R   0.605573 0.300604 0.553748 0.542231
C76   C     C_R   0.197638 0.751002 0.353017 -0.114929
C77   C     C_R   0.187164 0.682307 0.327990 0.031638
C78   C     C_R   0.250138 0.628751 0.405039 0.020556
C79   C     C_R   0.725657 0.096515 0.087401 0.023451
C80   C     C_R   0.593157 0.257340 0.774034 -0.118576
C81   C     C_R   0.802716 0.100918 0.109659 -0.127645
C82   C     C_R   0.787563 0.127504 0.148419 -0.122151
C83   C     C_R   0.694767 0.151427 0.165266 0.030402
C84   C     C_R   0.614455 0.156425 0.142225 -0.120160
C85   C     C_R   0.629917 0.128760 0.103561 -0.124149
C86   C     C_R   0.597203 0.240849 0.223805 -0.118248
C87   C     C_R   0.587524 0.606421 0.559084 0.541103
C88   C     C_R   0.587895 0.247808 0.263574 -0.120939
C89   C     C_R   0.666112 0.174645 0.287323 0.054911
C90   C     C_R   0.753019 0.093488 0.270671 -0.059568
C91   C     C_R   0.597094 0.268293 0.734662 -0.116094
C92   C     C_R   0.762687 0.086990 0.230935 -0.117266
C93   C     C_R   0.685203 0.161054 0.207248 0.026043
C94   C     C_R   0.740606 0.184333 0.351288 0.376538
C95   C     C_R   0.727181 0.213896 0.389785 -0.084071
C96   C     C_R   0.553561 0.243707 0.385794 -0.151703
C97   C     C_R   0.566919 0.213856 0.347289 -0.186915
C98   C     C_R   0.659111 0.187583 0.329372 0.032514
C99   C     C_R   0.297827 0.589301 0.551603 0.544457
C100  C     C_R   0.632231 0.248045 0.406921 -0.036897
C101  C     C_R   0.691876 0.689867 0.919826 0.020782
C102  C     C_R   0.604160 0.191897 0.709125 0.026339
C103  C     C_R   0.766356 0.597593 0.903244 -0.130139
C104  C     C_R   0.754411 0.573139 0.865309 -0.125262
C105  C     C_R   0.667855 0.640469 0.843315 0.032590
C106  C     C_R   0.589044 0.727693 0.861069 -0.121155
C107  C     C_R   0.600785 0.751998 0.899028 -0.128922
C108  C     C_R   0.572389 0.652006 0.781761 -0.120460
C109  C     C_R   0.567343 0.651497 0.741746 -0.118517
C110  C     C_R   0.654736 0.625482 0.720413 0.027574
C111  C     C_R   0.740361 0.713442 0.102475 0.027273
C112  C     C_R   0.748042 0.596851 0.739720 -0.117197
C113  C     C_R   0.601948 0.106747 0.723322 -0.116837
C114  C     C_R   0.752993 0.598039 0.779760 -0.113849
C115  C     C_R   0.664863 0.626978 0.801188 0.029353
C116  C     C_R   0.719651 0.545412 0.656277 -0.123167
C117  C     C_R   0.704854 0.542070 0.616642 -0.128876
C118  C     C_R   0.550926 0.708151 0.619776 -0.127453
C119  C     C_R   0.565436 0.711086 0.659365 -0.123496
C120  C     C_R   0.647786 0.628148 0.678091 0.031424
C121  C     C_R   0.618085 0.621670 0.598233 0.021645
C122  C     C_R   0.063164 0.698659 0.901632 0.039149
C123  C     C_R   0.647783 0.727776 0.117688 0.012776
Cr1   Cr    Cr6+3 0.426010 0.422500 0.497000 1.012219
Cr2   Cr    Cr6+3 0.651300 0.426310 0.501970 1.013515
Cr3   Cr    Cr6+3 0.422670 0.651170 0.501050 1.011853
Cr4   Cr    Cr6+3 0.905130 0.911420 0.992650 1.002542
Cr5   Cr    Cr6+3 0.911860 0.682710 0.002320 1.009341
Cr6   Cr    Cr6+3 0.682710 0.906840 0.004710 1.008675
F1    F     F_    0.830138 0.161357 0.334800 -0.652888
H1    H     H_    0.500297 0.782155 0.405450 0.129000
H2    H     H_    0.067132 0.640755 0.279117 0.106224
H3    H     H_    0.899191 0.667756 0.115128 0.137909
H4    H     H_    0.056526 0.652684 0.209264 0.102088
H5    H     H_    0.195742 0.534300 0.323957 0.102100
H6    H     H_    0.248812 0.488758 0.390447 0.126855
H7    H     H_    0.100121 0.880609 0.159104 0.104909
H8    H     H_    0.241114 0.776887 0.409320 0.126636
H9    H     H_    0.877355 0.076240 0.097988 0.122035
H10   H     H_    0.569181 0.126302 0.086965 0.120072
H11   H     H_    0.503628 0.215675 0.330997 0.113958
H12   H     H_    0.891441 0.641787 0.183116 0.112073
H13   H     H_    0.520703 0.311801 0.275845 0.108885
H14   H     H_    0.536552 0.298563 0.206000 0.105646
H15   H     H_    0.829827 0.511852 0.353346 0.113619
H16   H     H_    0.849925 0.124753 0.165678 0.110170
H17   H     H_    0.813449 0.035326 0.288404 0.156934
H18   H     H_    0.830100 0.023299 0.218638 0.109781
H19   H     H_    0.789243 0.216226 0.405431 0.153560
H20   H     H_    0.542231 0.174750 0.154683 0.103722
H21   H     H_    0.479605 0.269299 0.398254 0.140529
H22   H     H_    0.837032 0.547581 0.918654 0.121429
H23   H     H_    0.777409 0.488768 0.416095 0.131519
H24   H     H_    0.541876 0.823535 0.910981 0.123214
H25   H     H_    0.510240 0.776675 0.675588 0.101590
H26   H     H_    0.757656 0.505493 0.290114 0.122990
H27   H     H_    0.494990 0.671615 0.727408 0.106563
H28   H     H_    0.503668 0.673270 0.797512 0.101745
H29   H     H_    0.815259 0.504168 0.852579 0.098635
H30   H     H_    0.816292 0.576772 0.723832 0.103826
H31   H     H_    0.824940 0.580282 0.793886 0.101681
H32   H     H_    0.783884 0.480658 0.670142 0.100051
H33   H     H_    0.757916 0.474299 0.600874 0.122010
H34   H     H_    0.159754 0.565356 0.089639 0.126531
H35   H     H_    0.521583 0.781352 0.844843 0.099307
H36   H     H_    0.483536 0.770902 0.606493 0.125052
H37   H     H_    0.772289 0.517499 0.220885 0.117645
H38   H     H_    0.013125 0.588268 0.889236 0.128742
H39   H     H_    0.118126 0.549673 0.647925 0.102783
H40   H     H_    0.218285 0.503570 0.708020 0.106121
H41   H     H_    0.200323 0.507538 0.777419 0.105037
H42   H     H_    0.166696 0.780936 0.834889 0.101591
H43   H     H_    0.066942 0.833892 0.706869 0.102964
H44   H     H_    0.049806 0.837586 0.776546 0.105862
H45   H     H_    0.055742 0.889540 0.090573 0.122791
H46   H     H_    0.210419 0.777539 0.663706 0.100561
H47   H     H_    0.275161 0.745045 0.598838 0.126474
H48   H     H_    0.055258 0.568522 0.821930 0.104264
H49   H     H_    0.185088 0.515158 0.583189 0.126693
H50   H     H_    0.567912 0.020565 0.899369 0.123962
H51   H     H_    0.769241 0.147843 0.903042 0.124668
H52   H     H_    0.743529 0.228307 0.676538 0.105550
H53   H     H_    0.596248 0.335810 0.724114 0.112918
H54   H     H_    0.589788 0.316523 0.793153 0.105958
H55   H     H_    0.515151 0.082022 0.833567 0.100919
H56   H     H_    0.184740 0.823902 0.342778 0.115234
H57   H     H_    0.606915 0.047280 0.703971 0.106929
H58   H     H_    0.604059 0.025624 0.773273 0.106939
H59   H     H_    0.491783 0.176345 0.649370 0.103980
H60   H     H_    0.674790 0.823194 0.303807 0.106464
H61   H     H_    0.494392 0.219818 0.582282 0.120673
H62   H     H_    0.718953 0.206529 0.837588 0.103803
H63   H     H_    0.747344 0.270824 0.609750 0.125603
H64   H     H_    0.688218 0.834578 0.234217 0.115486
H65   H     H_    0.552221 0.804001 0.342519 0.104373
H66   H     H_    0.526474 0.700752 0.096807 0.121018
H67   H     H_    0.268383 0.768443 0.282405 0.104230
H68   H     H_    0.493732 0.833820 0.097858 0.134450
H69   H     H_    0.572698 0.747221 0.060904 0.145478
H70   H     H_    0.185490 0.841432 0.895228 0.107357
H71   H     H_    0.063390 0.892799 0.917192 0.157000
H72   H     H_    0.175012 0.781645 0.937431 0.131351
H73   H     H_    0.546727 0.728723 0.206471 0.142461
H74   H     H_    0.481418 0.814622 0.167849 0.125115
H75   H     H_    0.521265 0.680068 0.162958 0.128070
H76   H     H_    0.253982 0.783776 0.212335 0.102887
H77   H     H_    0.202498 0.557627 0.157915 0.105803
O1    O     O_R   0.324990 0.503440 0.453910 -0.520995
O2    O     O_R   0.675430 0.831160 0.051290 -0.512133
O3    O     O_R   0.698870 0.998880 0.039560 -0.498400
O4    O     O_R   0.522030 0.339050 0.458320 -0.499194
O5    O     O_R   0.811290 0.006780 0.950620 -0.518914
O6    O     O_R   0.980960 0.812920 0.953200 -0.499203
O7    O     O_R   0.001480 0.656720 0.955830 -0.522000
O8    O     O_R   0.809240 0.683250 0.968050 -0.502169
O9    O     O_R   0.652500 0.818540 0.967340 -0.524289
O10   O     O_R   0.677620 0.987170 0.961730 -0.501945
O11   O     O_3   0.833240 0.833660 0.999890 -0.234268
O12   O     O_R   0.639980 0.519500 0.542640 -0.503080
O13   O     O_R   0.676180 0.324490 0.458320 -0.518484
O14   O     O_R   0.643570 0.521510 0.464260 -0.501227
O15   O     O_R   0.504630 0.675350 0.460920 -0.518890
O16   O     O_R   0.339850 0.642450 0.459830 -0.501043
O17   O     O_R   0.321120 0.501280 0.538470 -0.517987
O18   O     O_R   0.518440 0.337050 0.536710 -0.500010
O19   O     O_R   0.672300 0.322330 0.542880 -0.520195
O20   O     O_R   0.500750 0.673190 0.545480 -0.520998
O21   O     O_R   0.336260 0.640450 0.538210 -0.503774
O22   O     O_3   0.499990 0.499990 0.500010 -0.235794
O23   O     O_R   0.834210 0.019400 0.034570 -0.522606
O24   O     O_R   0.002210 0.824620 0.031030 -0.504124
O25   O     O_R   0.024400 0.669340 0.039790 -0.520202
O26   O     O_R   0.830490 0.694950 0.045870 -0.502718

loop_
_geom_bond_atom_site_label_1
_geom_bond_atom_site_label_2
_ccdc_geom_bond_type
C101  C107  A    
C7    H38   S    
C53   H23   S    
C91   H53   S    
C92   H18   S    
C18   C21   A    
C19   C20   A    
C67   C77   S    
C84   H20   S    
C43   C44   A    
C42   O10   A    
C26   H66   S    
C41   H3    S    
C114  C115  A    
C86   H14   S    
C38   O23   A    
C22   C42   S    
C53   C54   A    
C108  C109  A    
Cr2   O14   S    
C74   H8    S    
C29   C36   A    
C94   F1    S    
C39   C122  S    
C74   C76   A    
C57   C64   A    
C83   C84   A    
C108  C115  A    
C32   H52   S    
C51   C56   S    
Cr2   O22   S    
C14   C36   A    
C5    C6    A    
C21   C99   S    
C2    C113  A    
C86   C88   A    
C57   C59   A    
C1    O4    A    
C106  C107  A    
C94   C98   A    
C51   O15   A    
C27   H72   S    
C11   C12   A    
C97   C98   A    
Cr3   O15   S    
C116  C117  A    
C35   O25   A    
C68   H2    S    
C2    C13   A    
C117  C121  A    
C118  C119  A    
C62   C64   A    
C59   H34   S    
C40   C101  S    
C99   O17   A    
C12   H44   S    
Cr3   O21   S    
Cr1   O17   S    
C10   C20   S    
C8    C9    A    
C50   C52   A    
C73   C78   A    
C73   H6    S    
C70   C71   A    
C95   H19   S    
C87   O12   A    
C38   O3    A    
C112  H30   S    
C9    C10   A    
C25   C47   A    
C22   C69   A    
C74   C78   A    
Cr1   O22   S    
C3    C122  A    
C34   C75   S    
C48   H64   S    
C61   C71   S    
C23   C25   A    
C66   C67   A    
C13   C80   A    
C109  H27   S    
C59   C60   A    
Cr5   O25   S    
C27   H71   S    
C66   H67   S    
C6    H48   S    
C28   H75   S    
C52   H1    S    
C9    H40   S    
C61   C62   A    
Cr6   O10   S    
C76   H56   S    
C46   H60   S    
C1    C100  S    
C112  C114  A    
C104  C105  A    
C82   H16   S    
C24   C33   A    
C81   C82   A    
C2    H58   S    
C46   C48   A    
C11   H43   S    
C90   H17   S    
C37   C111  S    
C39   O6    A    
C111  C123  A    
C67   C68   A    
C44   H26   S    
C106  H35   S    
Cr1   O18   S    
C75   O18   A    
Cr3   O22   S    
C84   C85   A    
C110  C120  S    
C87   C121  S    
C30   C34   A    
C95   C100  A    
C18   C19   A    
C72   H5    S    
Cr4   O6    S    
C65   H76   S    
C45   C46   A    
C96   H21   S    
C118  H36   S    
Cr4   O23   S    
C117  H33   S    
C3    C4    A    
C33   C102  S    
C60   C61   A    
Cr3   O20   S    
C28   H74   S    
C17   C21   A    
C88   H13   S    
C72   C77   A    
C86   C93   A    
C63   O16   A    
C50   H65   S    
C90   C92   A    
C31   C32   A    
C12   C15   A    
C16   C20   A    
C97   H11   S    
C96   C97   A    
C40   O9    A    
Cr4   O24   S    
C31   C34   A    
C60   H77   S    
C7    C122  A    
C30   H61   S    
C76   C77   A    
C64   H45   S    
C26   H69   S    
C85   H10   S    
C37   O2    A    
C23   H50   S    
C24   H59   S    
C25   H55   S    
C103  H22   S    
C54   H15   S    
Cr2   O12   S    
C68   C70   A    
C48   C49   A    
Cr6   O11   S    
C18   H49   S    
C82   C83   A    
C8    C15   A    
C87   O20   A    
C63   O1    A    
C41   C111  A    
C24   C30   A    
C26   C123  S    
C91   C102  A    
Cr6   O2    S    
Cr2   O19   S    
Cr5   O11   S    
C79   C85   A    
C42   O5    A    
C44   C45   A    
C113  H57   S    
C13   C47   S    
C53   C56   A    
C17   H47   S    
Cr5   O26   S    
C81   H9    S    
C54   C55   A    
C119  H25   S    
C14   C123  A    
C4    H42   S    
C39   O7    A    
C29   C41   A    
Cr3   O16   S    
C28   H73   S    
C31   H63   S    
C105  C115  S    
C75   O19   A    
C43   C49   A    
C27   H70   S    
C99   O21   A    
C72   C73   A    
C114  H31   S    
Cr6   O9    S    
C119  C120  A    
C8    H41   S    
C58   C69   A    
C37   O26   A    
C6    C7    A    
Cr1   O4    S    
C43   H37   S    
C105  C106  A    
C79   C81   A    
C50   C55   A    
Cr6   O3    S    
C89   C98   S    
C35   C57   S    
C32   C33   A    
C80   C91   A    
C3    C27   S    
C116  H32   S    
C102  C113  A    
C65   C71   A    
C109  C110  A    
C47   C58   A    
C58   H62   S    
C19   H39   S    
C16   C17   A    
C51   O14   A    
C29   H12   S    
C96   C100  A    
C40   O8    A    
C92   C93   A    
C1    O13   A    
C35   O24   A    
C80   H54   S    
C62   H7    S    
C94   C95   A    
C26   H68   S    
C110  C112  A    
C5    C15   S    
C107  H24   S    
C10   C11   A    
Cr5   O8    S    
Cr2   O13   S    
C116  C120  A    
Cr4   O5    S    
C4    C5    A    
C108  H28   S    
C88   C89   A    
C45   C55   S    
C101  C103  A    
C65   C66   A    
C38   C79   S    
Cr5   O7    S    
C103  C104  A    
C70   H4    S    
C22   C23   A    
C16   H46   S    
C104  H29   S    
C14   C28   S    
C89   C90   A    
C118  C121  A    
Cr1   O1    S    
C36   C49   S    
C52   C56   A    
Cr4   O11   S    
C69   H51   S    
C63   C78   S    
C83   C93   S    
