data_mof_unit_27517.cif
_audit_creation_date              2012-10-26T19:18:46-0400
_audit_creation_method            fapswitch 2.2
_symmetry_space_group_name_H-M    P1
_symmetry_Int_Tables_number       1
_space_group_crystal_system       triclinic
_cell_length_a                    9.696351
_cell_length_b                    10.9357
_cell_length_c                    15.553539
_cell_angle_alpha                 89.800603
_cell_angle_beta                  73.859065
_cell_angle_gamma                 90.033796
_cell_volume                      1584.21758985

loop_
_atom_site_label
_atom_site_type_symbol
_atom_type_description
_atom_site_fract_x
_atom_site_fract_y
_atom_site_fract_z
_atom_type_partial_charge
C1    C     C_R   0.999437 0.265376 0.501326 0.558327
C2    C     C_R   0.232843 0.434658 0.047226 0.049466
C3    C     C_R   0.328873 0.479803 0.093957 -0.011302
C4    C     C_R   0.916897 0.500708 0.672089 0.547643
C5    C     C_R   0.087364 0.415393 0.092842 -0.091772
C6    C     C_R   0.036284 0.439414 0.183958 -0.118235
C7    C     C_R   0.272243 0.509405 0.184900 -0.133245
C8    C     C_2   0.885263 0.932957 0.503700 -0.164478
C9    C     C_2   0.004613 0.866695 0.494852 -0.118961
C10   C     C_2   0.886698 0.066944 0.499916 -0.155281
C11   C     C_2   0.999603 0.133419 0.506170 -0.118185
C12   C     C_R   0.673672 0.494742 0.908607 -0.013856
C13   C     C_2   0.407501 0.411720 0.533488 -0.033487
C14   C     C_2   0.558686 0.420501 0.546130 0.378262
C15   C     C_R   0.000547 0.734656 0.499015 0.552693
C16   C     C_R   0.083024 0.498308 0.328051 0.540767
C17   C     C_R   0.870861 0.504801 0.770379 -0.013544
C18   C     C_R   0.129076 0.485487 0.230448 -0.011580
C19   C     C_R   0.918548 0.544515 0.912044 -0.093176
C20   C     C_R   0.967583 0.531975 0.819537 -0.125855
C21   C     C_R   0.725932 0.486046 0.814891 -0.136339
C22   C     C_3   0.807769 0.698737 0.118821 -0.138544
C23   C     C_R   0.772296 0.527784 0.957145 0.053886
C24   C     C_3   0.493806 0.285348 0.668074 -0.159143
C25   C     C_3   0.203926 0.239312 0.899746 -0.144262
C26   C     C_R   0.526225 0.473866 0.954820 -0.026445
C27   C     C_R   0.477612 0.494176 0.048605 -0.027188
C28   C     C_R   0.579641 0.525312 0.094573 -0.112840
C29   C     C_R   0.723699 0.544682 0.049820 0.259360
C30   C     C_R   0.426550 0.430550 0.910612 -0.111333
C31   C     C_R   0.283541 0.407817 0.956006 0.258336
Cu1   Cu    Cu3+1 0.138640 0.500020 0.499980 0.928591
Cu2   Cu    Cu3+1 0.861360 0.499980 0.500020 0.995158
H1    H     H_    0.012977 0.379324 0.058650 0.177813
H2    H     H_    0.080305 0.546929 0.786366 0.152114
H3    H     H_    0.552877 0.532223 0.166323 0.119423
H4    H     H_    0.455770 0.409341 0.840645 0.109242
H5    H     H_    0.700455 0.721428 0.164381 0.113764
H6    H     H_    0.830309 0.755704 0.056959 0.112643
H7    H     H_    0.889248 0.722165 0.154019 0.147556
H8    H     H_    0.095027 0.092497 0.516887 0.095480
H9    H     H_    0.445789 0.207928 0.640339 0.102423
H10   H     H_    0.410636 0.353217 0.701275 0.119932
H11   H     H_    0.539539 0.246905 0.720266 0.133188
H12   H     H_    0.782204 0.888106 0.512618 0.147826
H13   H     H_    0.336847 0.551955 0.222534 0.120526
H14   H     H_    0.175277 0.193178 0.966308 0.115280
H15   H     H_    0.313810 0.212319 0.860232 0.102185
H16   H     H_    0.127843 0.206715 0.863126 0.144855
H17   H     H_    0.655537 0.467921 0.773994 0.143766
H18   H     H_    0.109813 0.907828 0.482540 0.099196
H19   H     H_    0.790258 0.111570 0.492971 0.166707
H20   H     H_    0.345328 0.329436 0.555175 0.140368
H21   H     H_    0.400292 0.580449 0.486539 0.197320
H22   H     H_    0.625070 0.551884 0.453761 0.159772
H23   H     H_    0.925111 0.419567 0.218294 0.157014
H24   H     H_    0.995491 0.568909 0.947983 0.177322
N1    N     N_2   0.346430 0.498660 0.500980 -0.374656
N2    N     N_2   0.652550 0.498630 0.501000 -0.318346
O1    O     O_R   0.117050 0.321960 0.499980 -0.508212
O2    O     O_3   0.606318 0.339017 0.600927 -0.518999
O3    O     O_3   0.190902 0.367325 0.908684 -0.594505
O4    O     O_R   0.882890 0.321920 0.500020 -0.442777
O5    O     O_R   0.052910 0.500040 0.629810 -0.499179
O6    O     O_R   0.818750 0.499990 0.629840 -0.458809
O7    O     O_R   0.117110 0.678080 0.499980 -0.503425
O8    O     O_R   0.882950 0.678040 0.500020 -0.502189
O9    O     O_R   0.181250 0.500010 0.370160 -0.494888
O10   O     O_R   0.947090 0.499960 0.370190 -0.506474
O11   O     O_3   0.819058 0.573013 0.098414 -0.596696

loop_
_geom_bond_atom_site_label_1
_geom_bond_atom_site_label_2
_ccdc_geom_bond_type
C8    C9    D    
Cu1   O5    S    
C19   C23   A    
C23   C29   A    
C5    H1    S    
C11   H8    S    
C24   O2    S    
C16   O9    A    
H22   N2    S    
C24   H9    S    
C25   H14   S    
C3    C7    A    
C19   C20   A    
C9    H18   S    
Cu1   N1    S    
Cu1   O9    S    
C7    C18   A    
C10   H19   S    
Cu1   Cu2   S    
C3    C27   A    
C2    C3    A    
C9    C15   S    
Cu2   O6    S    
Cu2   N2    S    
C16   C18   S    
C13   C14   S    
C19   H24   S    
C14   N2    D    
C14   O2    S    
C12   C23   A    
Cu2   O8    S    
C26   C27   A    
C4    O6    A    
C24   H11   S    
C4    C17   S    
C1    O4    A    
C8    C10   S    
C28   C29   A    
C26   C30   A    
C13   H20   S    
C25   O3    S    
C30   C31   A    
C6    C18   A    
C25   H16   S    
Cu2   O4    S    
C1    O1    A    
C2    C5    A    
C10   C11   D    
Cu1   O1    S    
C22   H5    S    
C7    H13   S    
C15   O8    A    
C27   C28   A    
C17   C20   A    
C15   O7    A    
C28   H3    S    
Cu1   O7    S    
C29   O11   S    
H21   N1    S    
C31   O3    S    
C6    H23   S    
Cu2   O10   S    
C5    C6    A    
C24   H10   S    
C4    O5    A    
C22   H7    S    
C21   H17   S    
C13   N1    D    
C22   H6    S    
C8    H12   S    
C20   H2    S    
C25   H15   S    
C12   C21   A    
C22   O11   S    
C17   C21   A    
C16   O10   A    
C30   H4    S    
C12   C26   A    
C2    C31   A    
C1    C11   S    
