data_mof_unit_60204.cif
_audit_creation_date              2012-12-10T20:25:25-0500
_audit_creation_method            fapswitch 2.2
_symmetry_space_group_name_H-M    P1
_symmetry_Int_Tables_number       1
_space_group_crystal_system       triclinic
_cell_length_a                    25.679297
_cell_length_b                    25.679275
_cell_length_c                    51.32823
_cell_angle_alpha                 89.995954
_cell_angle_beta                  89.995999
_cell_angle_gamma                 90.001281
_cell_volume                      33847.1553348

loop_
_atom_site_label
_atom_site_type_symbol
_atom_type_description
_atom_site_fract_x
_atom_site_fract_y
_atom_site_fract_z
_atom_type_partial_charge
C1    C     C_R   0.999989 0.499996 0.820730 0.499891
C2    C     C_R   0.589163 0.965571 0.013718 0.142242
C3    C     C_R   0.760914 0.277775 0.772998 0.238568
C4    C     C_R   0.723876 0.762572 0.226727 0.239919
C5    C     C_R   0.275776 0.237080 0.773322 0.239870
C6    C     C_R   0.760702 0.278003 0.227044 0.238737
C7    C     C_R   0.238856 0.722439 0.773037 0.238765
C8    C     C_R   0.777994 0.260695 0.272957 0.238699
C9    C     C_R   0.222449 0.738863 0.726962 0.238550
C10   C     C_R   0.737428 0.776123 0.273272 0.239920
C11   C     C_R   0.262920 0.224225 0.726678 0.239864
C12   C     C_R   0.222077 0.739219 0.272971 0.238734
C13   C     C_R   0.961493 0.587493 0.986308 0.142888
C14   C     C_R   0.777785 0.260920 0.727002 0.238788
C15   C     C_R   0.259873 0.221177 0.272793 0.240302
C16   C     C_R   0.733280 0.771976 0.726303 0.239779
C17   C     C_R   0.771976 0.733280 0.726303 0.239772
C18   C     C_R   0.221177 0.259873 0.272793 0.240305
C19   C     C_R   0.739086 0.222225 0.727001 0.238569
C20   C     C_R   0.260774 0.777914 0.272971 0.238692
C21   C     C_R   0.224225 0.262920 0.726678 0.239869
C22   C     C_R   0.776123 0.737428 0.273272 0.239918
C23   C     C_R   0.261143 0.777561 0.726963 0.238766
C24   C     C_R   0.038591 0.412524 0.013694 0.142962
C25   C     C_R   0.739299 0.221997 0.272956 0.238739
C26   C     C_R   0.288670 0.788674 0.750001 -0.036743
C27   C     C_R   0.711329 0.211326 0.249999 -0.036745
C28   C     C_R   0.211328 0.288672 0.750000 -0.035126
C29   C     C_R   0.788672 0.711328 0.250000 -0.035108
C30   C     C_R   0.711326 0.211330 0.749999 -0.036734
C31   C     C_R   0.288674 0.788671 0.250001 -0.036744
C32   C     C_R   0.788672 0.711328 0.750000 -0.034937
C33   C     C_R   0.211328 0.288672 0.250000 -0.034474
C34   C     C_R   0.288672 0.211328 0.250000 -0.034475
C35   C     C_R   0.587493 0.961496 0.986308 0.142887
C36   C     C_R   0.711328 0.788672 0.750000 -0.034939
C37   C     C_R   0.211326 0.711329 0.249999 -0.036745
C38   C     C_R   0.788674 0.288670 0.750001 -0.036735
C39   C     C_R   0.711328 0.788672 0.250000 -0.035110
C40   C     C_R   0.288672 0.211328 0.750000 -0.035127
C41   C     C_R   0.788671 0.288674 0.250001 -0.036746
C42   C     C_R   0.211330 0.711326 0.749999 -0.036744
C43   C     C_1   0.328407 0.828412 0.750002 0.090897
C44   C     C_1   0.671593 0.171589 0.249998 0.090984
C45   C     C_1   0.171591 0.328409 0.750000 0.090594
C46   C     C_R   0.412524 0.038594 0.013694 0.142963
C47   C     C_1   0.828408 0.671591 0.250000 0.090640
C48   C     C_1   0.671588 0.171593 0.749998 0.090907
C49   C     C_1   0.328411 0.828407 0.250002 0.090984
C50   C     C_1   0.828409 0.671591 0.750000 0.090513
C51   C     C_1   0.171591 0.328409 0.250000 0.090898
C52   C     C_1   0.328409 0.171591 0.250000 0.090899
C53   C     C_1   0.671591 0.828409 0.750000 0.090514
C54   C     C_1   0.171588 0.671593 0.249998 0.090986
C55   C     C_1   0.828412 0.328407 0.750002 0.090908
C56   C     C_1   0.671591 0.828408 0.250000 0.090641
C57   C     C_R   0.034519 0.410854 0.986283 0.142257
C58   C     C_1   0.328409 0.171592 0.750000 0.090596
C59   C     C_1   0.828407 0.328411 0.250002 0.090986
C60   C     C_1   0.171593 0.671588 0.749998 0.090898
C61   C     C_1   0.138428 0.638424 0.749998 0.092231
C62   C     C_1   0.861572 0.361576 0.250002 0.092373
C63   C     C_1   0.361573 0.138427 0.750000 0.090044
C64   C     C_1   0.638427 0.861573 0.250000 0.090089
C65   C     C_1   0.861576 0.361572 0.750002 0.092237
C66   C     C_1   0.138424 0.638428 0.249998 0.092372
C67   C     C_1   0.638426 0.861574 0.750000 0.089721
C68   C     C_R   0.965569 0.589164 0.013718 0.142241
C69   C     C_1   0.361574 0.138426 0.250000 0.089917
C70   C     C_1   0.138426 0.361574 0.250000 0.089912
C71   C     C_1   0.861574 0.638426 0.750000 0.089716
C72   C     C_1   0.361576 0.861572 0.250002 0.092367
C73   C     C_1   0.638424 0.138428 0.749998 0.092232
C74   C     C_1   0.861573 0.638427 0.250000 0.090084
C75   C     C_1   0.138427 0.361573 0.750000 0.090039
C76   C     C_1   0.638428 0.138424 0.249998 0.092368
C77   C     C_1   0.361572 0.861576 0.750002 0.092226
C78   C     C_R   0.542546 0.981419 0.944839 0.476963
C79   C     C_R   0.910837 0.534430 0.486282 0.142241
C80   C     C_R   0.457465 0.018659 0.055163 0.476959
C81   C     C_R   0.016750 0.456754 0.944823 0.476820
C82   C     C_R   0.983332 0.543261 0.055178 0.476857
C83   C     C_R   0.456754 0.016753 0.944823 0.476826
C84   C     C_R   0.543261 0.983335 0.055178 0.476855
C85   C     C_R   0.981416 0.542546 0.944839 0.476969
C86   C     C_R   0.018656 0.457465 0.055163 0.476956
C87   C     C_R   0.042535 0.481341 0.444837 0.476959
C88   C     C_R   0.957454 0.518582 0.555161 0.476964
C89   C     C_R   0.516724 0.956761 0.444822 0.476861
C90   C     C_R   0.089145 0.465477 0.513717 0.142253
C91   C     C_R   0.483196 0.043224 0.555177 0.476824
C92   C     C_R   0.956739 0.516666 0.444822 0.476854
C93   C     C_R   0.043245 0.483247 0.555177 0.476824
C94   C     C_R   0.481291 0.042510 0.444838 0.476957
C95   C     C_R   0.518639 0.957479 0.555161 0.476971
C96   C     C_R   0.455143 0.016705 0.972372 0.039580
C97   C     C_R   0.544873 0.983386 0.027629 0.039590
C98   C     C_R   0.980186 0.543585 0.972386 0.039633
C99   C     C_R   0.019895 0.456430 0.027615 0.039693
C100  C     C_R   0.543585 0.980188 0.972386 0.039633
C101  C     C_R   0.461295 0.087424 0.486306 0.142957
C102  C     C_R   0.456430 0.019897 0.027615 0.039693
C103  C     C_R   0.016701 0.455143 0.972372 0.039581
C104  C     C_R   0.983383 0.544873 0.027629 0.039590
C105  C     C_R   0.955127 0.516615 0.472371 0.039590
C106  C     C_R   0.044856 0.483295 0.527628 0.039580
C107  C     C_R   0.480050 0.043543 0.472385 0.039695
C108  C     C_R   0.519872 0.956442 0.527614 0.039634
C109  C     C_R   0.043570 0.480102 0.472385 0.039693
C110  C     C_R   0.956415 0.519813 0.527614 0.039633
C111  C     C_R   0.516676 0.955149 0.472371 0.039596
C112  C     C_R   0.000012 0.500004 0.179271 0.499937
C113  C     C_R   0.538624 0.912560 0.513693 0.142884
C114  C     C_R   0.483241 0.044834 0.527628 0.039587
C115  C     C_R   0.499727 0.999346 0.986202 -0.094959
C116  C     C_R   0.500288 0.000743 0.013800 -0.094964
C117  C     C_R   0.999343 0.499727 0.986202 -0.094960
C118  C     C_R   0.000740 0.500289 0.013800 -0.094964
C119  C     C_R   0.999711 0.499258 0.486200 -0.094964
C120  C     C_R   0.000272 0.500654 0.513798 -0.094959
C121  C     C_R   0.499262 0.999710 0.486200 -0.094966
C122  C     C_R   0.500658 0.000274 0.513798 -0.094962
C123  C     C_3   0.329066 0.005130 0.968314 -0.229417
C124  C     C_R   0.087475 0.461405 0.486306 0.142963
C125  C     C_3   0.670949 0.994973 0.031686 -0.229425
C126  C     C_3   0.882850 0.624422 0.968305 -0.232418
C127  C     C_3   0.117234 0.375601 0.031700 -0.232711
C128  C     C_3   0.624422 0.882853 0.968305 -0.232422
C129  C     C_3   0.375602 0.117237 0.031700 -0.232710
C130  C     C_3   0.005126 0.329066 0.968314 -0.229436
C131  C     C_3   0.994971 0.670949 0.031686 -0.229413
C132  C     C_3   0.829051 0.505030 0.468314 -0.229421
C133  C     C_3   0.170934 0.494868 0.531686 -0.229414
C134  C     C_3   0.382602 0.124234 0.468299 -0.232705
C135  C     C_R   0.912508 0.538505 0.513692 0.142888
C136  C     C_3   0.617317 0.875743 0.531696 -0.232413
C137  C     C_3   0.124396 0.382762 0.468300 -0.232711
C138  C     C_3   0.875580 0.617149 0.531694 -0.232425
C139  C     C_3   0.505264 0.829057 0.468315 -0.229430
C140  C     C_3   0.494642 0.170928 0.531684 -0.229454
C141  C     C_3   0.008301 0.373206 0.655454 -0.220253
C142  C     C_3   0.991577 0.626773 0.344571 -0.219934
C143  C     C_3   0.627198 0.991704 0.655963 -0.222545
C144  C     C_3   0.372789 0.008426 0.344019 -0.220847
C145  C     C_3   0.991613 0.627195 0.655960 -0.222583
C146  C     C_R   0.534551 0.910884 0.486282 0.142241
C147  C     C_3   0.008521 0.372790 0.344020 -0.220827
C148  C     C_3   0.373205 0.008210 0.655455 -0.220303
C149  C     C_3   0.626776 0.991673 0.344568 -0.219925
C150  C     C_3   0.508424 0.873227 0.155429 -0.219934
C151  C     C_3   0.491697 0.126794 0.844546 -0.220252
C152  C     C_3   0.127210 0.491478 0.155979 -0.220839
C153  C     C_3   0.872804 0.508389 0.844040 -0.222538
C154  C     C_3   0.491477 0.127210 0.155980 -0.220825
C155  C     C_3   0.508389 0.872805 0.844040 -0.222582
C156  C     C_3   0.873227 0.508424 0.155430 -0.219918
C157  C     C_R   0.465364 0.089099 0.513717 0.142257
C158  C     C_3   0.126793 0.491696 0.844547 -0.220294
C159  C     C_R   0.983337 0.456286 0.609522 0.284279
C160  C     C_R   0.016616 0.543680 0.390484 0.284109
C161  C     C_R   0.544888 0.017006 0.609731 0.273431
C162  C     C_R   0.455048 0.983036 0.390261 0.273316
C163  C     C_R   0.016972 0.544899 0.609731 0.273436
C164  C     C_R   0.499996 0.999989 0.820730 0.499891
C165  C     C_R   0.983072 0.455032 0.390260 0.273311
C166  C     C_R   0.456302 0.983304 0.609522 0.284288
C167  C     C_R   0.543668 0.016650 0.390484 0.284108
C168  C     C_R   0.483385 0.956320 0.109516 0.284108
C169  C     C_R   0.516662 0.043714 0.890477 0.284279
C170  C     C_R   0.044966 0.516928 0.109740 0.273313
C171  C     C_R   0.955099 0.483029 0.890269 0.273429
C172  C     C_R   0.516927 0.044968 0.109740 0.273310
C173  C     C_R   0.483029 0.955101 0.890269 0.273436
C174  C     C_R   0.956319 0.483385 0.109516 0.284105
C175  C     C_R   0.500004 0.000013 0.179271 0.499936
C176  C     C_R   0.043712 0.516662 0.890478 0.284286
C177  C     C_R   0.983284 0.455691 0.636848 0.098623
C178  C     C_R   0.016670 0.544294 0.363159 0.098360
C179  C     C_R   0.545036 0.016869 0.637054 0.101977
C180  C     C_R   0.454917 0.983178 0.362938 0.101590
C181  C     C_R   0.016835 0.545048 0.637054 0.101993
C182  C     C_R   0.983213 0.454902 0.362937 0.101589
C183  C     C_R   0.455706 0.983250 0.636847 0.098633
C184  C     C_R   0.544282 0.016705 0.363159 0.098353
C185  C     C_R   0.483330 0.955706 0.136841 0.098360
C186  C     C_R   0.499987 0.999996 0.320729 0.499953
C187  C     C_R   0.516716 0.044309 0.863152 0.098622
C188  C     C_R   0.045097 0.516786 0.137063 0.101593
C189  C     C_R   0.954951 0.483166 0.862946 0.101979
C190  C     C_R   0.516786 0.045098 0.137063 0.101588
C191  C     C_R   0.483165 0.954952 0.862946 0.101993
C192  C     C_R   0.955705 0.483331 0.136841 0.098355
C193  C     C_R   0.044308 0.516716 0.863152 0.098636
C194  C     C_R   0.000028 0.500251 0.650702 -0.025948
C195  C     C_R   0.999972 0.499728 0.349297 -0.026205
C196  C     C_R   0.500251 0.000028 0.650701 -0.025954
C197  C     C_R   0.500011 0.000004 0.679270 0.499908
C198  C     C_R   0.499728 0.999972 0.349298 -0.026212
C199  C     C_R   0.500028 0.000272 0.150702 -0.026205
C200  C     C_R   0.499972 0.999749 0.849298 -0.025948
C201  C     C_R   0.000272 0.500028 0.150702 -0.026205
C202  C     C_R   0.999749 0.499972 0.849298 -0.025948
C203  C     C_R   0.000222 0.500705 0.596024 0.184753
C204  C     C_R   0.999773 0.499235 0.403975 0.184720
C205  C     C_R   0.500707 0.000223 0.596024 0.184754
C206  C     C_R   0.499238 0.999772 0.403975 0.184721
C207  C     C_R   0.500226 0.000765 0.096025 0.184720
C208  C     C_R   0.999996 0.499987 0.320729 0.499936
C209  C     C_R   0.499778 0.999295 0.903976 0.184753
C210  C     C_R   0.000763 0.500227 0.096025 0.184720
C211  C     C_R   0.999293 0.499778 0.903976 0.184753
C212  C     C_R   0.098995 0.401005 0.750000 0.510995
C213  C     C_R   0.901005 0.598995 0.250000 0.511074
C214  C     C_R   0.598994 0.098995 0.749999 0.511644
C215  C     C_R   0.401006 0.901005 0.250001 0.512014
C216  C     C_R   0.901006 0.598994 0.750000 0.509701
C217  C     C_R   0.098994 0.401006 0.250000 0.511047
C218  C     C_R   0.401005 0.901006 0.750001 0.511603
C219  C     C_R   0.000004 0.500011 0.679270 0.499891
C220  C     C_R   0.598995 0.098994 0.249999 0.512028
C221  C     C_R   0.098994 0.598995 0.249999 0.512018
C222  C     C_R   0.901006 0.401005 0.750001 0.511648
C223  C     C_R   0.598995 0.901005 0.250000 0.511080
C224  C     C_R   0.401005 0.098995 0.750000 0.511000
C225  C     C_R   0.901005 0.401006 0.250001 0.512033
C226  C     C_R   0.098995 0.598994 0.749999 0.511606
C227  C     C_R   0.401006 0.098994 0.250000 0.511052
C228  C     C_R   0.598994 0.901006 0.750000 0.509706
C229  C     C_R   0.277551 0.761137 0.773038 0.238549
C230  C     C_R   0.410854 0.034522 0.986283 0.142255
C231  C     C_R   0.722006 0.239305 0.227043 0.238698
C232  C     C_R   0.237080 0.275776 0.773322 0.239865
C233  C     C_R   0.762572 0.723876 0.226727 0.239922
C234  C     C_R   0.722215 0.239080 0.772997 0.238787
C235  C     C_R   0.277923 0.760781 0.227030 0.238732
C236  C     C_R   0.766720 0.728024 0.773697 0.239780
C237  C     C_R   0.240127 0.278823 0.227207 0.240304
C238  C     C_R   0.278823 0.240127 0.227207 0.240305
C239  C     C_R   0.728024 0.766720 0.773697 0.239773
C240  C     C_R   0.239225 0.722086 0.227029 0.238691
Cl1   Cl    Cl    0.224892 0.687836 0.801995 -0.432570
Cl2   Cl    Cl    0.787690 0.700440 0.803483 -0.453489
Cl3   Cl    Cl    0.312981 0.774291 0.198156 -0.432636
Cl4   Cl    Cl    0.687332 0.225396 0.801905 -0.432652
Cl5   Cl    Cl    0.778331 0.691080 0.197474 -0.450623
Cl6   Cl    Cl    0.220884 0.308134 0.802638 -0.450761
Cl7   Cl    Cl    0.686860 0.225903 0.198186 -0.433451
Cl8   Cl    Cl    0.312141 0.775095 0.801997 -0.434385
Cl9   Cl    Cl    0.725888 0.186840 0.301812 -0.432684
Cl10  Cl    Cl    0.275108 0.812164 0.698005 -0.432592
Cl11  Cl    Cl    0.808920 0.721669 0.302525 -0.450638
Cl12  Cl    Cl    0.774112 0.313160 0.198188 -0.432661
Cl13  Cl    Cl    0.191866 0.279116 0.697363 -0.450732
Cl14  Cl    Cl    0.274276 0.812961 0.301846 -0.433451
Cl15  Cl    Cl    0.725410 0.187354 0.698093 -0.434481
Cl16  Cl    Cl    0.184989 0.272240 0.301444 -0.455410
Cl17  Cl    Cl    0.799559 0.712309 0.696517 -0.453519
Cl18  Cl    Cl    0.712309 0.799559 0.696517 -0.453465
Cl19  Cl    Cl    0.272240 0.184989 0.301444 -0.455398
Cl20  Cl    Cl    0.812668 0.274604 0.698095 -0.432650
Cl21  Cl    Cl    0.187019 0.725709 0.301844 -0.432637
Cl22  Cl    Cl    0.279116 0.191866 0.697363 -0.450743
Cl23  Cl    Cl    0.308134 0.220884 0.802638 -0.450730
Cl24  Cl    Cl    0.721669 0.808920 0.302525 -0.450603
Cl25  Cl    Cl    0.187859 0.724905 0.698003 -0.434386
Cl26  Cl    Cl    0.813140 0.274096 0.301814 -0.433453
Cl27  Cl    Cl    0.961487 0.401333 0.592005 -0.456813
Cl28  Cl    Cl    0.038414 0.598642 0.408011 -0.457078
Cl29  Cl    Cl    0.600122 0.038976 0.592465 -0.496643
Cl30  Cl    Cl    0.399783 0.961115 0.407517 -0.496175
Cl31  Cl    Cl    0.038899 0.600150 0.592464 -0.496627
Cl32  Cl    Cl    0.961195 0.399749 0.407516 -0.496194
Cl33  Cl    Cl    0.401366 0.961411 0.592004 -0.456780
Cl34  Cl    Cl    0.691080 0.778331 0.197474 -0.450636
Cl35  Cl    Cl    0.598612 0.038493 0.408010 -0.457083
Cl36  Cl    Cl    0.461586 0.901358 0.091989 -0.457080
Cl37  Cl    Cl    0.538511 0.098668 0.907994 -0.456813
Cl38  Cl    Cl    0.100250 0.538804 0.092483 -0.496182
Cl39  Cl    Cl    0.899847 0.461103 0.907535 -0.496650
Cl40  Cl    Cl    0.538803 0.100252 0.092484 -0.496193
Cl41  Cl    Cl    0.461102 0.899850 0.907536 -0.496626
Cl42  Cl    Cl    0.901356 0.461587 0.091990 -0.457091
Cl43  Cl    Cl    0.098666 0.538511 0.907995 -0.456788
Cl44  Cl    Cl    0.774590 0.312646 0.801907 -0.434463
Cl45  Cl    Cl    0.225724 0.687039 0.198154 -0.433431
Cl46  Cl    Cl    0.700440 0.787690 0.803483 -0.453519
Cl47  Cl    Cl    0.315011 0.227760 0.198556 -0.455409
Cl48  Cl    Cl    0.227760 0.315012 0.198556 -0.455421
H1    H     H_    0.345879 0.081441 0.979129 0.259780
H2    H     H_    0.861382 0.624641 0.987090 0.137190
H3    H     H_    0.491866 0.837343 0.164205 0.183144
H4    H     H_    0.556617 0.083692 0.833934 0.281442
H5    H     H_    0.463265 0.109613 0.830667 0.142704
H6    H     H_    0.508289 0.162658 0.835764 0.182944
H7    H     H_    0.471336 0.137703 0.862851 0.216831
H8    H     H_    0.084090 0.556453 0.166492 0.280680
H9    H     H_    0.109734 0.463012 0.169752 0.142385
H10   H     H_    0.162964 0.507941 0.164927 0.183122
H11   H     H_    0.138375 0.471188 0.137694 0.213843
H12   H     H_    0.915977 0.443448 0.833528 0.280690
H13   H     H_    0.874516 0.587450 0.957857 0.204368
H14   H     H_    0.890245 0.536865 0.830261 0.142563
H15   H     H_    0.861631 0.528676 0.862325 0.213784
H16   H     H_    0.837059 0.491888 0.835099 0.181087
H17   H     H_    0.556453 0.084090 0.166492 0.280671
H18   H     H_    0.463012 0.109735 0.169753 0.142386
H19   H     H_    0.471188 0.138376 0.137694 0.213845
H20   H     H_    0.507941 0.162965 0.164928 0.183146
H21   H     H_    0.443448 0.915978 0.833528 0.280713
H22   H     H_    0.536865 0.890245 0.830262 0.142558
H23   H     H_    0.491888 0.837060 0.835100 0.181014
H24   H     H_    0.868730 0.657256 0.956135 0.177639
H25   H     H_    0.528675 0.861633 0.862326 0.213780
H26   H     H_    0.916268 0.443475 0.166057 0.281196
H27   H     H_    0.890421 0.536848 0.169309 0.142749
H28   H     H_    0.837343 0.491865 0.164206 0.183168
H29   H     H_    0.862348 0.528787 0.137121 0.216905
H30   H     H_    0.083692 0.556616 0.833934 0.281463
H31   H     H_    0.109612 0.463264 0.830668 0.142700
H32   H     H_    0.137701 0.471335 0.862852 0.216827
H33   H     H_    0.162657 0.508288 0.835765 0.182873
H34   H     H_    0.051517 0.333404 0.020813 0.260171
H35   H     H_    0.138706 0.375387 0.012916 0.137309
H36   H     H_    0.131355 0.342767 0.043870 0.176974
H37   H     H_    0.125560 0.412573 0.042150 0.204537
H38   H     H_    0.666613 0.948577 0.979187 0.260389
H39   H     H_    0.624641 0.861384 0.987090 0.137191
H40   H     H_    0.657256 0.868732 0.956135 0.177633
H41   H     H_    0.313690 0.990213 0.987112 0.137539
H42   H     H_    0.587450 0.874519 0.957857 0.204367
H43   H     H_    0.333404 0.051521 0.020813 0.260173
H44   H     H_    0.375389 0.138710 0.012916 0.137310
H45   H     H_    0.412574 0.125564 0.042151 0.204537
H46   H     H_    0.342768 0.131359 0.043870 0.176977
H47   H     H_    0.081437 0.345878 0.979129 0.259780
H48   H     H_    0.990208 0.313690 0.987112 0.137534
H49   H     H_    0.018381 0.295897 0.956129 0.178470
H50   H     H_    0.973002 0.349249 0.957901 0.206806
H51   H     H_    0.918657 0.654145 0.020873 0.259821
H52   H     H_    0.349248 0.973006 0.957901 0.206816
H53   H     H_    0.009889 0.686323 0.012888 0.137702
H54   H     H_    0.027093 0.650764 0.042099 0.206755
H55   H     H_    0.981720 0.704120 0.043871 0.178436
H56   H     H_    0.845857 0.581343 0.479127 0.259819
H57   H     H_    0.813677 0.490112 0.487112 0.137697
H58   H     H_    0.849236 0.472907 0.457901 0.206752
H59   H     H_    0.795880 0.518281 0.456129 0.178432
H60   H     H_    0.154120 0.418558 0.520871 0.259779
H61   H     H_    0.186310 0.509786 0.512888 0.137543
H62   H     H_    0.204103 0.481613 0.543871 0.178485
H63   H     H_    0.295897 0.018385 0.956129 0.178484
H64   H     H_    0.150752 0.526993 0.542099 0.206817
H65   H     H_    0.448257 0.166524 0.479187 0.260170
H66   H     H_    0.361129 0.124417 0.487082 0.137320
H67   H     H_    0.374329 0.087252 0.457848 0.204556
H68   H     H_    0.368435 0.157048 0.456129 0.176980
H69   H     H_    0.551655 0.833459 0.520813 0.260394
H70   H     H_    0.638786 0.875555 0.512911 0.137201
H71   H     H_    0.631482 0.842929 0.543866 0.177643
H72   H     H_    0.625597 0.912725 0.542145 0.204387
H73   H     H_    0.166595 0.448478 0.479187 0.260175
H74   H     H_    0.654144 0.918660 0.020873 0.259820
H75   H     H_    0.124610 0.361289 0.487083 0.137306
H76   H     H_    0.157230 0.368640 0.456130 0.176977
H77   H     H_    0.087425 0.374436 0.457849 0.204536
H78   H     H_    0.833388 0.551426 0.520813 0.260391
H79   H     H_    0.875361 0.638618 0.512910 0.137188
H80   H     H_    0.912551 0.625482 0.542143 0.204366
H81   H     H_    0.842746 0.631270 0.543865 0.177633
H82   H     H_    0.581553 0.845971 0.479127 0.259828
H83   H     H_    0.490370 0.813663 0.487114 0.137697
H84   H     H_    0.518561 0.795906 0.456130 0.178436
H85   H     H_    0.686323 0.009891 0.012888 0.137694
H86   H     H_    0.473113 0.849197 0.457902 0.206741
H87   H     H_    0.418356 0.154008 0.520872 0.259786
H88   H     H_    0.509537 0.186324 0.512886 0.137529
H89   H     H_    0.526795 0.150791 0.542097 0.206790
H90   H     H_    0.481342 0.204078 0.543870 0.178470
H91   H     H_    0.943382 0.416308 0.666066 0.281443
H92   H     H_    0.036734 0.390387 0.669333 0.142704
H93   H     H_    0.028663 0.362297 0.637149 0.216830
H94   H     H_    0.991709 0.337342 0.664236 0.182943
H95   H     H_    0.056526 0.583731 0.333944 0.281205
H96   H     H_    0.704120 0.981722 0.043871 0.178430
H97   H     H_    0.963153 0.609579 0.330692 0.142747
H98   H     H_    0.008136 0.662657 0.335794 0.183143
H99   H     H_    0.971214 0.637652 0.362880 0.216902
H100  H     H_    0.583983 0.056621 0.666469 0.280727
H101  H     H_    0.609775 0.963221 0.669743 0.142529
H102  H     H_    0.662931 0.008230 0.664903 0.181097
H103  H     H_    0.638384 0.971420 0.637679 0.213776
H104  H     H_    0.415951 0.943476 0.333511 0.280716
H105  H     H_    0.390245 0.036900 0.330244 0.142353
H106  H     H_    0.361610 0.028713 0.362304 0.213836
H107  H     H_    0.650764 0.027095 0.042099 0.206751
H108  H     H_    0.337045 0.991937 0.335072 0.183129
H109  H     H_    0.056553 0.584022 0.666472 0.280714
H110  H     H_    0.963136 0.609755 0.669738 0.142558
H111  H     H_    0.971326 0.638368 0.637674 0.213780
H112  H     H_    0.008114 0.662940 0.664900 0.181013
H113  H     H_    0.943546 0.415910 0.333508 0.280672
H114  H     H_    0.036987 0.390265 0.330247 0.142386
H115  H     H_    0.992057 0.337035 0.335072 0.183145
H116  H     H_    0.028811 0.361624 0.362306 0.213844
H117  H     H_    0.416348 0.943314 0.666062 0.281500
H118  H     H_    0.948574 0.666613 0.979187 0.260394
H119  H     H_    0.390367 0.036650 0.669335 0.142667
H120  H     H_    0.337352 0.991592 0.664235 0.182882
H121  H     H_    0.362284 0.028568 0.637151 0.216821
H122  H     H_    0.583691 0.056596 0.333946 0.281233
H123  H     H_    0.609600 0.963241 0.330687 0.142715
H124  H     H_    0.637669 0.971312 0.362876 0.216898
H125  H     H_    0.662648 0.008258 0.335792 0.183177
H126  H     H_    0.443475 0.916268 0.166056 0.281204
H127  H     H_    0.536848 0.890421 0.169308 0.142748
H128  H     H_    0.528787 0.862349 0.137120 0.216903
N1    N     N_R   0.499631 0.999011 0.931965 -0.368029
N2    N     N_2   0.635680 0.951882 0.027288 -0.462995
N3    N     N_2   0.938234 0.630057 0.972749 -0.461702
N4    N     N_2   0.061852 0.369961 0.027253 -0.461951
N5    N     N_2   0.630056 0.938236 0.972749 -0.461707
N6    N     N_2   0.369961 0.061855 0.027253 -0.461948
N7    N     N_2   0.048214 0.364339 0.972713 -0.462987
N8    N     N_2   0.951879 0.635680 0.027288 -0.462998
N9    N     N_2   0.864321 0.548120 0.472712 -0.462997
N10   N     N_2   0.135660 0.451781 0.527286 -0.462994
N11   N     N_2   0.437975 0.129953 0.472747 -0.461966
N12   N     N_R   0.500380 0.001066 0.068036 -0.367966
N13   N     N_2   0.561942 0.870030 0.527252 -0.461718
N14   N     N_2   0.130038 0.438144 0.472747 -0.461945
N15   N     N_2   0.869944 0.561766 0.527251 -0.461705
N16   N     N_2   0.548305 0.864387 0.472712 -0.462998
N17   N     N_2   0.451605 0.135594 0.527286 -0.462987
N18   N     N_2   0.966848 0.409802 0.650112 -0.453223
N19   N     N_2   0.033063 0.590207 0.349902 -0.453427
N20   N     N_2   0.590718 0.033208 0.650522 -0.451408
N21   N     N_2   0.409227 0.966887 0.349461 -0.451765
N22   N     N_2   0.033141 0.590741 0.650522 -0.451383
N23   N     N_R   0.999008 0.499631 0.931965 -0.368030
N24   N     N_2   0.966956 0.409201 0.349459 -0.451778
N25   N     N_2   0.409828 0.966782 0.650111 -0.453194
N26   N     N_2   0.590183 0.033132 0.349902 -0.453435
N27   N     N_2   0.466938 0.909792 0.150098 -0.453426
N28   N     N_2   0.533151 0.090199 0.849888 -0.453223
N29   N     N_2   0.090798 0.533043 0.150540 -0.451769
N30   N     N_2   0.909257 0.466860 0.849477 -0.451410
N31   N     N_2   0.533043 0.090799 0.150541 -0.451779
N32   N     N_2   0.466859 0.909258 0.849478 -0.451383
N33   N     N_2   0.909792 0.466938 0.150099 -0.453438
N34   N     N_R   0.001064 0.500380 0.068036 -0.367966
N35   N     N_2   0.090198 0.533150 0.849888 -0.453196
N36   N     N_R   0.999620 0.498934 0.431964 -0.367967
N37   N     N_R   0.000369 0.500989 0.568035 -0.368030
N38   N     N_R   0.498938 0.999618 0.431964 -0.367965
N39   N     N_R   0.500992 0.000370 0.568035 -0.368029
N40   N     N_2   0.364340 0.048217 0.972713 -0.462991
O1    O     O_3   0.000000 0.500000 0.750000 -0.460556
O2    O     O_R   0.000000 0.542800 0.191710 -0.535578
O3    O     O_R   0.542800 1.000000 0.808290 -0.534856
O4    O     O_R   0.457200 0.000000 0.191710 -0.535513
O5    O     O_R   0.500000 0.042800 0.308290 -0.535531
O6    O     O_R   0.500000 0.957200 0.691710 -0.534842
O7    O     O_R   0.957200 0.500000 0.308290 -0.535586
O8    O     O_R   0.042800 0.500000 0.691710 -0.535722
O9    O     O_R   0.500000 0.957200 0.308290 -0.535588
O10   O     O_R   0.500000 0.042800 0.691710 -0.535756
O11   O     O_R   0.042800 0.500000 0.308290 -0.535512
O12   O     O_3   0.000000 0.500000 0.250000 -0.460205
O13   O     O_R   0.957200 0.500000 0.691710 -0.534856
O14   O     O_R   0.060260 0.397270 0.765470 -0.524456
O15   O     O_R   0.939740 0.602730 0.234530 -0.524534
O16   O     O_R   0.602730 0.060260 0.765470 -0.526148
O17   O     O_R   0.397270 0.939740 0.234530 -0.526285
O18   O     O_R   0.939740 0.602730 0.765470 -0.524051
O19   O     O_R   0.060260 0.397270 0.234530 -0.525029
O20   O     O_R   0.397270 0.939740 0.765470 -0.526706
O21   O     O_R   0.602730 0.060260 0.234530 -0.526679
O22   O     O_R   0.060260 0.602730 0.234530 -0.526671
O23   O     O_3   0.500000 0.000000 0.750000 -0.460554
O24   O     O_R   0.939740 0.397270 0.765470 -0.526734
O25   O     O_R   0.602730 0.939740 0.234530 -0.524537
O26   O     O_R   0.397270 0.060260 0.765470 -0.524454
O27   O     O_R   0.939740 0.397270 0.234530 -0.526296
O28   O     O_R   0.060260 0.602730 0.765470 -0.526123
O29   O     O_R   0.397270 0.060260 0.234530 -0.525030
O30   O     O_R   0.602730 0.939740 0.765470 -0.524057
O31   O     O_R   0.560260 0.897270 0.265470 -0.524524
O32   O     O_R   0.439740 0.102730 0.734530 -0.524446
O33   O     O_R   0.102730 0.560260 0.265470 -0.526286
O34   O     O_3   0.500000 0.000000 0.250000 -0.460204
O35   O     O_R   0.897270 0.439740 0.734530 -0.526149
O36   O     O_R   0.439740 0.102730 0.265470 -0.525017
O37   O     O_R   0.560260 0.897270 0.734530 -0.524040
O38   O     O_R   0.897270 0.439740 0.265470 -0.526680
O39   O     O_R   0.102730 0.560260 0.734530 -0.526707
O40   O     O_R   0.560260 0.102730 0.734530 -0.526743
O41   O     O_R   0.439740 0.897270 0.265470 -0.526680
O42   O     O_R   0.102730 0.439740 0.734530 -0.524451
O43   O     O_R   0.897270 0.560260 0.265470 -0.524534
O44   O     O_R   0.439740 0.897270 0.734530 -0.526133
O45   O     O_R   1.000000 0.542800 0.808290 -0.534833
O46   O     O_R   0.560260 0.102730 0.265470 -0.526305
O47   O     O_R   0.897270 0.560260 0.734530 -0.524053
O48   O     O_R   0.102730 0.439740 0.265470 -0.525026
O49   O     O_2   0.584254 0.966272 0.930768 -0.417385
O50   O     O_2   0.415753 0.033795 0.069233 -0.418180
O51   O     O_2   0.035257 0.416454 0.930734 -0.419014
O52   O     O_2   0.964830 0.583564 0.069268 -0.419023
O53   O     O_2   0.416454 0.035261 0.930734 -0.418998
O54   O     O_2   0.583564 0.964832 0.069268 -0.419029
O55   O     O_2   0.966269 0.584255 0.930768 -0.417365
O56   O     O_R   0.000000 0.457200 0.191710 -0.535521
O57   O     O_2   0.033793 0.415753 0.069233 -0.418188
O58   O     O_2   0.084247 0.466204 0.430767 -0.418178
O59   O     O_2   0.915746 0.533729 0.569232 -0.417384
O60   O     O_2   0.535276 0.916481 0.430732 -0.419029
O61   O     O_2   0.464639 0.083501 0.569266 -0.419021
O62   O     O_2   0.916436 0.535169 0.430732 -0.419029
O63   O     O_2   0.083545 0.464739 0.569266 -0.418998
O64   O     O_2   0.466103 0.084203 0.430767 -0.418193
O65   O     O_2   0.533837 0.915790 0.569232 -0.417370
O66   O     O_R   0.457200 1.000000 0.808290 -0.535722
O67   O     O_R   0.542800 0.000000 0.191710 -0.535586
O68   O     O_R   0.000000 0.457200 0.808290 -0.535745
Zn1   Zn    Zn3+2 0.061160 0.500000 0.728500 0.974572
Zn2   Zn    Zn3+2 0.438840 0.000000 0.771500 0.974572
Zn3   Zn    Zn3+2 0.000000 0.561160 0.228500 0.974817
Zn4   Zn    Zn3+2 0.000000 0.438840 0.771500 0.974546
Zn5   Zn    Zn3+2 0.438840 0.000000 0.228500 0.974640
Zn6   Zn    Zn3+2 0.561160 0.000000 0.771500 0.975296
Zn7   Zn    Zn3+2 1.000000 0.438840 0.228500 0.974631
Zn8   Zn    Zn3+2 1.000000 0.561160 0.771500 0.975320
Zn9   Zn    Zn3+2 0.938840 0.500000 0.271500 0.974809
Zn10  Zn    Zn3+2 0.500000 0.061160 0.728500 0.974546
Zn11  Zn    Zn3+2 0.500000 0.938840 0.271500 0.974816
Zn12  Zn    Zn3+2 0.938840 0.500000 0.728500 0.975297
Zn13  Zn    Zn3+2 0.061160 0.500000 0.271500 0.974641
Zn14  Zn    Zn3+2 0.500000 0.938840 0.728500 0.975321
Zn15  Zn    Zn3+2 0.500000 0.061160 0.271500 0.974631
Zn16  Zn    Zn3+2 0.561160 0.000000 0.228500 0.974808

loop_
_geom_bond_atom_site_label_1
_geom_bond_atom_site_label_2
_ccdc_geom_bond_type
C101  C107  A    
H117  N25   S    
C221  O22   A    
C164  O3    A    
C218  O20   A    
C134  H67   S    
C190  N31   S    
C140  N17   S    
O29   Zn5   S    
O45   Zn8   S    
C151  H7    S    
C22   C29   A    
C176  Cl43  S    
C203  N37   S    
C132  N9    S    
C71   C216  S    
C180  N21   S    
O25   Zn16  S    
C144  N21   S    
C130  H49   S    
C36   C53   S    
C221  O33   A    
C229  Cl8   S    
C136  H70   S    
C153  H14   S    
C147  H115  S    
C38   C55   S    
O56   Zn7   S    
C230  N40   S    
C129  H45   S    
C235  Cl3   S    
C125  H85   S    
O23   Zn14  S    
C137  N14   S    
O2    Zn3   S    
C137  H76   S    
C161  C205  A    
C103  C117  A    
C100  C115  A    
C208  O11   A    
C1    C202  S    
C65   C222  S    
C55   C65   T    
C190  C199  A    
C101  N11   S    
C155  H23   S    
C154  H18   S    
C189  N30   S    
C75   C212  S    
C40   C58   S    
C169  C187  A    
C78   O49   S    
H1    N40   S    
C172  C190  A    
C143  N20   S    
C9    Cl25  S    
C173  C191  A    
C140  H89   S    
C64   C223  S    
O1    Zn4   S    
C108  C113  A    
C114  C157  A    
C14   C38   A    
C16   Cl18  S    
C39   C56   S    
C217  O48   A    
C145  H111  S    
C132  H59   S    
C163  C203  A    
C7    Cl1   S    
C228  O30   A    
C183  C196  A    
O46   Zn15  S    
C125  H107  S    
C216  O47   A    
C86   C99   A    
C160  C178  A    
C150  H128  S    
C19   Cl15  S    
C21   C28   A    
C184  C198  A    
H73   N14   S    
C183  N25   S    
C73   C214  S    
C186  O9    A    
C165  C182  A    
C42   C60   S    
C208  O7    A    
C32   C236  A    
O18   Zn8   S    
C227  O29   A    
C151  H5    S    
C14   C19   A    
O21   Zn16  S    
C231  Cl7   S    
C47   C74   T    
C196  C197  S    
C125  H96   S    
C194  C219  S    
H17   N31   S    
C62   C225  S    
H51   N8    S    
C89   N38   A    
C144  H105  S    
H65   N11   S    
C187  C200  A    
C156  H28   S    
O26   Zn2   S    
C136  H72   S    
C153  H16   S    
C233  Cl5   S    
C126  H13   S    
O67   Zn16  S    
O28   Zn8   S    
H43   N6    S    
C232  Cl6   S    
C170  Cl38  S    
C215  O41   A    
C180  C198  A    
C95   C108  A    
C213  O43   A    
C72   C215  S    
C80   C102  A    
C143  H102  S    
C17   C32   A    
C82   C104  A    
O15   Zn3   S    
C19   C30   A    
C164  O66   A    
C238  Cl47  S    
C234  Cl4   S    
C188  N29   S    
C94   N38   A    
C15   C18   A    
C152  N29   S    
C165  Cl32  S    
C163  C181  A    
C235  C240  A    
C110  C120  A    
C157  N17   S    
H78   N15   S    
H118  N3    S    
H113  N24   S    
O34   Zn5   S    
C29   C47   S    
C30   C48   S    
C165  C204  A    
C212  O14   A    
C131  N8    S    
C23   Cl10  S    
C186  C198  S    
C142  H99   S    
O1    Zn12  S    
C84   O54   S    
C7    C42   A    
C158  H33   S    
C173  Cl41  S    
C115  C116  A    
C139  H83   S    
H109  N22   S    
C152  H9    S    
O47   Zn12  S    
C44   C76   T    
C152  H11   S    
C136  N13   S    
O27   Zn7   S    
C46   N6    S    
C139  H86   S    
C27   C44   S    
C195  C208  S    
C24   C57   A    
C224  O26   A    
C207  N12   S    
C56   C64   T    
C57   N7    S    
C166  C205  A    
C158  H32   S    
C176  C193  A    
C161  C179  A    
C28   C232  A    
C126  H24   S    
C158  N35   S    
C79   N9    S    
C36   C239  A    
H82   N16   S    
C133  H62   S    
C141  H93   S    
C187  N28   S    
C237  C238  A    
O30   Zn6   S    
C205  N39   S    
C25   Cl9   S    
H91   N18   S    
C34   C238  A    
O48   Zn13  S    
C35   N5    S    
C184  N26   S    
C94   C107  A    
C82   N34   A    
C179  N20   S    
C8    C41   A    
C95   N39   A    
C177  N18   S    
O66   Zn2   S    
C111  C146  A    
C215  O17   A    
C9    C23   A    
C181  N22   S    
C31   C235  A    
C11   C21   A    
C168  C185  A    
C163  Cl31  S    
C93   O63   S    
C138  H80   S    
C93   C106  A    
O24   Zn4   S    
C167  C184  A    
C170  C210  A    
C148  H119  S    
C128  H39   S    
O1    Zn1   S    
C185  C199  A    
C131  H54   S    
O37   Zn14  S    
C175  C199  S    
C83   O53   S    
C3    Cl44  S    
O4    Zn5   S    
C160  Cl28  S    
C132  H58   S    
C210  N34   S    
C17   Cl17  S    
C35   C100  A    
O20   Zn2   S    
C5    Cl23  S    
C81   C103  A    
O12   Zn7   S    
C27   C231  A    
C212  O42   A    
O34   Zn11  S    
C130  N7    S    
C172  C207  A    
C173  C209  A    
C193  N35   S    
C142  H97   S    
C134  H68   S    
C87   N36   A    
C20   Cl14  S    
C54   C66   T    
C189  C202  A    
C61   C226  S    
C91   O61   S    
C236  C239  A    
O31   Zn11  S    
C91   N39   A    
C83   N1    A    
C149  N26   S    
C14   Cl20  S    
C117  C118  A    
O12   Zn9   S    
C139  H84   S    
C237  Cl48  S    
C197  O6    A    
C24   N4    S    
O23   Zn6   S    
C141  H94   S    
O33   Zn13  S    
C153  N30   S    
C213  O15   A    
C11   C40   A    
C53   C67   T    
C18   C33   A    
C85   O55   S    
C143  H103  S    
C168  Cl36  S    
C21   Cl13  S    
C191  N32   S    
C123  N40   S    
C133  H64   S    
C169  Cl37  S    
C170  C188  A    
C150  N27   S    
O6    Zn14  S    
C128  H42   S    
C182  C195  A    
H47   N7    S    
C129  H44   S    
C145  N22   S    
C174  C192  A    
C13   C68   A    
C135  N15   S    
C2    C35   A    
C214  O40   A    
C133  N10   S    
C86   O57   S    
C137  H75   S    
C93   N37   A    
C142  N19   S    
O38   Zn9   S    
H126  N27   S    
C90   N10   S    
C171  Cl39  S    
C154  H19   S    
C10   C22   A    
O17   Zn5   S    
H122  N26   S    
C84   C97   A    
C226  O28   A    
C134  N11   S    
C148  H121  S    
C81   N23   A    
C24   C99   A    
C140  H90   S    
C113  N13   S    
C11   Cl22  S    
C12   C37   A    
C23   C26   A    
C220  O46   A    
C52   C69   T    
C186  O5    A    
H12   N30   S    
C126  H2    S    
C123  H63   S    
O68   Zn4   S    
C2    C97   A    
H60   N10   S    
C16   C17   A    
C92   N36   A    
C192  C201  A    
H56   N9    S    
C152  H10   S    
C15   C34   A    
C88   C110  A    
C192  N33   S    
C149  H123  S    
C155  H22   S    
C101  C157  A    
C80   N12   A    
C26   C229  A    
C1    O45   A    
C162  C206  A    
C8    C25   A    
C46   C230  A    
C1    O68   A    
C112  C201  S    
C31   C49   S    
C66   C221  S    
C174  Cl42  S    
C134  H66   S    
C104  C118  A    
C179  C196  A    
O3    Zn6   S    
C57   C103  A    
C70   C217  S    
C240  Cl45  S    
C167  C206  A    
C90   C106  A    
O23   Zn2   S    
C8    Cl26  S    
C217  O19   A    
C177  C194  A    
C127  H36   S    
C37   C240  A    
C161  Cl29  S    
C140  H88   S    
C227  O36   A    
C193  C202  A    
C60   C61   T    
H4    N28   S    
C185  N27   S    
C154  N31   S    
O42   Zn1   S    
C127  N4    S    
C143  H101  S    
C153  H15   S    
C125  N2    S    
C112  O2    A    
C2    N2    S    
C145  H110  S    
C168  C207  A    
H34   N4    S    
C144  H108  S    
C30   C234  A    
C97   C116  A    
C129  H46   S    
C121  C122  A    
O22   Zn3   S    
C216  O18   A    
C218  O44   A    
C74   C213  S    
C78   C100  A    
O40   Zn10  S    
C25   C27   A    
C107  C121  A    
C131  H55   S    
C127  H37   S    
C109  C119  A    
C7    C229  A    
C206  N38   S    
C90   C124  A    
C48   C73   T    
C166  C183  A    
C68   C104  A    
C146  N16   S    
C160  C204  A    
C119  C120  A    
C91   C114  A    
C87   C109  A    
C33   C51   S    
C79   C135  A    
H26   N33   S    
C34   C52   S    
O12   Zn3   S    
C176  C211  A    
C4    Cl34  S    
C219  O8    A    
C22   Cl11  S    
O9    Zn11  S    
C29   C233  A    
C139  N16   S    
C89   O60   S    
C149  H125  S    
C76   C220  S    
C145  H112  S    
C13   N3    S    
C105  C119  A    
C12   Cl21  S    
C151  N28   S    
H21   N32   S    
C144  H106  S    
C33   C237  A    
C150  H127  S    
C92   C105  A    
O34   Zn15  S    
C156  H27   S    
C175  O67   A    
O16   Zn6   S    
C10   C39   A    
H87   N17   S    
C16   C36   A    
C164  C200  S    
C88   N37   A    
C113  C146  A    
C133  H61   S    
C111  C121  A    
C151  H6    S    
C4    C233  A    
O41   Zn11  S    
H69   N13   S    
C50   C71   T    
O43   Zn9   S    
O23   Zn10  S    
C81   O51   S    
C222  O24   A    
C46   C102  A    
C171  C189  A    
C9    C42   A    
O10   Zn10  S    
O35   Zn12  S    
C68   N8    S    
C3    C234  A    
O36   Zn15  S    
C128  N5    S    
C136  H71   S    
C77   C218  S    
C147  H114  S    
C130  H48   S    
C123  H41   S    
C159  Cl27  S    
C126  N3    S    
C188  C201  A    
C79   C105  A    
O32   Zn10  S    
C13   C98   A    
C220  O21   A    
C85   C98   A    
H8    N29   S    
C147  H116  S    
C3    C38   A    
C223  O31   A    
C84   N12   A    
C6    C41   A    
C128  H40   S    
C96   C115  A    
O11   Zn13  S    
C51   C70   T    
C96   C230  A    
C131  H53   S    
O7    Zn9   S    
C123  H52   S    
C211  N23   S    
C6    C231  A    
C86   N34   A    
C150  H3    S    
C12   C20   A    
C110  C135  A    
H30   N35   S    
C159  C177  A    
C83   C96   A    
C69   C227  S    
O19   Zn7   S    
C225  O27   A    
C26   C43   S    
C182  N24   S    
C28   C45   S    
C5    C232  A    
C130  H50   S    
C155  N32   S    
O39   Zn1   S    
C112  O56   A    
C148  H120  S    
C41   C59   S    
C78   N1    A    
C142  H98   S    
H38   N5    S    
C167  Cl35  S    
C138  N15   S    
O13   Zn12  S    
C209  N1    S    
C49   C72   T    
C92   O62   S    
C141  N18   S    
C147  N24   S    
H104  N21   S    
C94   O64   S    
C166  Cl33  S    
C181  C194  A    
C171  C211  A    
O12   Zn13  S    
C159  C203  A    
C4    C39   A    
C18   Cl16  S    
C169  C209  A    
C156  H29   S    
C223  O25   A    
C178  N19   S    
O14   Zn4   S    
C219  O13   A    
C158  H31   S    
C32   C50   S    
C172  Cl40  S    
C129  N6    S    
H100  N20   S    
C37   C54   S    
C82   O52   S    
C239  Cl46  S    
C175  O4    A    
O8    Zn1   S    
C127  H35   S    
C95   O65   S    
C124  N14   S    
C15   Cl19  S    
C98   C117  A    
C155  H25   S    
C58   C63   T    
C141  H92   S    
C162  Cl30  S    
C59   C62   T    
C197  O10   A    
C88   O59   S    
C106  C120  A    
C174  C210  A    
C162  C180  A    
C63   C224  S    
C149  H124  S    
C108  C122  A    
C109  C124  A    
C154  H20   S    
C43   C77   T    
C178  C195  A    
C89   C111  A    
O34   Zn16  S    
C6    Cl12  S    
C45   C75   T    
H95   N19   S    
C224  O32   A    
C191  C200  A    
C138  H79   S    
C85   N23   A    
C80   O50   S    
C99   C118  A    
C137  H77   S    
C225  O38   A    
C138  H81   S    
C67   C228  S    
C87   O58   S    
O44   Zn14  S    
C10   Cl24  S    
C156  N33   S    
C214  O16   A    
H74   N2    S    
C222  O35   A    
C102  C116  A    
O1    Zn8   S    
C236  Cl2   S    
C114  C122  A    
C228  O37   A    
C132  H57   S    
C226  O39   A    
C204  N36   S    
C148  N25   S    
C5    C40   A    
O5    Zn15  S    
C20   C31   A    
