data_mof_unit_37915.cif
_audit_creation_date              2012-12-10T18:32:01-0500
_audit_creation_method            fapswitch 2.2
_symmetry_space_group_name_H-M    P1
_symmetry_Int_Tables_number       1
_space_group_crystal_system       triclinic
_cell_length_a                    10.702514
_cell_length_b                    15.041272
_cell_length_c                    15.483458
_cell_angle_alpha                 81.096726
_cell_angle_beta                  89.731703
_cell_angle_gamma                 104.178919
_cell_volume                      2385.10600475

loop_
_atom_site_label
_atom_site_type_symbol
_atom_type_description
_atom_site_fract_x
_atom_site_fract_y
_atom_site_fract_z
_atom_type_partial_charge
Br1   Br    Br    0.825487 0.345448 0.389345 -0.357556
Br2   Br    Br    0.584721 0.144289 0.674706 -0.519061
Br3   Br    Br    0.168383 0.123080 0.285482 -0.316661
Br4   Br    Br    0.151924 0.549679 0.307901 -0.357424
Br5   Br    Br    0.842318 0.455273 0.691865 -0.465732
Br6   Br    Br    0.181603 0.700289 0.428502 -0.500423
Br7   Br    Br    0.445538 0.199213 0.083097 -0.332254
Br8   Br    Br    0.669586 0.462916 0.216582 -0.374361
Br9   Br    Br    0.489206 0.773920 0.284025 -0.379747
Br10  Br    Br    0.315825 0.541324 0.773963 -0.479895
Br11  Br    Br    0.500308 0.839466 0.072040 -0.304654
Br12  Br    Br    0.257256 0.335835 0.323811 -0.351824
Br13  Br    Br    0.818470 0.856399 0.728373 -0.431633
C1    C     C_R   0.476340 0.441185 0.661905 0.922065
C2    C     C_R   0.456451 0.442386 0.900583 0.011962
C3    C     C_R   0.461668 0.350524 0.935995 0.020407
C4    C     C_R   0.741325 0.499566 0.500433 0.916433
C5    C     C_R   0.481603 0.512380 0.953955 0.079703
C6    C     C_R   0.491045 0.487237 0.044922 0.059508
C7    C     C_R   0.467355 0.392143 0.080579 -0.141953
C8    C     C_R   0.460379 0.324911 0.027143 0.279951
C9    C     C_R   0.506820 0.607389 0.918250 -0.114606
C10   C     C_R   0.514294 0.674108 0.971696 -0.083272
C11   C     C_R   0.512800 0.649446 0.062625 -0.022560
C12   C     C_3   0.120895 0.499977 0.499281 -0.094893
C13   C     C_R   0.517353 0.557727 0.098129 0.027337
C14   C     C_R   0.511498 0.714673 0.118657 0.255790
C15   C     C_R   0.511129 0.686923 0.209762 0.251760
C16   C     C_R   0.519388 0.559428 0.337571 0.984638
C17   C     C_R   0.551011 0.540416 0.185205 0.173231
C18   C     C_R   0.693914 0.836991 0.639745 0.189400
C19   C     C_R   0.663532 0.750560 0.613104 -0.003285
C20   C     C_R   0.513421 0.794677 0.514516 0.015155
C21   C     C_R   0.542099 0.884981 0.535824 -0.034034
C22   C     C_R   0.631298 0.904827 0.601762 0.025578
C23   C     C_3   0.093399 0.571889 0.420622 0.487416
C24   C     C_R   0.482863 0.954379 0.495154 0.060808
C25   C     C_R   0.507476 0.042718 0.523815 0.054294
C26   C     C_R   0.584237 0.055066 0.598324 0.212395
C27   C     C_R   0.650226 0.989376 0.631997 -0.128674
C28   C     C_R   0.258067 0.499772 0.499735 0.927196
C29   C     C_R   0.398603 0.937048 0.426793 -0.139519
C30   C     C_R   0.334607 0.000834 0.389672 -0.061220
C31   C     C_R   0.359686 0.088710 0.413170 0.006917
C32   C     C_R   0.451593 0.112513 0.477330 -0.015785
C33   C     C_R   0.298928 0.154572 0.369836 0.166080
C34   C     C_3   0.079631 0.524336 0.587171 -0.414622
C35   C     C_R   0.333968 0.244843 0.388229 0.359300
C36   C     C_R   0.488503 0.206606 0.487641 -0.027238
C37   C     C_3   0.895561 0.397955 0.493042 0.144535
C38   C     C_3   0.038848 0.400594 0.493531 -0.419470
C39   C     C_3   0.947402 0.566115 0.419984 -0.451833
C40   C     C_3   0.937402 0.528518 0.585501 0.050987
C41   C     C_3   0.877150 0.497405 0.499972 -0.093448
C42   C     C_R   0.456062 0.404372 0.755153 -0.116624
C43   C     C_R   0.529538 0.597901 0.243469 -0.241548
C44   C     C_R   0.466197 0.287090 0.878936 -0.073059
C45   C     C_R   0.470831 0.316025 0.788791 -0.159916
C46   C     C_R   0.429125 0.461201 0.812091 0.204250
H1    H     H_    0.520902 0.631492 0.848671 0.190094
H2    H     H_    0.455468 0.368991 0.150403 0.223381
H3    H     H_    0.710163 0.002730 0.686928 0.228957
H4    H     H_    0.570733 0.234093 0.523298 0.203516
H5    H     H_    0.269355 0.980880 0.339030 0.217074
H6    H     H_    0.709494 0.697081 0.641723 0.174997
H7    H     H_    0.442243 0.770421 0.469833 0.192866
H8    H     H_    0.056118 0.350226 0.550184 0.190770
H9    H     H_    0.379136 0.874451 0.399048 0.207788
H10   H     H_    0.906142 0.544059 0.358698 0.251182
H11   H     H_    0.933801 0.601699 0.586649 0.189884
H12   H     H_    0.068747 0.377331 0.433957 0.278149
H13   H     H_    0.094217 0.471236 0.642124 0.239290
H14   H     H_    0.140287 0.592083 0.599749 0.241896
H15   H     H_    0.928599 0.635577 0.420652 0.210339
H16   H     H_    0.524389 0.745109 0.940554 0.204286
H17   H     H_    0.473273 0.217116 0.902901 0.213782
H18   H     H_    0.484214 0.269451 0.745410 0.225906
H19   H     H_    0.845543 0.347745 0.550508 0.184161
N1    N     N_R   0.573860 0.731700 0.552730 -0.128271
N2    N     N_R   0.426060 0.268290 0.447230 -0.152476
O1    O     O_R   0.462770 0.383110 0.605620 -0.615374
O2    O     O_R   0.510160 0.531900 0.639510 -0.586918
O3    O     O_R   0.661510 0.425600 0.483070 -0.581511
O4    O     O_R   0.708900 0.574390 0.516960 -0.630689
O5    O     O_R   0.489840 0.468100 0.360490 -0.546862
O6    O     O_R   0.537230 0.616890 0.394380 -0.583367
O7    O     O_R   0.291100 0.425610 0.483040 -0.602636
O8    O     O_R   0.338490 0.574400 0.516930 -0.585261
Zn1   Zn    Zn3+2 0.468350 0.400660 0.477370 1.044517
Zn2   Zn    Zn3+2 0.531650 0.599340 0.522630 1.022218

loop_
_geom_bond_atom_site_label_1
_geom_bond_atom_site_label_2
_ccdc_geom_bond_type
C2    C5    A    
Br4   C23   S    
C3    C8    A    
C36   H4    S    
C42   C46   A    
C21   C24   A    
C6    C7    A    
C11   C14   A    
Br12  C35   S    
C15   C43   A    
C40   C41   S    
C37   C41   S    
O4    Zn2   S    
C44   H17   S    
Br5   C40   S    
C11   C13   A    
C5    C6    A    
C39   H15   S    
C9    H1    S    
C25   C26   A    
C2    C3    A    
N2    Zn1   S    
C27   H3    S    
C21   C22   A    
C24   C29   A    
C6    C13   A    
C25   C32   A    
C39   H10   S    
C45   H18   S    
Br2   C26   S    
C31   C33   A    
N1    Zn2   S    
C30   H5    S    
C10   C11   A    
Br11  C14   S    
Br1   C37   S    
C12   C34   S    
C16   O5    A    
C23   C39   S    
C34   C40   S    
O1    Zn1   S    
C1    C42   S    
C29   H9    S    
C38   H12   S    
C28   O7    A    
C40   H11   S    
C37   H19   S    
C39   C41   S    
C20   H7    S    
C37   C38   S    
O3    Zn1   S    
C33   C35   A    
C34   H14   S    
O6    Zn2   S    
C12   C28   S    
C26   C27   A    
O5    Zn1   S    
C20   N1    A    
Br7   C8    S    
C17   C43   A    
C4    O3    A    
C30   C31   A    
C12   C38   S    
C24   C25   A    
C18   C19   A    
C32   C36   A    
C20   C21   A    
C38   H8    S    
C16   O6    A    
O8    Zn2   S    
C13   C17   A    
O7    Zn1   S    
C18   C22   A    
C29   C30   A    
C1    O2    A    
C31   C32   A    
C28   O8    A    
C5    C9    A    
C2    C46   A    
Br13  C18   S    
C10   H16   S    
C16   C43   S    
C7    H2    S    
Br3   C33   S    
O2    Zn2   S    
C36   N2    A    
C4    O4    A    
Br8   C17   S    
C35   N2    A    
Br10  C46   S    
C19   N1    A    
C44   C45   A    
Br6   C23   S    
C22   C27   A    
C3    C44   A    
C34   H13   S    
C12   C23   S    
C7    C8    A    
C42   C45   A    
C14   C15   A    
C9    C10   A    
C1    O1    A    
C4    C41   S    
Br9   C15   S    
C19   H6    S    
