data_mof_unit_45348.cif
_audit_creation_date              2012-12-10T17:03:57-0500
_audit_creation_method            fapswitch 2.2
_symmetry_space_group_name_H-M    P1
_symmetry_Int_Tables_number       1
_space_group_crystal_system       triclinic
_cell_length_a                    9.807159
_cell_length_b                    11.085785
_cell_length_c                    15.820502
_cell_angle_alpha                 94.684834
_cell_angle_beta                  79.293624
_cell_angle_gamma                 111.247885
_cell_volume                      1574.982411

loop_
_atom_site_label
_atom_site_type_symbol
_atom_type_description
_atom_site_fract_x
_atom_site_fract_y
_atom_site_fract_z
_atom_type_partial_charge
C1    C     C_R   0.555001 0.744959 0.507315 0.846414
C2    C     C_R   0.443649 0.254846 0.494968 0.847513
C3    C     C_R   0.325255 0.479471 0.076928 0.606600
C4    C     C_R   0.673713 0.517667 0.922409 0.624782
C5    C     C_R   0.217456 0.432586 0.023483 0.399586
C6    C     C_R   0.780860 0.559869 0.976106 0.379362
C7    C     C_2   0.583819 0.883058 0.513078 -0.370746
C8    C     C_2   0.411703 0.116340 0.494627 -0.372593
C9    C     C_2   0.476672 0.929726 0.509722 0.501415
C10   C     C_2   0.510553 0.068736 0.512445 0.504723
C11   C     C_2   0.923698 0.491069 0.492551 0.173013
C12   C     C_2   0.076175 0.508711 0.507586 0.172693
C13   C     C_R   0.411584 0.487531 0.662842 0.857952
C14   C     C_R   0.588348 0.512182 0.337112 0.851963
C15   C     C_R   0.357829 0.474201 0.755892 -0.292357
C16   C     C_R   0.641731 0.524184 0.243894 -0.288685
C17   C     C_R   0.159072 0.399916 0.876863 0.723424
C18   C     C_R   0.840346 0.594351 0.122317 0.729841
C19   C     C_R   0.207154 0.414328 0.788461 -0.380347
C20   C     C_R   0.792723 0.581149 0.210841 -0.359894
C21   C     C_R   0.460478 0.516649 0.812447 0.700228
C22   C     C_R   0.538468 0.482852 0.187599 0.701886
C23   C     C_R   0.417417 0.482610 0.899697 -0.148133
C24   C     C_R   0.581652 0.515275 0.100035 -0.142745
C25   C     C_R   0.263221 0.435652 0.933753 -0.263559
C26   C     C_R   0.735731 0.559382 0.065777 -0.258529
C27   C     C_R   0.523247 0.500702 0.954654 -0.155981
C28   C     C_R   0.475952 0.497221 0.044908 -0.151203
Cu1   Cu    Cu3+1 0.362980 0.479380 0.485080 1.122561
Cu2   Cu    Cu3+1 0.637020 0.520620 0.514920 1.125731
H1    H     H_    0.874317 0.612948 0.253337 0.225161
H2    H     H_    0.125957 0.381890 0.745726 0.230388
H3    H     H_    0.305217 0.052357 0.479313 0.191436
H4    H     H_    0.695363 0.947585 0.519562 0.191391
H5    H     H_    0.121599 0.574794 0.558210 0.159096
H6    H     H_    0.878154 0.424777 0.442050 0.147883
N1    N     N_2   0.842890 0.551600 0.537350 0.086166
N2    N     N_2   0.157110 0.448400 0.462650 0.082420
O1    O     O_R   0.426810 0.668300 0.492040 -0.537493
O2    O     O_R   0.573190 0.331700 0.507960 -0.536397
O3    O     O_R   0.658240 0.703130 0.517240 -0.549812
O4    O     O_R   0.341760 0.296870 0.482760 -0.549362
O5    O     O_R   0.319390 0.472820 0.610170 -0.631338
O6    O     O_R   0.680610 0.527180 0.389830 -0.631965
O7    O     O_R   0.550820 0.507640 0.635370 -0.466617
O8    O     O_R   0.449180 0.492360 0.364630 -0.469201
O9    O     O_3   0.068633 0.404033 0.058101 -0.486702
C29   C     C_3   0.015650 0.293201 0.110557 0.160961
H7    H     H_    0.916548 0.297299 0.156235 0.177054
H8    H     H_    0.096401 0.290427 0.150796 0.190156
C30   C     C_3   0.968721 0.168513 0.056185 -0.387470
H9    H     H_    0.880243 0.168260 0.021247 0.283929
H10   H     H_    0.065183 0.164036 0.008181 0.219956
C31   C     C_3   0.910204 0.048563 0.112075 -0.861765
H11   H     H_    0.997726 0.045179 0.146452 0.277818
H12   H     H_    0.876907 0.960201 0.070884 0.257879
H13   H     H_    0.811900 0.049327 0.159800 0.266253
O10   O     O_3   0.927749 0.581755 0.940999 -0.478487
C32   C     C_3   0.990298 0.705221 0.903273 0.150432
H14   H     H_    0.985619 0.781778 0.952868 0.132653
H15   H     H_    0.930814 0.711110 0.851054 0.187086
C33   C     C_3   0.152503 0.729539 0.864313 -0.292369
H16   H     H_    0.212887 0.720139 0.914901 0.249692
H17   H     H_    0.157858 0.655923 0.813048 0.234975
C34   C     C_3   0.228339 0.863981 0.825474 -0.860861
H18   H     H_    0.171227 0.874515 0.773615 0.279404
H19   H     H_    0.345517 0.878055 0.797495 0.271321
H20   H     H_    0.226893 0.939704 0.875810 0.258485
F1    F     F_    0.400582 0.397420 0.216658 -0.595708
F2    F     F_    0.597446 0.604068 0.784000 -0.593740
F3    F     F_    0.010785 0.350054 0.905663 -0.597320
F4    F     F_    0.988599 0.643549 0.092935 -0.601236
F5    F     F_    0.282063 0.517561 0.158111 -0.578582
F6    F     F_    0.717350 0.482951 0.840416 -0.568435
F7    F     F_    0.644402 0.147724 0.532176 -0.649252
F8    F     F_    0.335670 0.849924 0.502686 -0.653968
F9    F     F_    0.101657 0.368295 0.399435 -0.513714
F10   F     F_    0.898529 0.632020 0.600390 -0.505114

loop_
_geom_bond_atom_site_label_1
_geom_bond_atom_site_label_2
_ccdc_geom_bond_type
Cu1   O4    S    
C6    O10   S    
Cu2   O7    S    
C18   C26   A    
C14   O8    A    
C15   C19   A    
C5    O9    S    
Cu1   Cu2   S    
C3    C28   A    
C24   C26   A    
C18   C20   A    
C11   N1    D    
C33   H17   S    
C29   C30   S    
C34   H19   S    
Cu1   N2    S    
Cu2   O3    S    
C9    F8    S    
C23   C27   A    
C9    C10   S    
C22   F1    S    
C4    F6    S    
C29   H8    S    
C32   H14   S    
Cu1   O5    S    
Cu2   O6    S    
C19   H2    S    
C18   F4    S    
C31   H12   S    
C32   H15   S    
C30   H9    S    
C4    C6    A    
O10   C32   S    
Cu2   N1    S    
C30   H10   S    
C33   H16   S    
C10   F7    S    
O9    C29   S    
C16   C20   A    
C34   H20   S    
Cu1   O1    S    
Cu2   O2    S    
C12   H5    S    
C5    C25   A    
C1    O3    A    
C29   H7    S    
C17   F3    S    
C13   C15   S    
C7    H4    S    
C22   C24   A    
C13   O5    A    
C4    C27   A    
C14   O6    A    
C7    C9    D    
C31   H11   S    
C11   H6    S    
C32   C33   S    
C16   C22   A    
C33   C34   S    
C1    C7    S    
C2    C8    S    
C24   C28   A    
C3    C5    A    
C11   C12   S    
N2    F9    S    
N1    F10   S    
C21   F2    S    
Cu1   O8    S    
C30   C31   S    
C17   C25   A    
C21   C23   A    
C13   O7    A    
C6    C26   A    
C2    O4    A    
C17   C19   A    
C14   C16   S    
C8    H3    S    
C23   C25   A    
C12   N2    D    
C3    F5    S    
C1    O1    A    
C2    O2    A    
C15   C21   A    
C8    C10   D    
C34   H18   S    
C27   C28   A    
C20   H1    S    
C31   H13   S    
