data_mof_unit_55281.cif
_audit_creation_date              2012-12-11T14:08:17-0500
_audit_creation_method            fapswitch 2.2
_symmetry_space_group_name_H-M    P1
_symmetry_Int_Tables_number       1
_space_group_crystal_system       triclinic
_cell_length_a                    10.933162
_cell_length_b                    11.088016
_cell_length_c                    18.946219
_cell_angle_alpha                 91.028685
_cell_angle_beta                  90.43301
_cell_angle_gamma                 60.572583
_cell_volume                      2000.13500392

loop_
_atom_site_label
_atom_site_type_symbol
_atom_type_description
_atom_site_fract_x
_atom_site_fract_y
_atom_site_fract_z
_atom_type_partial_charge
C1    C     C_R   0.233879 0.646669 0.606953 0.567084
C2    C     C_3   0.664479 0.532419 0.812961 0.106877
C3    C     C_3   0.682421 0.662215 0.817963 0.042734
C4    C     C_3   0.636821 0.620477 0.685843 0.156566
C5    C     C_3   0.770012 0.637388 0.693275 -0.246168
C6    C     C_3   0.648472 0.501124 0.732354 0.379652
C7    C     C_2   0.655190 0.159924 0.669673 0.304324
C8    C     C_2   0.701025 0.147298 0.826919 -0.107161
C9    C     C_2   0.784001 0.056654 0.777017 -0.137780
C10   C     C_2   0.781664 0.099495 0.702822 0.219198
C11   C     C_2   0.158146 0.672147 0.673103 -0.125151
C12   C     C_R   0.625625 0.589182 0.609039 0.654058
C13   C     C_2   0.132954 0.698657 0.828285 -0.101965
C14   C     C_2   0.139311 0.592511 0.790599 -0.174278
C15   C     C_2   0.188143 0.567900 0.717275 -0.173116
C16   C     C_2   0.633697 0.636142 0.319196 0.340771
C17   C     C_2   0.648423 0.689043 0.165854 0.293877
C18   C     C_2   0.755106 0.619196 0.211115 -0.088648
C19   C     C_2   0.743328 0.632770 0.287455 0.234203
C20   C     C_2   0.636359 0.189252 0.320902 -0.084971
C21   C     C_2   0.639124 0.190939 0.167009 -0.105303
C22   C     C_2   0.532508 0.200712 0.205442 -0.150590
C23   C     C_R   0.627330 0.226146 0.600634 0.630559
C24   C     C_2   0.521780 0.235005 0.279352 -0.140431
C25   C     C_2   0.155437 0.670108 0.335652 -0.061469
C26   C     C_2   0.137142 0.680143 0.183144 -0.132109
C27   C     C_2   0.072040 0.786925 0.228311 -0.136263
C28   C     C_2   0.127122 0.780737 0.296909 0.228321
C29   C     C_R   0.704905 0.098627 0.897694 0.538308
C30   C     C_R   0.719165 0.685525 0.890539 0.579375
C31   C     C_R   0.071779 0.733505 0.898649 0.561827
C32   C     C_R   0.674081 0.111599 0.102263 0.564078
C33   C     C_R   0.693368 0.691674 0.094885 0.533405
C34   C     C_R   0.228833 0.645496 0.400258 0.562384
C35   C     C_R   0.093712 0.710062 0.111974 0.556581
C36   C     C_R   0.639007 0.618786 0.393452 0.598254
C37   C     C_R   0.613497 0.234316 0.393664 0.542851
C38   C     C_3   0.546348 0.788488 0.790478 -0.195387
C39   C     C_3   0.507359 0.752475 0.717147 0.071353
C40   C     C_3   0.805921 0.641090 0.770656 -0.300503
Cr1   Cr    Cr6+3 0.393010 0.398050 0.501480 1.004846
Cr2   Cr    Cr6+3 0.398820 0.707980 0.501630 1.041671
Cr3   Cr    Cr6+3 0.708140 0.393940 0.496850 1.042259
Cr4   Cr    Cr6+3 0.937950 0.938450 0.008940 0.981086
Cr5   Cr    Cr6+3 0.626180 0.937030 0.994750 1.001234
Cr6   Cr    Cr6+3 0.937790 0.625760 0.001410 1.010554
H1    H     H_    0.566841 0.876653 0.787153 0.142957
H2    H     H_    0.900636 0.541060 0.783369 0.137968
H3    H     H_    0.864283 0.551121 0.667628 0.171660
H4    H     H_    0.853157 0.948975 0.790564 0.088948
H5    H     H_    0.624964 0.252785 0.814107 0.141705
H6    H     H_    0.116216 0.517968 0.814503 0.153072
H7    H     H_    0.257729 0.461766 0.701656 0.184639
H8    H     H_    0.167973 0.765867 0.805549 0.096402
H9    H     H_    0.457427 0.819625 0.827753 0.146755
H10   H     H_    0.086578 0.777443 0.688682 0.098883
H11   H     H_    0.862534 0.555065 0.192927 0.088883
H12   H     H_    0.456597 0.173090 0.184249 0.156349
H13   H     H_    0.415272 0.294299 0.300328 0.152516
H14   H     H_    0.712328 0.222279 0.188271 0.097734
H15   H     H_    0.743024 0.130095 0.300410 0.081562
H16   H     H_    0.989171 0.887359 0.211648 0.143599
H17   H     H_    0.418550 0.732050 0.724955 0.127978
H18   H     H_    0.220192 0.578192 0.198287 0.085272
H19   H     H_    0.134747 0.589187 0.315773 0.050929
H20   H     H_    0.832752 0.725044 0.779333 0.117307
H21   H     H_    0.750599 0.734740 0.667732 0.145681
H22   H     H_    0.760908 0.443833 0.835366 0.118296
O1    O     O_R   0.507110 0.256280 0.580300 -0.529163
O2    O     O_R   0.524640 0.695370 0.425100 -0.506517
O3    O     O_R   0.735890 0.504390 0.415980 -0.518630
O4    O     O_R   0.690560 0.277820 0.422350 -0.537516
O5    O     O_3   0.499990 0.499990 0.499980 -0.300422
O6    O     O_R   0.089190 0.825870 0.932320 -0.527121
O7    O     O_R   0.819070 0.053960 0.931440 -0.512783
O8    O     O_R   0.607070 0.076440 0.916460 -0.506932
O9    O     O_R   0.647110 0.806550 0.917690 -0.516734
O10   O     O_R   0.837080 0.593860 0.915300 -0.536853
O11   O     O_R   0.064770 0.636080 0.932550 -0.493295
O12   O     O_R   0.280830 0.527190 0.577940 -0.502128
O13   O     O_R   0.068250 0.829200 0.092940 -0.545334
O14   O     O_R   0.799650 0.057040 0.080330 -0.508238
O15   O     O_R   0.586130 0.079760 0.077080 -0.519478
O16   O     O_R   0.627700 0.809630 0.066580 -0.503264
O17   O     O_R   0.816140 0.597180 0.075920 -0.546519
O18   O     O_R   0.045360 0.639170 0.081440 -0.491261
O19   O     O_3   0.833980 0.833750 0.001700 -0.265412
O20   O     O_R   0.261360 0.738990 0.584270 -0.522831
O21   O     O_R   0.532590 0.694780 0.574370 -0.464355
O22   O     O_R   0.744470 0.503750 0.577000 -0.499435
O23   O     O_R   0.698520 0.277230 0.571620 -0.449850
O24   O     O_R   0.498530 0.256920 0.419280 -0.518694
O25   O     O_R   0.272880 0.527780 0.428680 -0.519098
O26   O     O_R   0.252780 0.739630 0.423250 -0.472732
O27   O     O_3   0.768982 0.383230 0.711193 -0.688161
H23   H     H_    0.765018 0.312842 0.739528 0.344173
O28   O     O_3   0.898698 0.095508 0.669834 -0.559792
C41   C     C_3   0.021486 0.045291 0.713098 0.021105
H24   H     H_    0.113878 0.998295 0.677419 0.149236
H25   H     H_    0.034337 0.962432 0.748256 0.102991
C42   C     C_3   0.027259 0.158615 0.759149 -0.268703
H26   H     H_    0.017099 0.244530 0.725507 0.211050
H27   H     H_    0.943214 0.197525 0.799279 0.155760
C43   C     C_3   0.162105 0.104239 0.801717 -0.497159
H28   H     H_    0.182813 0.010430 0.831271 0.160042
H29   H     H_    0.152732 0.186532 0.839289 0.155822
H30   H     H_    0.251431 0.078330 0.766862 0.129015
O29   O     O_3   0.534122 0.183845 0.706653 -0.597238
C44   C     C_3   0.476065 0.103280 0.678529 0.040275
H31   H     H_    0.460488 0.054930 0.724839 0.172411
H32   H     H_    0.550358 0.018798 0.642374 0.162423
C45   C     C_3   0.326710 0.188706 0.644329 -0.225754
H33   H     H_    0.244533 0.214433 0.684421 0.104904
H34   H     H_    0.302749 0.292370 0.626611 0.208665
C46   C     C_3   0.301103 0.113494 0.581297 -0.391887
H35   H     H_    0.399960 0.036079 0.555033 0.181058
H36   H     H_    0.234202 0.188877 0.540867 0.123864
H37   H     H_    0.243105 0.060110 0.598065 0.143985
O30   O     O_3   0.855256 0.620366 0.327818 -0.731560
H38   H     H_    0.931183 0.606950 0.295249 0.308177
O31   O     O_3   0.518170 0.795256 0.189579 -0.521632
C47   C     C_3   0.404367 0.812007 0.145632 0.068041
H39   H     H_    0.320510 0.819920 0.181762 0.212404
H40   H     H_    0.430779 0.720956 0.109352 0.103215
C48   C     C_3   0.344248 0.948596 0.103210 -0.268477
H41   H     H_    0.351579 0.032115 0.135042 0.179642
H42   H     H_    0.399458 0.932970 0.051283 0.186723
C49   C     C_3   0.193695 0.999665 0.080207 -0.461642
H43   H     H_    0.194011 0.925841 0.039111 0.202567
H44   H     H_    0.152032 0.102684 0.055533 0.121821
H45   H     H_    0.126836 0.009363 0.126203 0.174277
O32   O     O_3   0.530007 0.626598 0.280432 -0.696611
H46   H     H_    0.481897 0.591799 0.311878 0.318850
O33   O     O_3   0.183129 0.866990 0.311874 -0.518513
C50   C     C_3   0.078137 0.997291 0.338078 0.039060
H47   H     H_    0.124486 0.025298 0.383606 0.167648
H48   H     H_    0.983328 0.996375 0.358742 0.111009
C51   C     C_3   0.036084 0.108410 0.281340 -0.302676
H49   H     H_    0.130879 0.093700 0.252592 0.188688
H50   H     H_    0.964167 0.099178 0.242852 0.133297
C52   C     C_3   0.961799 0.254222 0.313983 -0.450084
H51   H     H_    0.903247 0.332430 0.272653 0.154743
H52   H     H_    0.039685 0.278351 0.339634 0.165765
H53   H     H_    0.885929 0.261540 0.354568 0.196928
O34   O     O_3   0.460862 0.863750 0.672555 -0.747951
H54   H     H_    0.359587 0.922498 0.682377 0.308421
O35   O     O_3   0.548562 0.554748 0.854340 -0.743505
H55   H     H_    0.561602 0.462499 0.866380 0.324664
O36   O     O_3   0.534181 0.476429 0.719112 -0.706697
H56   H     H_    0.453109 0.535275 0.748919 0.343824

loop_
_geom_bond_atom_site_label_1
_geom_bond_atom_site_label_2
_ccdc_geom_bond_type
Cr3   O5    S    
C7    C10   D    
Cr4   O7    S    
Cr3   O4    S    
C50   C51   S    
O27   H23   S    
C23   O1    A    
O35   H55   S    
C1    C11   S    
C34   O25   A    
C5    H21   S    
C10   O28   S    
C49   H43   S    
Cr1   O12   S    
C45   H34   S    
O34   H54   S    
C35   O13   A    
C50   H47   S    
C29   O8    A    
Cr5   O15   S    
C25   C28   D    
C26   C27   D    
C42   H26   S    
Cr5   O8    S    
C28   O33   S    
C8    C29   S    
C15   H7    S    
C12   O22   A    
Cr5   O19   S    
C13   H8    S    
Cr4   O14   S    
C52   H52   S    
Cr6   O11   S    
C35   O18   A    
C46   H35   S    
Cr2   O2    S    
O29   C44   S    
C50   H48   S    
C18   C19   S    
C20   H15   S    
C33   O17   A    
C43   H28   S    
C26   H18   S    
C30   O9    A    
C11   C15   D    
Cr1   O25   S    
C38   H9    S    
C20   C24   D    
C3    C38   S    
C8    C9    D    
C46   H36   S    
C48   C49   S    
C4    C12   S    
Cr4   O19   S    
C9    C10   S    
C36   O3    A    
C25   C34   S    
Cr6   O17   S    
C1    O20   A    
C19   O30   S    
C42   H27   S    
C40   H20   S    
C21   C22   D    
C6    O36   S    
C5    H3    S    
C2    C6    S    
C17   C33   S    
C43   H29   S    
C45   H33   S    
C36   O2    A    
O28   C41   S    
C16   C19   D    
C21   C32   S    
C14   H6    S    
Cr3   O22   S    
C12   O21   A    
C25   H19   S    
C21   H14   S    
C4    C6    S    
Cr4   O13   S    
C52   H53   S    
Cr6   O10   S    
O32   H46   S    
C31   O6    A    
C2    O35   S    
C5    C40   S    
Cr3   O23   S    
C3    C30   S    
C27   H16   S    
C18   H11   S    
C14   C15   S    
C4    C39   S    
C46   H37   S    
C39   O34   S    
C17   C18   D    
O31   C47   S    
Cr4   O6    S    
C8    H5    S    
C38   H1    S    
C51   H50   S    
C17   O31   S    
C3    C40   S    
C41   H24   S    
C42   C43   S    
C41   H25   S    
C52   H51   S    
C48   H41   S    
C23   O23   A    
C44   C45   S    
Cr5   O16   S    
Cr2   O20   S    
C47   H40   S    
C49   H45   S    
C39   H17   S    
Cr1   O1    S    
Cr6   O19   S    
C40   H2    S    
C32   O15   A    
Cr2   O5    S    
Cr3   O3    S    
C37   O24   A    
Cr2   O26   S    
C13   C31   S    
C9    H4    S    
C34   O26   A    
C4    C5    S    
C51   C52   S    
C49   H44   S    
C22   H12   S    
O30   H38   S    
C31   O11   A    
O33   C50   S    
C29   O7    A    
C41   C42   S    
C32   O14   A    
C2    H22   S    
Cr2   O21   S    
C47   C48   S    
C44   H32   S    
C2    C3    S    
O36   H56   S    
C16   C36   S    
C20   C37   S    
C38   C39   S    
C24   H13   S    
C7    C23   S    
C22   C24   S    
C45   C46   S    
C16   O32   S    
C33   O16   A    
C51   H49   S    
Cr1   O5    S    
C30   O10   A    
C26   C35   S    
Cr1   O24   S    
C6    O27   S    
C37   O4    A    
C44   H31   S    
C27   C28   S    
C48   H42   S    
C1    O12   A    
C7    O29   S    
Cr5   O9    S    
C47   H39   S    
C13   C14   D    
C43   H30   S    
C11   H10   S    
Cr6   O18   S    
