data_mof_unit_15024.cif
_audit_creation_date              2013-03-05T15:43:17-0500
_audit_creation_method            fapswitch 2.2
_symmetry_space_group_name_H-M    P1
_symmetry_Int_Tables_number       1
_space_group_crystal_system       triclinic
_cell_length_a                    8.330505
_cell_length_b                    15.113917
_cell_length_c                    26.955618
_cell_angle_alpha                 97.014882
_cell_angle_beta                  92.680706
_cell_angle_gamma                 80.566173
_cell_volume                      3321.68657928

loop_
_atom_site_label
_atom_site_type_symbol
_atom_site_description
_atom_site_fract_x
_atom_site_fract_y
_atom_site_fract_z
_atom_type_partial_charge
P1    P     P_3+3 0.070480 0.574800 0.610950 0.546559
O1    O     O_2   0.905540 0.548000 0.618290 -0.356150
O2    O     O_3   0.137550 0.547930 0.558110 -0.390355
O3    O     O_3   0.688580 0.383890 0.587540 -0.371377
O4    O     O_2   0.745185 0.476362 0.674133 -0.301921
O5    O     O_3   0.057971 0.691766 0.629472 -0.509011
O6    O     O_3   0.790234 0.300481 0.673280 -0.400410
H1    H     H_    0.678047 0.213354 0.622336 0.007353
C1    C     C_3   0.803770 0.141816 0.680595 -0.122107
H2    H     H_    0.919516 0.124818 0.660882 0.153380
P2    P     P_3+3 0.668430 0.292880 0.460530 0.480379
P3    P     P_3+3 0.151842 0.219171 0.557476 0.519785
O7    O     O_2   0.848360 0.279400 0.474970 -0.320932
O8    O     O_3   0.104690 0.337720 0.562900 -0.340357
O9    O     O_2   0.025355 0.178877 0.521972 -0.369206
O10   O     O_3   0.673218 0.260868 0.395998 -0.580910
O11   O     O_3   0.117190 0.179463 0.613797 -0.493396
C2    C     C_3   0.253992 0.178200 0.646739 0.305767
H3    H     H_    0.370407 0.172535 0.627154 -0.069671
C3    C     C_3   0.264268 0.095653 0.675729 -0.714686
H4    H     H_    0.164165 0.105790 0.702515 0.222930
H5    H     H_    0.249360 0.035676 0.648936 0.260466
C4    C     C_3   0.299810 0.264317 0.372315 0.319991
H6    H     H_    0.383511 0.298516 0.397879 0.100921
C5    C     C_3   0.316055 0.167717 0.385894 -0.703823
H7    H     H_    0.234976 0.128856 0.361298 0.289044
H8    H     H_    0.443973 0.132967 0.382220 0.232876
H9    H     H_    0.279972 0.169057 0.425092 0.217973
Ba1   Ba    Ba6+2 0.860900 0.457020 0.523210 1.628938
C6    C     C_3   0.923457 0.746461 0.609667 0.357644
H10   H     H_    0.858788 0.708320 0.579566 0.023861
C7    C     C_3   0.985982 0.824109 0.588524 -0.801689
H11   H     H_    0.883902 0.865671 0.570319 0.097059
H12   H     H_    0.077382 0.796404 0.559911 0.273959
C8    C     C_3   0.720515 0.328066 0.371577 0.349347
H13   H     H_    0.818622 0.358937 0.392617 0.142257
H14   H     H_    0.612764 0.380298 0.366685 0.057324
C9    C     C_3   0.783487 0.285011 0.320605 -0.857725
H15   H     H_    0.887037 0.229957 0.325404 0.293482
H16   H     H_    0.826193 0.335311 0.299993 0.212504
H17   H     H_    0.685492 0.256385 0.297959 0.261873
P4    P     P_3+3 0.119230 0.425130 0.389040 0.468198
O12   O     O_2   0.284150 0.451970 0.381680 -0.425449
O13   O     O_3   0.052160 0.451990 0.441880 -0.352126
O14   O     O_3   0.501140 0.616030 0.412450 -0.375993
O15   O     O_3   0.138799 0.306412 0.380384 -0.575138
P5    P     P_3+3 0.033742 0.779686 0.439070 0.461802
O16   O     O_3   0.615020 0.608480 0.525380 -0.413645
O17   O     O_3   0.085020 0.662210 0.437090 -0.370695
O18   O     O_2   0.176140 0.822977 0.465179 -0.368091
O19   O     O_3   0.030665 0.805404 0.377651 -0.526023
Ba2   Ba    Ba6+2 0.328940 0.542910 0.476780 1.585162
P6    P     P_3+3 0.667693 0.394207 0.651816 0.542860
C10   C     C_3   0.704433 0.226993 0.663218 0.344811
H18   H     H_    0.588986 0.240450 0.683632 -0.054538
H19   H     H_    0.736381 0.084442 0.670097 0.075574
O20   O     O_3   0.574690 0.391440 0.474610 -0.403476
C11   C     C_3   0.493693 0.653983 0.627855 0.365501
H20   H     H_    0.390412 0.624299 0.609198 0.104124
H21   H     H_    0.608067 0.606070 0.620945 0.128839
C12   C     C_3   0.467884 0.670807 0.683955 -0.748344
H22   H     H_    0.346167 0.711198 0.691780 0.290421
H23   H     H_    0.476000 0.605905 0.699652 0.200524
H24   H     H_    0.562802 0.707604 0.702831 0.287726
P7    P     P_3+3 0.521936 0.719020 0.545439 0.474366
O21   O     O_2   0.341330 0.720570 0.525000 -0.313883
O22   O     O_3   0.504025 0.736165 0.610338 -0.544555
C13   C     C_3   0.908986 0.763619 0.350728 0.179614
H25   H     H_    0.951183 0.689643 0.343550 0.138203
H26   H     H_    0.792769 0.775865 0.371033 0.076773
C14   C     C_3   0.873913 0.800954 0.300604 -0.623196
H27   H     H_    0.775922 0.768468 0.280341 0.225907
H28   H     H_    0.984642 0.783847 0.277812 0.246881
P8    P     P_3+3 0.515880 0.599345 0.347255 0.443431
C15   C     C_3   0.413026 0.771627 0.338151 0.189755
O23   O     O_2   0.349648 0.579248 0.324231 -0.416438
O24   O     O_3   0.544963 0.701809 0.327125 -0.607238
H29   H     H_    0.296430 0.745464 0.338785 0.148390
H30   H     H_    0.497291 0.874090 0.299009 0.136831
C16   C     C_3   0.397867 0.832911 0.295780 -0.063400
H31   H     H_    0.411895 0.789415 0.259336 0.150001
C17   C     C_R   0.018433 0.424966 0.179875 0.527482
O25   O     O_2   0.053507 0.356983 0.201007 -0.574433
N1    N     N_R   0.934823 0.502900 0.205200 -0.166674
C18   C     C_R   0.893624 0.579750 0.181081 0.536265
C19   C     C_2   0.733663 0.519833 0.270960 -0.156158
C20   C     C_3   0.690543 0.512984 0.324616 0.166014
C21   C     C_1   0.981328 0.482440 0.343730 0.264585
C22   C     C_2   0.021627 0.482953 0.296635 -0.228876
C23   C     C_2   0.891729 0.503594 0.257199 0.134950
C24   C     C_R   0.021288 0.500658 0.104667 -0.066115
C25   C     C_R   0.061749 0.422761 0.129485 -0.066107
C26   C     C_R   0.145163 0.344091 0.103484 -0.065382
C27   C     C_R   0.937446 0.579819 0.130866 -0.065268
C28   C     C_2   0.836433 0.520953 0.359399 -0.440527
H32   H     H_    0.148289 0.468479 0.286304 0.167936
H33   H     H_    0.180255 0.283431 0.121653 0.181991
C29   C     C_2   0.335386 0.464214 0.639602 -0.462857
C30   C     C_R   0.177802 0.415017 0.975501 0.037182
C31   C     C_R   0.075826 0.578187 0.979000 0.039691
C32   C     C_R   0.147068 0.495584 0.951882 0.094419
C33   C     C_R   0.240819 0.333737 0.946143 -0.192240
C34   C     C_R   0.276346 0.332037 0.896108 -0.036937
C35   C     C_R   0.251419 0.411223 0.872749 -0.070852
C36   C     C_R   0.187475 0.493292 0.900508 -0.064215
C37   C     C_R   0.163625 0.572812 0.876846 -0.082918
C38   C     C_R   0.204963 0.569136 0.825923 0.611417
N2    N     N_R   0.263679 0.487384 0.798458 -0.157020
C39   C     C_R   0.287101 0.409018 0.821844 0.607137
C40   C     C_2   0.438335 0.437603 0.726866 -0.194180
C41   C     C_3   0.453682 0.407990 0.671684 0.053607
C42   C     C_1   0.199947 0.512977 0.658446 0.185050
C43   C     C_2   0.165927 0.517322 0.707611 0.302931
C44   C     C_2   0.295853 0.482384 0.744868 0.008438
O26   O     O_2   0.337620 0.336475 0.798196 -0.602202
C45   C     C_R   0.142993 0.417756 0.027167 0.042171
C46   C     C_R   0.064314 0.499251 0.053611 0.088269
C47   C     C_R   0.027950 0.579202 0.029528 0.038023
C48   C     C_R   0.184893 0.341487 0.053660 -0.195666
H34   H     H_    0.534240 0.410914 0.752243 0.199974
H35   H     H_    0.323687 0.267522 0.875603 0.179052
H36   H     H_    0.260932 0.269137 0.960302 0.136576
H37   H     H_    0.251668 0.278457 0.037276 0.136124
O27   O     O_2   0.819774 0.648430 0.203405 -0.598394
C49   C     C_R   0.898740 0.657455 0.106300 -0.061177
H38   H     H_    0.636722 0.531669 0.243050 0.150775
H39   H     H_    0.833423 0.719324 0.125262 0.180431
C50   C     C_R   0.055514 0.657081 0.954332 -0.192712
C51   C     C_R   0.098927 0.654342 0.904642 -0.045134
O28   O     O_2   0.188865 0.638770 0.806177 -0.544241
C52   C     C_R   0.943105 0.657389 0.056995 -0.191134
H40   H     H_    0.008461 0.722948 0.972676 0.135663
H41   H     H_    0.080312 0.716966 0.887877 0.180689
H42   H     H_    0.905822 0.719806 0.041139 0.136660
H43   H     H_    0.821852 0.555192 0.397149 0.167030
H44   H     H_    0.349401 0.448779 0.599514 0.174571
C53   C     C_R   0.751158 0.768532 0.487646 -0.482861
C54   C     C_R   0.839471 0.826889 0.469080 0.224169
C55   C     C_R   0.779272 0.919550 0.473099 -0.201125
C56   C     C_R   0.641336 0.956526 0.502134 0.050691
C57   C     C_R   0.572724 0.896456 0.528939 -0.196112
C58   C     C_R   0.617851 0.802211 0.517568 0.224311
C59   C     C_R   0.408264 0.087161 0.520000 -0.280668
C60   C     C_R   0.350529 0.179075 0.530322 0.204280
C61   C     C_R   0.586871 0.212906 0.493994 0.328973
C62   C     C_R   0.656564 0.121154 0.489791 -0.255274
C63   C     C_R   0.569912 0.055961 0.504613 0.072399
C64   C     C_R   0.439940 0.241932 0.517461 -0.466929
H45   H     H_    0.324319 0.041411 0.523957 0.177453
H46   H     H_    0.842763 0.961051 0.453683 0.144060
H47   H     H_    0.775021 0.102351 0.473684 0.165282
H48   H     H_    0.388957 0.312956 0.522098 0.168966
H49   H     H_    0.793243 0.696532 0.481449 0.173157
C65   C     C_2   0.807090 0.788642 0.650433 0.537247
H50   H     H_    0.696962 0.832905 0.641105 0.024927
O29   O     O_2   0.841276 0.781194 0.694356 -0.457168
C66   C     C_2   0.057973 0.886270 0.628281 0.923599
H51   H     H_    0.008887 0.957718 0.632850 -0.107949
O30   O     O_2   0.170751 0.857376 0.655472 -0.491831
N3    N     N_R   0.834986 0.152923 0.734603 0.271328
O31   O     O_R   0.784800 0.099127 0.762500 -0.340665
O32   O     O_R   0.922512 0.212386 0.754763 -0.314033
C67   C     C_2   0.421509 0.076818 0.704903 0.592341
H52   H     H_    0.459468 0.128620 0.732267 0.070566
O33   O     O_2   0.505520 0.002352 0.699113 -0.523117
C68   C     C_2   0.819516 0.901372 0.307119 0.806959
H53   H     H_    0.808684 0.938970 0.344161 0.032179
O34   O     O_2   0.785628 0.941634 0.270488 -0.518832
C69   C     C_2   0.445800 0.821728 0.388704 0.582152
H54   H     H_    0.449394 0.787242 0.421683 0.076080
O35   O     O_2   0.471436 0.899652 0.393462 -0.598646
N4    N     N_R   0.241208 0.892664 0.295207 0.255092
O36   O     O_R   0.196116 0.950062 0.333927 -0.345721
O37   O     O_R   0.158796 0.898898 0.253243 -0.351213
C70   C     C_2   0.232733 0.262662 0.682817 0.557655
H55   H     H_    0.324521 0.271901 0.711593 0.008058
O38   O     O_2   0.113454 0.320858 0.680340 -0.468622
N5    N     N_R   0.001961 0.539423 0.724519 0.274214
O39   O     O_R   0.950209 0.490111 0.754813 -0.344229
O40   O     O_R   0.917130 0.617607 0.718698 -0.303378
C71   C     C_2   0.477617 0.931462 0.573897 0.519417
H56   H     H_    0.515522 0.985547 0.599659 0.014785
O41   O     O_2   0.351300 0.904730 0.580696 -0.540856
C72   C     C_2   0.342730 0.265705 0.318495 0.579931
H57   H     H_    0.349387 0.329582 0.304909 -0.016394
O42   O     O_2   0.371059 0.196363 0.289731 -0.533744

loop_
_geom_bond_atom_site_label_1
_geom_bond_atom_site_label_2
_geom_bond_distance
_ccdc_geom_bond_type
C37   C51   1.401739 A    
O5    C6    1.404354 S    
C53   C58   1.393242 A    
C66   H51   1.084405 S    
O3    P6    1.734879 S    
C19   H38   1.085736 S    
C69   H54   1.080934 S    
C67   H52   1.084135 S    
C60   C64   1.383488 A    
C52   H42   1.076623 S    
C50   C51   1.397633 A    
C61   C62   1.405983 A    
P5    O17   1.751608 S    
C71   H56   1.084244 S    
C72   H57   1.084001 S    
C5    H9    1.108904 S    
C59   C63   1.415646 A    
P4    O13   1.537710 S    
O1    Ba1   2.795611 S    
O7    Ba1   2.852207 S    
C67   O33   1.220629 D    
C43   C44   1.516365 S    
P1    C42   1.872997 S    
C6    H10   1.107947 S    
O12   Ba2   2.796038 S    
C37   C38   1.423072 A    
C11   H21   1.106513 S    
C59   C60   1.391991 A    
C29   H44   1.084907 S    
C17   C25   1.416735 A    
N2    C39   1.390467 Am   
C18   O27   1.220976 D    
O2    Ba1   2.933220 S    
P1    O1    1.522706 D    
P4    O15   1.762365 S    
N2    C44   1.472144 S    
C12   H23   1.105788 S    
C40   C41   1.505200 S    
C42   C43   1.359694 D    
C47   C52   1.416204 A    
C8    H13   1.106485 S    
C13   H25   1.111656 S    
P7    O22   1.746662 S    
C14   C68   1.502174 S    
C20   C28   1.511433 S    
P3    O11   1.751766 S    
C15   C69   1.511894 S    
C59   H45   1.077970 S    
C4    H6    1.101985 S    
C24   C46   1.435108 A    
C18   C27   1.418494 A    
P8    C20   1.859879 S    
C6    C7    1.537819 S    
C15   C16   1.544309 S    
C40   C44   1.346363 D    
C65   O29   1.219025 D    
O3    Ba1   2.740514 S    
C2    C70   1.498484 S    
P6    C41   1.857142 S    
C11   C12   1.521914 S    
C43   N5    1.434050 S    
C21   C28   1.315847 D    
C66   O30   1.220599 D    
C4    O15   1.401752 S    
C68   O34   1.220390 D    
C69   O35   1.221508 D    
C33   C34   1.390558 A    
N1    C23   1.461468 S    
C38   O28   1.221813 D    
C50   H40   1.076646 S    
C56   C63   1.517599 S    
P1    Ba1   3.378591 S    
C35   C36   1.405767 A    
C5    H7    1.110756 S    
N4    O37   1.300735 A    
N5    O39   1.301945 A    
P5    O18   1.547411 D    
C71   O41   1.216397 D    
C32   C36   1.435396 A    
C55   C56   1.418456 A    
C29   C42   1.328074 D    
C62   C63   1.417000 A    
Ba1   O16   2.807242 S    
P1    O5    1.764717 S    
C8    C9    1.524354 S    
C56   C57   1.429004 A    
C9    H17   1.109454 S    
C70   O38   1.219458 D    
C19   C23   1.359859 D    
H1    C10   1.114393 S    
C30   C45   1.430083 A    
C14   H28   1.109600 S    
C19   C20   1.526119 S    
C2    H3    1.111843 S    
P5    O19   1.744335 S    
O14   Ba2   2.739809 S    
C11   H20   1.106982 S    
C3    C67   1.500463 S    
P8    O24   1.758388 S    
C62   H47   1.077516 S    
O14   P8    1.751800 S    
P1    O2    1.537724 S    
C7    H12   1.105221 S    
C12   H24   1.109426 S    
P2    O10   1.748192 S    
C49   C52   1.395852 A    
C70   H55   1.076529 S    
P3    O9    1.539714 D    
C6    C65   1.509847 S    
C38   N2    1.387940 Am   
O17   Ba2   2.755258 S    
C3    H4    1.108002 S    
C28   H43   1.086458 S    
O11   C2    1.410658 S    
C53   H49   1.082138 S    
C1    H19   1.109932 S    
N1    C18   1.386533 Am   
C15   O24   1.408400 S    
C65   H50   1.082009 S    
P8    O23   1.551305 D    
C51   H41   1.083480 S    
C30   C32   1.423211 A    
Ba1   O20   2.923827 S    
C17   O25   1.222522 D    
C17   N1    1.384814 Am   
Ba1   O13   2.756240 S    
C68   H53   1.086773 S    
O16   P7    1.754632 S    
P4    C21   1.833754 S    
P4    O12   1.522918 D    
O6    P6    1.747687 S    
O8    Ba1   2.754595 S    
C40   H34   1.086079 S    
Ba2   O20   2.806700 S    
C34   H35   1.083747 S    
C26   H33   1.083647 S    
C24   C25   1.410111 A    
C61   C64   1.385426 A    
Ba2   O21   2.852354 S    
N4    O36   1.300649 A    
C7    C66   1.506478 S    
C53   C54   1.387289 A    
C27   C49   1.401814 A    
O4    P6    1.537655 D    
C10   H18   1.107778 S    
C29   C41   1.505444 S    
C8    H14   1.108319 S    
C31   C50   1.417599 A    
P2    C61   1.824602 S    
C64   H48   1.082155 S    
C3    H5    1.107856 S    
C16   H31   1.112975 S    
C2    C3    1.539919 S    
N5    O40   1.296738 A    
O2    Ba2   2.756926 S    
C48   H37   1.076330 S    
C5    H8    1.111262 S    
C36   C37   1.409915 A    
C55   H46   1.077923 S    
C46   C47   1.423576 A    
C1    N3    1.460976 S    
C45   C48   1.416502 A    
N3    O31   1.300583 A    
C22   H32   1.084289 S    
P3    O8    1.759735 S    
C14   H27   1.109041 S    
O10   C8    1.392400 S    
P2    O20   1.575165 S    
C57   C58   1.411671 A    
C7    H11   1.104410 S    
C24   C27   1.408485 A    
C9    H16   1.106141 S    
P7    C58   1.843895 S    
P2    O7    1.518034 D    
O13   Ba2   2.934222 S    
C9    H15   1.110749 S    
C13   C14   1.524645 S    
P5    C54   1.839972 S    
C4    C72   1.513737 S    
C25   C26   1.399639 A    
C72   O42   1.221802 D    
C45   C46   1.421057 A    
C1    H2    1.100657 S    
C57   C71   1.473776 S    
O19   C13   1.407863 S    
C4    C5    1.531348 S    
C12   H22   1.109468 S    
C15   H29   1.108684 S    
C54   C55   1.400838 A    
C39   O26   1.220119 D    
H30   C16   1.109019 S    
P3    C60   1.821740 S    
C11   O22   1.398309 S    
O16   Ba2   2.922844 S    
C30   C33   1.414548 A    
C31   C47   1.434588 A    
C21   C22   1.329473 D    
P2    Ba1   3.406843 S    
C13   H26   1.112302 S    
P7    O21   1.575367 D    
P4    Ba2   3.379209 S    
C34   C35   1.400836 A    
C49   H39   1.083600 S    
C16   N4    1.460874 S    
C35   C39   1.412804 A    
C31   C32   1.421258 A    
C1    C10   1.524232 S    
C26   C48   1.392574 A    
O6    C10   1.409477 S    
C22   C23   1.503675 S    
C33   H36   1.076303 S    
N3    O32   1.301196 A    
Ba1   Ba2   4.578899 S    
