data_mof_unit_36448.cif
_audit_creation_date              2013-03-05T15:40:17-0500
_audit_creation_method            fapswitch 2.2
_symmetry_space_group_name_H-M    P1
_symmetry_Int_Tables_number       1
_space_group_crystal_system       triclinic
_cell_length_a                    10.793466
_cell_length_b                    8.762885
_cell_length_c                    7.455869
_cell_angle_alpha                 102.96415
_cell_angle_beta                  94.045037
_cell_angle_gamma                 93.82936
_cell_volume                      683.02362609

loop_
_atom_site_label
_atom_site_type_symbol
_atom_site_description
_atom_site_fract_x
_atom_site_fract_y
_atom_site_fract_z
_atom_type_partial_charge
O1    O     O_R   0.509050 0.286130 0.619770 -0.522747
O2    O     O_R   0.485540 0.256780 0.308360 -0.524083
C1    C     C_R   0.494578 0.200264 0.453525 0.809347
O3    O     O_R   0.331410 0.514680 0.655740 -0.540664
O4    O     O_R   0.307900 0.485330 0.344330 -0.565159
C2    C     C_R   0.262867 0.504608 0.503515 0.745235
Cu1   Cu    Cu3+1 0.513920 0.517380 0.684380 1.145500
Cu2   Cu    Cu3+1 0.486080 0.482620 0.315620 1.143372
O5    O     O_R   0.514460 0.743220 0.691640 -0.522650
O6    O     O_R   0.490950 0.713870 0.380230 -0.586365
O7    O     O_R   0.692100 0.514670 0.655670 -0.594371
O8    O     O_R   0.668590 0.485320 0.344260 -0.603160
C3    C     C_R   0.496575 0.798802 0.545747 0.850454
C4    C     C_R   0.737808 0.511620 0.499303 0.838336
H1    H     H_    0.090200 0.321639 0.272501 0.170166
C5    C     C_R   0.156732 0.743266 0.781802 -0.106652
H2    H     H_    0.256577 0.743682 0.797666 0.202269
C6    C     C_R   0.105916 0.859094 0.906966 -0.131571
H3    H     H_    0.165766 0.939280 0.015141 0.202236
C7    C     C_R   0.980540 0.880749 0.884123 -0.166320
H4    H     H_    0.945922 0.981695 0.972385 0.192170
C8    C     C_R   0.903453 0.784174 0.737458 0.340068
C9    C     C_R   0.949860 0.648967 0.626306 -0.015085
C10   C     C_R   0.080149 0.634725 0.641450 0.025371
C11   C     C_R   0.129944 0.516482 0.510311 -0.047566
C12   C     C_R   0.052128 0.411613 0.373272 -0.148373
H5    H     H_    0.866275 0.327509 0.267658 0.181517
C13   C     C_R   0.924740 0.416455 0.368574 -0.180256
C14   C     C_R   0.872518 0.530320 0.496209 -0.059407
C15   C     C_2   0.498751 0.033872 0.426418 0.053882
C16   C     C_2   0.480175 0.962958 0.566929 0.059707
N1    N     N_2   0.465100 0.456430 0.038520 0.210674
N2    N     N_2   0.534900 0.543570 0.961480 -0.114036
H6    H     H_    0.606767 0.610328 0.047950 0.213486
N3    N     N_R   0.789451 0.842635 0.682907 0.085965
O9    O     O_R   0.765685 0.845300 0.510153 -0.387894
O10   O     O_R   0.732350 0.934466 0.806723 -0.312339
N4    N     N_R   0.531080 0.950944 0.249070 0.151759
O11   O     O_R   0.442868 0.881528 0.123585 -0.332883
O12   O     O_R   0.643216 0.973855 0.201382 -0.284798
N5    N     N_R   0.432129 0.042832 0.733936 0.136584
O13   O     O_R   0.504077 0.083860 0.887061 -0.202416
O14   O     O_R   0.315021 0.069606 0.733318 -0.343897
F1    F     F_    0.365797 0.378463 0.932819 -0.465406

loop_
_geom_bond_atom_site_label_1
_geom_bond_atom_site_label_2
_geom_bond_distance
_ccdc_geom_bond_type
O4    Cu2   1.951128 S    
Cu1   O7    1.951129 S    
C9    C10   1.418900 A    
C1    C15   1.430617 S    
N5    O14   1.300779 A    
N5    O13   1.299700 A    
C12   C13   1.376659 A    
N3    O9    1.301178 A    
Cu2   O8    1.964406 S    
N1    N2    1.289035 D    
N2    H6    1.029164 S    
N1    F1    1.333459 S    
Cu1   Cu2   2.690330 S    
C5    C10   1.417518 A    
C10   C11   1.418604 A    
N4    O12   1.300740 A    
C8    N3    1.431434 S    
Cu1   N2    2.021560 S    
O4    C2    1.294540 A    
O3    Cu1   1.964405 S    
C9    C14   1.426902 A    
O3    C2    1.292732 A    
C13   C14   1.394145 A    
N3    O10   1.301077 A    
C7    C8    1.402367 A    
O2    C1    1.287747 A    
C6    C7    1.382948 A    
C15   C16   1.352397 D    
O7    C4    1.293152 A    
C2    C11   1.448988 S    
C4    C14   1.454666 S    
Cu2   N1    2.021559 S    
N4    O11   1.301341 A    
C7    H4    1.082958 S    
C15   N4    1.437396 S    
C5    C6    1.386900 A    
C6    H3    1.083113 S    
H5    C13   1.084453 S    
Cu1   O5    1.967178 S    
O5    C3    1.295513 A    
C8    C9    1.427844 A    
H1    C12   1.084455 S    
C16   N5    1.434523 S    
C11   C12   1.395864 A    
O1    Cu1   1.971141 S    
C3    C16   1.435800 S    
Cu2   O6    1.971140 S    
O2    Cu2   1.967180 S    
O8    C4    1.297383 A    
C5    H2    1.075490 S    
O1    C1    1.290521 A    
O6    C3    1.285238 A    
