data_mof_unit_21836.cif
_audit_creation_date              2012-12-10T18:04:41-0500
_audit_creation_method            fapswitch 2.2
_symmetry_space_group_name_H-M    P1
_symmetry_Int_Tables_number       1
_space_group_crystal_system       triclinic
_cell_length_a                    19.491609
_cell_length_b                    17.832205
_cell_length_c                    12.68421
_cell_angle_alpha                 90.179073
_cell_angle_beta                  99.310076
_cell_angle_gamma                 90.020931
_cell_volume                      4350.65874633

loop_
_atom_site_label
_atom_site_type_symbol
_atom_type_description
_atom_site_fract_x
_atom_site_fract_y
_atom_site_fract_z
_atom_type_partial_charge
C1    C     C_R   0.410566 0.101752 0.443744 0.847546
C2    C     C_R   0.769509 0.770602 0.643934 0.168830
C3    C     C_R   0.207487 0.798386 0.598878 0.177033
C4    C     C_R   0.269507 0.270599 0.643935 0.168832
C5    C     C_R   0.231714 0.870394 0.585683 -0.250417
C6    C     C_R   0.338412 0.247723 0.662929 -0.252582
C7    C     C_R   0.731715 0.370394 0.585685 -0.250417
C8    C     C_R   0.838414 0.747725 0.662927 -0.252582
C9    C     C_R   0.277892 0.882483 0.515392 -0.190921
C10   C     C_R   0.367618 0.216296 0.580916 -0.181682
C11   C     C_R   0.777892 0.382483 0.515393 -0.190921
C12   C     C_R   0.409894 0.898983 0.443174 0.859823
C13   C     C_R   0.867619 0.716298 0.580914 -0.181683
C14   C     C_R   0.690964 0.172586 0.530938 -0.232023
C15   C     C_R   0.668224 0.801975 0.516768 -0.235939
C16   C     C_R   0.190965 0.672586 0.530939 -0.232024
C17   C     C_R   0.168223 0.301974 0.516767 -0.235942
C18   C     C_R   0.621082 0.218824 0.658402 -0.200858
C19   C     C_R   0.679003 0.846408 0.699087 -0.203169
C20   C     C_R   0.121081 0.718825 0.658400 -0.200858
C21   C     C_R   0.179001 0.346406 0.699088 -0.203166
C22   C     C_R   0.365760 0.833768 0.415366 -0.107524
C23   C     C_R   0.910566 0.601752 0.443744 0.847546
C24   C     C_R   0.353853 0.153249 0.407153 -0.104172
C25   C     C_R   0.865760 0.333768 0.415366 -0.107523
C26   C     C_R   0.853852 0.653248 0.407153 -0.104170
C27   C     C_R   0.642167 0.007256 0.129735 -0.294780
C28   C     C_R   0.142167 0.507258 0.129735 -0.294781
C29   C     C_R   0.378766 0.008112 0.760561 0.038830
C30   C     C_R   0.878766 0.508112 0.760561 0.038830
C31   C     C_R   0.353586 0.024867 0.853934 -0.275996
C32   C     C_R   0.853586 0.524866 0.853934 -0.275995
C33   C     C_R   0.590152 0.899419 0.557004 0.861440
C34   C     C_R   0.909894 0.398983 0.443174 0.859822
C35   C     C_R   0.589379 0.101529 0.556530 0.848654
C36   C     C_R   0.090152 0.399419 0.557004 0.861441
C37   C     C_R   0.089379 0.601529 0.556530 0.848654
C38   C     C_R   0.400052 0.029705 0.949094 -0.168148
C39   C     C_R   0.900052 0.529705 0.949094 -0.168149
C40   C     C_R   0.471425 0.013585 0.951667 0.036854
C41   C     C_R   0.971425 0.513586 0.951667 0.036854
C42   C     C_R   0.494901 0.004537 0.852986 0.219391
C43   C     C_R   0.994901 0.504537 0.852986 0.219391
C44   C     C_R   0.520728 0.008864 0.046799 -0.030798
C45   C     C_R   0.730042 0.237988 0.539617 0.076596
C46   C     C_R   0.020728 0.508865 0.046798 -0.030798
C47   C     C_R   0.592413 0.009599 0.038923 0.091395
C48   C     C_R   0.092413 0.509600 0.038923 0.091395
C49   C     C_R   0.614297 0.008512 0.939915 -0.262674
C50   C     C_R   0.114297 0.508513 0.939915 -0.262674
C51   C     C_R   0.565924 0.003125 0.848177 -0.207828
C52   C     C_R   0.065924 0.503125 0.848177 -0.207829
C53   C     C_R   0.502151 0.998860 0.148925 0.236464
C54   C     C_R   0.002151 0.498860 0.148925 0.236464
C55   C     C_R   0.621998 0.000878 0.229182 0.327781
C56   C     C_R   0.729438 0.761204 0.540588 0.072025
C57   C     C_R   0.121998 0.500878 0.229181 0.327780
C58   C     C_R   0.656089 0.287041 0.662874 -0.206922
C59   C     C_R   0.742114 0.809173 0.724149 -0.209505
C60   C     C_R   0.156087 0.787042 0.662872 -0.206922
C61   C     C_R   0.242112 0.309170 0.724150 -0.209505
C62   C     C_R   0.636227 0.163474 0.587271 -0.057733
C63   C     C_R   0.644534 0.846089 0.593436 -0.053924
C64   C     C_R   0.136227 0.663474 0.587271 -0.057732
C65   C     C_R   0.144533 0.346088 0.593436 -0.053924
C66   C     C_R   0.392042 0.775172 0.360333 -0.235077
C67   C     C_R   0.230042 0.737988 0.539617 0.076595
C68   C     C_R   0.316685 0.143237 0.304238 -0.237588
C69   C     C_R   0.892042 0.275172 0.360331 -0.235078
C70   C     C_R   0.816683 0.643233 0.304241 -0.237588
C71   C     C_R   0.369046 0.702563 0.370379 -0.211779
C72   C     C_R   0.247539 0.164353 0.281876 -0.213121
C73   C     C_R   0.869045 0.202564 0.370375 -0.211778
C74   C     C_R   0.747536 0.664348 0.281881 -0.213124
C75   C     C_R   0.320421 0.686938 0.437123 0.221816
C76   C     C_R   0.214618 0.195549 0.361835 0.211086
C77   C     C_R   0.820419 0.186938 0.437119 0.221816
C78   C     C_R   0.229437 0.261203 0.540587 0.072027
C79   C     C_R   0.714616 0.695545 0.361841 0.211085
C80   C     C_R   0.285658 0.747621 0.481268 0.042319
C81   C     C_R   0.255566 0.218674 0.461024 0.039068
C82   C     C_R   0.785658 0.247621 0.481266 0.042315
C83   C     C_R   0.755566 0.718673 0.461026 0.039072
C84   C     C_R   0.308912 0.821707 0.468796 0.055152
C85   C     C_R   0.326234 0.197102 0.482429 0.048791
C86   C     C_R   0.808912 0.321707 0.468796 0.055152
C87   C     C_R   0.826235 0.697103 0.482429 0.048791
C88   C     C_3   0.418914 0.897727 0.135798 -0.756025
C89   C     C_R   0.707488 0.298385 0.598880 0.177033
C90   C     C_3   0.918914 0.397727 0.135798 -0.756024
C91   C     C_3   0.849866 0.092808 0.573385 -0.798432
C92   C     C_3   0.610147 0.637421 0.402935 -0.799075
C93   C     C_3   0.349866 0.592811 0.573394 -0.798445
C94   C     C_3   0.110144 0.137423 0.402915 -0.799065
C95   C     C_3   0.720094 0.928079 0.319070 -0.819058
C96   C     C_3   0.220091 0.428076 0.319069 -0.819045
H1    H     H_    0.578217 0.212144 0.702326 0.155733
H2    H     H_    0.879368 0.549022 0.018198 0.167566
H3    H     H_    0.298831 0.036072 0.852151 0.149747
H4    H     H_    0.798830 0.536071 0.852151 0.149746
H5    H     H_    0.585360 0.998912 0.774374 0.208643
H6    H     H_    0.085360 0.498913 0.774374 0.208644
H7    H     H_    0.640023 0.332237 0.710728 0.135934
H8    H     H_    0.771563 0.814770 0.803927 0.136056
H9    H     H_    0.140020 0.832238 0.710724 0.135934
H10   H     H_    0.271561 0.314765 0.803929 0.136055
H11   H     H_    0.697523 0.131180 0.471519 0.188229
H12   H     H_    0.660608 0.880541 0.759508 0.151722
H13   H     H_    0.641720 0.806624 0.435917 0.192346
H14   H     H_    0.197525 0.631179 0.471522 0.188228
H15   H     H_    0.141718 0.306623 0.435916 0.192345
H16   H     H_    0.290828 0.940096 0.500237 0.151065
H17   H     H_    0.423032 0.205665 0.596103 0.159928
H18   H     H_    0.790829 0.440096 0.500239 0.151065
H19   H     H_    0.923033 0.705666 0.596100 0.159927
H20   H     H_    0.669114 0.008146 0.933495 0.150028
H21   H     H_    0.169113 0.508147 0.933495 0.150028
H22   H     H_    0.414022 0.997467 0.222903 0.269354
H23   H     H_    0.078215 0.712145 0.702322 0.155732
H24   H     H_    0.366210 0.883785 0.152568 0.234968
H25   H     H_    0.457934 0.861827 0.185282 0.244229
H26   H     H_    0.420366 0.885572 0.050310 0.243882
H27   H     H_    0.914022 0.497467 0.222902 0.269354
H28   H     H_    0.866210 0.383784 0.152569 0.234968
H29   H     H_    0.957935 0.361827 0.185281 0.244228
H30   H     H_    0.920366 0.385572 0.050310 0.243881
H31   H     H_    0.211985 0.917969 0.624961 0.139275
H32   H     H_    0.370942 0.258272 0.739277 0.146543
H33   H     H_    0.711987 0.417968 0.624964 0.139275
H34   H     H_    0.160606 0.380539 0.759510 0.151722
H35   H     H_    0.870945 0.758275 0.739274 0.146543
H36   H     H_    0.436528 0.783565 0.320649 0.165022
H37   H     H_    0.338177 0.110902 0.244930 0.155436
H38   H     H_    0.936528 0.283566 0.320647 0.165022
H39   H     H_    0.838174 0.610897 0.244933 0.155434
H40   H     H_    0.822702 0.071969 0.411233 0.233983
H41   H     H_    0.838459 0.033875 0.592744 0.239435
H42   H     H_    0.832509 0.129857 0.634497 0.256325
H43   H     H_    0.906875 0.099142 0.576304 0.242254
H44   H     H_    0.617561 0.697740 0.265828 0.219547
H45   H     H_    0.696926 0.008915 0.123222 0.157144
H46   H     H_    0.552733 0.643944 0.389693 0.236714
H47   H     H_    0.629333 0.642102 0.490047 0.254997
H48   H     H_    0.623148 0.581007 0.374341 0.240741
H49   H     H_    0.322708 0.571969 0.411244 0.233983
H50   H     H_    0.338464 0.533878 0.592754 0.239435
H51   H     H_    0.332504 0.629858 0.634503 0.256327
H52   H     H_    0.406874 0.599151 0.576318 0.242258
H53   H     H_    0.117564 0.197751 0.265816 0.219544
H54   H     H_    0.052730 0.143948 0.389671 0.236712
H55   H     H_    0.129329 0.142098 0.490029 0.254994
H56   H     H_    0.196926 0.508917 0.123222 0.157143
H57   H     H_    0.123144 0.081010 0.374314 0.240739
H58   H     H_    0.394782 0.657260 0.335207 0.139221
H59   H     H_    0.217604 0.148961 0.205331 0.140555
H60   H     H_    0.894780 0.157261 0.335202 0.139220
H61   H     H_    0.717600 0.648953 0.205338 0.140556
H62   H     H_    0.662747 0.003524 0.393131 0.285992
H63   H     H_    0.754882 0.923376 0.397332 0.243051
H64   H     H_    0.753396 0.933679 0.256424 0.238460
H65   H     H_    0.688576 0.876079 0.304700 0.248743
H66   H     H_    0.162748 0.503525 0.393130 0.285990
H67   H     H_    0.343565 0.006484 0.685363 0.138515
H68   H     H_    0.254883 0.423377 0.397329 0.243050
H69   H     H_    0.253389 0.433671 0.256416 0.238459
H70   H     H_    0.188571 0.376077 0.304708 0.248741
H71   H     H_    0.843565 0.506483 0.685363 0.138515
H72   H     H_    0.379368 0.049023 0.018199 0.167565
N1    N     N_R   0.552340 0.000000 0.237260 -0.158278
N2    N     N_2   0.140527 0.195086 0.344948 -0.334505
N3    N     N_2   0.675269 0.992859 0.319756 -0.308117
N4    N     N_2   0.175269 0.492858 0.319756 -0.308117
N5    N     N_R   0.052340 0.500000 0.237260 -0.158277
N6    N     N_R   0.448170 1.000000 0.762060 -0.135030
N7    N     N_R   0.948170 0.500000 0.762060 -0.135029
N8    N     N_2   0.433804 0.976127 0.159099 -0.324080
N9    N     N_2   0.933804 0.476126 0.159099 -0.324080
N10   N     N_2   0.813595 0.110832 0.467823 -0.330478
N11   N     N_2   0.640526 0.695080 0.344959 -0.334505
N12   N     N_2   0.313598 0.610833 0.467831 -0.330479
O1    O     O_R   0.448200 0.076800 0.373930 -0.630470
O2    O     O_R   0.585240 0.076800 0.457600 -0.637774
O3    O     O_R   0.085240 0.423200 0.457600 -0.625519
O4    O     O_R   0.085240 0.576800 0.457600 -0.637772
O5    O     O_R   0.551780 0.923190 0.626070 -0.629344
O6    O     O_R   0.551780 0.076810 0.626070 -0.636309
O7    O     O_R   0.051780 0.423190 0.626070 -0.629345
O8    O     O_R   0.051780 0.576810 0.626070 -0.636308
O9    O     O_R   0.448200 0.923200 0.373930 -0.618800
O10   O     O_R   0.948200 0.576800 0.373930 -0.630470
O11   O     O_R   0.948200 0.423200 0.373930 -0.618800
O12   O     O_R   0.414750 0.076790 0.542400 -0.618167
O13   O     O_R   0.414750 0.923210 0.542400 -0.604057
O14   O     O_R   0.914750 0.576790 0.542400 -0.618166
O15   O     O_R   0.914750 0.423210 0.542400 -0.604058
O16   O     O_R   0.585240 0.923200 0.457600 -0.625518
Zn1   Zn    Zn3+2 0.522330 0.000000 0.387520 0.918750
Zn2   Zn    Zn3+2 0.022330 0.500000 0.387520 0.918750
Zn3   Zn    Zn3+2 0.477660 0.000000 0.612480 0.927653
Zn4   Zn    Zn3+2 0.977660 0.500000 0.612480 0.927653

loop_
_geom_bond_atom_site_label_1
_geom_bond_atom_site_label_2
_ccdc_geom_bond_type
C34   O15   A    
C83   C87   A    
C13   C87   A    
C10   C85   A    
C69   H38   S    
C12   C22   S    
C50   H21   S    
C12   O13   A    
C15   H13   S    
C45   C82   A    
O11   Zn2   S    
C29   N6    A    
C72   C76   A    
O1    Zn1   S    
C16   H14   S    
C47   C49   A    
C28   C57   A    
C35   O2    A    
C38   H72   S    
C12   O9    A    
C52   H6    S    
N6    Zn3   S    
C8    C13   A    
C95   H63   S    
C59   H8    S    
C54   N5    A    
C68   H37   S    
C38   C40   A    
C30   H71   S    
C95   H65   S    
C27   C55   A    
H62   N3    S    
C23   C26   S    
C37   O8    A    
O8    Zn4   S    
C11   C86   A    
O9    Zn1   S    
C14   C62   A    
C91   N10   S    
H40   N10   S    
H44   N11   S    
C73   H60   S    
C93   H52   S    
C88   H26   S    
C32   C39   A    
C92   H47   S    
C11   H18   S    
C29   H67   S    
C22   C66   A    
C7    C89   A    
C91   H41   S    
C43   N7    A    
C44   C53   A    
C18   C58   A    
O14   Zn4   S    
C33   O16   A    
C19   C63   A    
C26   C87   A    
C49   C51   A    
C70   C74   A    
C50   C52   A    
C41   C46   A    
C69   C73   A    
C18   H1    S    
C31   H3    S    
C20   C60   A    
C92   H46   S    
C24   C85   A    
C21   C61   A    
C44   C47   A    
C80   C84   A    
C42   C51   A    
C57   N4    S    
C19   H12   S    
C9    H16   S    
C40   C42   A    
C90   N9    S    
H22   N8    S    
C72   H59   S    
C90   H29   S    
C41   C43   A    
C46   C54   A    
O2    Zn1   S    
C17   H15   S    
C55   N3    S    
C93   N12   S    
C49   H20   S    
C14   C45   A    
C66   H36   S    
C43   C52   A    
C46   C48   A    
O3    Zn2   S    
H53   N2    S    
C30   C32   A    
C94   H57   S    
C39   C41   A    
C42   N6    A    
C36   O3    A    
C1    O1    A    
C2    C59   A    
C18   C62   A    
C39   H2    S    
H27   N9    S    
C19   C59   A    
C94   H55   S    
O13   Zn3   S    
C71   H58   S    
C4    C61   A    
C32   H4    S    
C68   C72   A    
C22   C84   A    
C20   C64   A    
C7    C11   A    
C4    C78   A    
C61   H10   S    
C92   N11   S    
C91   H42   S    
C66   C71   A    
C33   C63   S    
C5    H31   S    
C8    H35   S    
C90   H30   S    
H66   N4    S    
C93   H50   S    
C16   C67   A    
O5    Zn3   S    
C76   N2    S    
C75   N12   S    
C13   H19   S    
C10   H17   S    
C2    C56   A    
C91   H43   S    
C4    C6    A    
C14   H11   S    
C28   H56   S    
O4    Zn2   S    
C74   C79   A    
C70   H39   S    
C26   C70   A    
C57   N5    A    
O6    Zn3   S    
C88   H24   S    
C95   H64   S    
C21   H34   S    
C30   N7    A    
C37   C64   S    
C45   C89   A    
O10   Zn2   S    
C56   C83   A    
N1    Zn1   S    
O15   Zn4   S    
C75   C80   A    
C27   C47   A    
C34   O11   A    
C73   C77   A    
C74   H61   S    
C21   C65   A    
N5    Zn2   S    
C36   C65   S    
C90   H28   S    
O12   Zn3   S    
C2    C8    A    
C67   C80   A    
C5    C9    A    
O16   Zn1   S    
C3    C5    A    
C76   C81   A    
C6    C10   A    
C31   C38   A    
C53   N1    A    
C51   H5    S    
C25   C34   S    
C17   C65   A    
C77   N10   S    
C88   N8    S    
C54   N9    S    
O7    Zn4   S    
C36   O7    A    
C15   C56   A    
C6    H32   S    
C29   C31   A    
C82   C86   A    
C94   N2    S    
C71   C75   A    
C37   O4    A    
C78   C81   A    
C25   C86   A    
C3    C67   A    
C77   C82   A    
C35   O6    A    
C23   O14   A    
C48   C50   A    
C17   C78   A    
C27   H45   S    
C28   C48   A    
C93   H51   S    
C35   C62   S    
C96   H70   S    
C20   H23   S    
C92   H48   S    
C58   C89   A    
N7    Zn4   S    
C7    H33   S    
C24   C68   A    
C9    C84   A    
C79   C83   A    
C1    O12   A    
C96   H68   S    
C94   H54   S    
C40   C44   A    
C79   N11   S    
C25   C69   A    
C1    C24   S    
C96   N4    S    
C15   C63   A    
C96   H69   S    
C33   O5    A    
C58   H7    S    
C16   C64   A    
C3    C60   A    
C95   N3    S    
C55   N1    A    
C23   O10   A    
C81   C85   A    
C60   H9    S    
C88   H25   S    
C53   N8    S    
H49   N12   S    
