data_mof_unit_25495.cif
_audit_creation_date              2012-12-10T17:23:08-0500
_audit_creation_method            fapswitch 2.2
_symmetry_space_group_name_H-M    P1
_symmetry_Int_Tables_number       1
_space_group_crystal_system       triclinic
_cell_length_a                    15.878119
_cell_length_b                    10.798217
_cell_length_c                    9.688823
_cell_angle_alpha                 91.156044
_cell_angle_beta                  89.702204
_cell_angle_gamma                 94.059798
_cell_volume                      1656.68322053

loop_
_atom_site_label
_atom_site_type_symbol
_atom_type_description
_atom_site_fract_x
_atom_site_fract_y
_atom_site_fract_z
_atom_type_partial_charge
C1    C     C_R   0.499330 0.263051 0.498485 0.966858
C2    C     C_3   0.083796 0.501175 0.498306 -0.440396
C3    C     C_3   0.976930 0.604550 0.561333 0.576900
C4    C     C_3   0.916366 0.501893 0.496728 -0.449048
C5    C     C_3   0.033681 0.601401 0.431536 0.225544
C6    C     C_3   0.972748 0.498454 0.366799 0.222947
C7    C     C_1   0.175230 0.499699 0.499619 0.327444
C8    C     C_1   0.824823 0.501843 0.497697 0.340102
C9    C     C_R   0.337846 0.115172 0.491885 0.523442
C10   C     C_R   0.261619 0.047053 0.516572 0.261366
C11   C     C_R   0.261695 0.926106 0.562366 0.569852
C12   C     C_R   0.340217 0.499176 0.500114 0.898662
C13   C     C_R   0.337644 0.869544 0.575034 0.185757
C14   C     C_R   0.414735 0.930523 0.528687 -0.226091
C15   C     C_R   0.415739 0.059355 0.503101 -0.152610
C16   C     C_R   0.494660 0.128771 0.494671 -0.179150
C17   C     C_R   0.570490 0.070091 0.497684 0.234272
C18   C     C_R   0.568583 0.941900 0.503912 0.689217
C19   C     C_R   0.491555 0.871171 0.512331 -0.186552
C20   C     C_R   0.643179 0.613371 0.138208 0.230262
C21   C     C_R   0.718186 0.623391 0.062453 0.473060
C22   C     C_R   0.713214 0.639350 0.922121 0.483969
C23   C     C_R   0.494520 0.736633 0.502642 0.942925
C24   C     C_R   0.634860 0.627864 0.859166 0.499672
C25   C     C_R   0.565051 0.564788 0.925866 -0.123455
C26   C     C_R   0.566932 0.561886 0.074469 -0.090756
C27   C     C_R   0.440715 0.431873 0.072481 0.421686
C28   C     C_R   0.441030 0.431326 0.925181 0.436178
C29   C     C_R   0.659756 0.500425 0.499694 0.881869
C30   C     C_3   0.966666 0.402094 0.563216 0.486405
C31   C     C_3   0.023210 0.398701 0.433733 0.541736
C32   C     C_1   0.250626 0.499039 0.500233 0.039138
C33   C     C_1   0.749353 0.501305 0.498733 0.011339
C34   C     C_3   0.027344 0.504670 0.627827 0.502539
Cu1   Cu    Cu3+1 0.499990 0.499990 0.640660 1.146959
Cu2   Cu    Cu3+1 0.500010 0.500010 0.359340 1.118928
N1    N     N_R   0.500800 0.501210 0.147910 -0.214616
N2    N     N_R   0.500830 0.501290 0.852040 -0.209265
O1    O     O_R   0.499990 0.319640 0.618810 -0.557050
O2    O     O_R   0.500000 0.319660 0.381240 -0.529370
O3    O     O_R   0.379070 0.499980 0.618770 -0.510312
O4    O     O_R   0.379080 0.500000 0.381190 -0.541159
O5    O     O_R   0.500000 0.680340 0.618760 -0.471621
O6    O     O_R   0.500010 0.680360 0.381190 -0.550054
O7    O     O_R   0.620920 0.500000 0.618810 -0.554350
O8    O     O_R   0.620930 0.500020 0.381230 -0.571181
F1    F     F_    0.046778 0.292452 0.366523 -0.465473
F2    F     F_    0.188111 0.866236 0.604197 -0.497293
Cl1   Cl    Cl    0.334599 0.747332 0.691715 -0.468607
F3    F     F_    0.642546 0.886236 0.509149 -0.508857
Cl2   Cl    Cl    0.366083 0.331108 0.156858 -0.371709
Cl3   Cl    Cl    0.645900 0.736456 0.258280 -0.379878
F4    F     F_    0.792523 0.656358 0.126529 -0.477775
F5    F     F_    0.782121 0.685064 0.851201 -0.465969
F6    F     F_    0.627935 0.694238 0.744300 -0.543337
Cl4   Cl    Cl    0.366163 0.331020 0.836898 -0.419906
F7    F     F_    0.932047 0.299002 0.630957 -0.470162
Cl5   Cl    Cl    0.937725 0.490694 0.192406 -0.215444
Cl6   Cl    Cl    0.078164 0.734592 0.344766 -0.246383
F8    F     F_    0.952630 0.710873 0.627763 -0.433784
F9    F     F_    0.055667 0.508031 0.762635 -0.467719
Cl7   Cl    Cl    0.669435 0.155712 0.492582 -0.426617
F10   F     F_    0.334429 0.234844 0.454983 -0.620339
Cl8   Cl    Cl    0.165823 0.118005 0.504262 -0.202744

loop_
_geom_bond_atom_site_label_1
_geom_bond_atom_site_label_2
_ccdc_geom_bond_type
Cu1   O1    S    
C24   C25   A    
C26   N1    A    
Cu2   O8    S    
C12   O3    A    
C13   C14   A    
C17   Cl7   S    
Cu1   O5    S    
C9    C10   A    
C6    Cl5   S    
C19   C23   S    
C2    C7    S    
C3    C34   S    
C28   N2    A    
C29   O8    A    
C4    C8    S    
C3    F8    S    
C2    C34   S    
C17   C18   A    
C28   Cl4   S    
C4    C30   S    
C22   F5    S    
C1    C16   S    
C31   F1    S    
C21   C22   A    
C12   C32   S    
C24   F6    S    
C21   F4    S    
C11   C13   A    
C11   F2    S    
C5    C6    S    
C20   C26   A    
C27   N1    A    
C13   Cl1   S    
C5    Cl6   S    
C4    C6    S    
Cu2   N1    S    
C27   Cl2   S    
C6    C31   S    
C8    C33   T    
C9    C15   A    
C30   C31   S    
Cu1   O3    S    
C22   C24   A    
Cu2   O6    S    
C2    C5    S    
C10   C11   A    
C1    O1    A    
C3    C4    S    
Cu1   O7    S    
C30   F7    S    
C29   C33   S    
C25   N2    A    
Cu1   N2    S    
C23   O5    A    
C20   C21   A    
C18   F3    S    
C20   Cl3   S    
C18   C19   A    
C27   C28   A    
C30   C34   S    
C14   C15   A    
C16   C17   A    
Cu2   O2    S    
C12   O4    A    
C7    C32   T    
C1    O2    A    
C25   C26   A    
C9    F10   S    
Cu2   O4    S    
C14   C19   A    
C34   F9    S    
C10   Cl8   S    
C23   O6    A    
C15   C16   A    
C29   O7    A    
C2    C31   S    
C3    C5    S    
Cu1   Cu2   S    
