data_mof_unit_27119.cif
_audit_creation_date              2012-12-10T17:01:27-0500
_audit_creation_method            fapswitch 2.2
_symmetry_space_group_name_H-M    P1
_symmetry_Int_Tables_number       1
_space_group_crystal_system       triclinic
_cell_length_a                    12.862951
_cell_length_b                    10.752412
_cell_length_c                    9.98855
_cell_angle_alpha                 89.154537
_cell_angle_beta                  97.290503
_cell_angle_gamma                 90.147844
_cell_volume                      1370.17562724

loop_
_atom_site_label
_atom_site_type_symbol
_atom_type_description
_atom_site_fract_x
_atom_site_fract_y
_atom_site_fract_z
_atom_type_partial_charge
C1    C     C_R   0.496841 0.262707 0.500266 0.940866
C2    C     C_2   0.482441 0.131951 0.499688 -0.371964
C3    C     C_2   0.560922 0.570963 0.933635 -0.125046
C4    C     C_R   0.298413 0.494031 0.473780 0.875889
C5    C     C_2   0.566653 0.563315 0.084871 -0.109093
C6    C     C_R   0.497211 0.737416 0.497983 0.925780
C7    C     C_R   0.701641 0.495753 0.526861 0.877083
C8    C     C_R   0.813132 0.479235 0.543955 -0.092208
C9    C     C_R   0.186258 0.484911 0.457942 -0.091374
C10   C     C_R   0.023077 0.560823 0.343572 -0.223594
C11   C     C_R   0.129984 0.548514 0.349447 -0.235464
C12   C     C_R   0.027178 0.439213 0.553671 0.119716
C13   C     C_R   0.135408 0.423447 0.557366 -0.085379
C14   C     C_R   0.810739 0.347240 0.756479 0.141342
C15   C     C_R   0.742384 0.246842 0.724874 -0.105573
C16   C     C_R   0.687830 0.193721 0.824022 -0.113679
C17   C     C_R   0.701510 0.240121 0.955113 -0.116814
C18   C     C_R   0.770452 0.339039 0.987583 -0.132395
C19   C     C_R   0.825255 0.392307 0.888770 -0.150933
C20   C     C_R   0.194689 0.342216 0.662541 0.137756
C21   C     C_R   0.229946 0.224890 0.628110 -0.146893
C22   C     C_R   0.282693 0.146835 0.727487 -0.129318
C23   C     C_R   0.972222 0.510094 0.446799 0.181187
C24   C     C_R   0.301437 0.185851 0.861256 -0.109158
C25   C     C_R   0.267074 0.302850 0.896065 -0.181268
C26   C     C_R   0.214376 0.381260 0.797113 -0.123724
C27   C     C_R   0.424599 0.883593 0.247723 0.187863
C28   C     C_R   0.327628 0.821523 0.231675 -0.104149
C29   C     C_R   0.287280 0.774589 0.105683 -0.147975
C30   C     C_R   0.343033 0.789546 0.995190 -0.102460
C31   C     C_R   0.439036 0.852069 0.010110 -0.154534
C32   C     C_R   0.479743 0.899071 0.135728 -0.188718
C33   C     C_R   0.866455 0.529922 0.443607 -0.295915
C34   C     C_R   0.865565 0.407003 0.650741 -0.021482
C35   C     C_R   0.972458 0.387226 0.654291 -0.270934
C36   C     C_2   0.467172 0.936859 0.380259 0.030510
C37   C     C_2   0.497881 0.869520 0.493562 -0.397895
C38   C     C_2   0.480121 0.070425 0.384324 -0.208507
H1    H     H_    0.825016 0.585129 0.361839 0.150134
H2    H     H_    0.532176 0.911269 0.586939 0.136550
H3    H     H_    0.486113 0.119093 0.289389 0.172911
H4    H     H_    0.730588 0.210886 0.623338 0.104899
H5    H     H_    0.634487 0.117082 0.799019 0.113850
H6    H     H_    0.658740 0.199414 0.031506 0.118573
H7    H     H_    0.780976 0.374902 0.089124 0.137066
H8    H     H_    0.877715 0.469665 0.914669 0.120938
H9    H     H_    0.215610 0.193578 0.524837 0.121312
H10   H     H_    0.308561 0.055769 0.700990 0.122828
H11   H     H_    0.342249 0.125280 0.937983 0.133470
H12   H     H_    0.468818 0.088428 0.594331 0.145912
H13   H     H_    0.281184 0.332742 0.999763 0.125079
H14   H     H_    0.188036 0.471727 0.825153 0.120124
H15   H     H_    0.283490 0.809888 0.316434 0.105671
H16   H     H_    0.212471 0.727236 0.093182 0.114403
H17   H     H_    0.311721 0.752979 0.897925 0.130334
H18   H     H_    0.481988 0.863975 0.924349 0.128356
H19   H     H_    0.554383 0.947116 0.145896 0.117854
H20   H     H_    0.611662 0.637420 0.891074 0.153271
H21   H     H_    0.459875 0.431459 0.892591 0.174949
H22   H     H_    0.628001 0.615728 0.143798 0.153227
H23   H     H_    0.438421 0.459653 0.092393 0.154473
H24   H     H_    0.980655 0.613393 0.260677 0.135069
H25   H     H_    0.011365 0.329925 0.735421 0.161757
H26   H     H_    0.169407 0.593760 0.272575 0.156198
N1    N     N_2   0.501130 0.501330 0.852280 -0.186665
N2    N     N_2   0.501160 0.501360 0.147950 -0.190953
O1    O     O_R   0.499980 0.319060 0.613040 -0.607736
O2    O     O_R   0.500020 0.319100 0.386900 -0.620846
O3    O     O_R   0.346340 0.499960 0.594380 -0.607164
O4    O     O_R   0.346380 0.500000 0.368250 -0.625979
O5    O     O_R   0.499980 0.680900 0.613100 -0.623048
O6    O     O_R   0.500020 0.680940 0.386960 -0.592613
O7    O     O_R   0.653620 0.500000 0.631750 -0.604905
O8    O     O_R   0.653660 0.500040 0.405620 -0.622982
Zn1   Zn    Zn3+2 0.499980 0.499970 0.650990 0.954103
Zn2   Zn    Zn3+2 0.500020 0.500030 0.349010 0.938035

loop_
_geom_bond_atom_site_label_1
_geom_bond_atom_site_label_2
_ccdc_geom_bond_type
C22   H10   S    
O6    Zn2   S    
C4    O4    A    
C19   H8    S    
C7    C8    S    
C7    O7    A    
C3    N1    D    
C6    O6    A    
C12   C23   A    
C33   H1    S    
O8    Zn2   S    
C28   C29   A    
C18   C19   A    
C37   H2    S    
C30   C31   A    
C34   C35   A    
C29   H16   S    
C15   C16   A    
C1    O2    A    
C1    C2    S    
C9    C13   A    
C2    H12   S    
H23   N2    S    
C16   C17   A    
C23   C33   A    
C31   H18   S    
C13   C20   S    
C21   C22   A    
O7    Zn1   S    
C10   H24   S    
C32   H19   S    
C4    O3    A    
C7    O8    A    
C6    O5    A    
C24   C25   A    
C38   H3    S    
C11   H26   S    
C25   C26   A    
C25   H13   S    
C29   C30   A    
C26   H14   S    
C2    C38   D    
C31   C32   A    
N2    Zn2   S    
C17   C18   A    
C6    C37   S    
C8    C34   A    
C12   C13   A    
C12   C35   A    
C9    C11   A    
C16   H5    S    
O4    Zn2   S    
C10   C23   A    
C22   C24   A    
O1    Zn1   S    
C18   H7    S    
C24   H11   S    
C36   C37   D    
C5    H22   S    
C27   C32   A    
C14   C19   A    
C15   H4    S    
C5    N2    D    
C3    C5    S    
C14   C34   S    
C28   H15   S    
C27   C36   S    
O2    Zn2   S    
C30   H17   S    
N1    Zn1   S    
C36   C38   S    
C17   H6    S    
H21   N1    S    
O5    Zn1   S    
C20   C26   A    
C1    O1    A    
O3    Zn1   S    
C8    C33   A    
C10   C11   A    
C3    H20   S    
C20   C21   A    
C27   C28   A    
C14   C15   A    
C35   H25   S    
C4    C9    S    
C21   H9    S    
