data_mof_unit_55551.cif
_audit_creation_date              2012-12-10T17:33:44-0500
_audit_creation_method            fapswitch 2.2
_symmetry_space_group_name_H-M    P1
_symmetry_Int_Tables_number       1
_space_group_crystal_system       triclinic
_cell_length_a                    11.651979
_cell_length_b                    12.435257
_cell_length_c                    13.20467
_cell_angle_alpha                 117.308754
_cell_angle_beta                  76.065725
_cell_angle_gamma                 101.149002
_cell_volume                      1642.38719173

loop_
_atom_site_label
_atom_site_type_symbol
_atom_type_description
_atom_site_fract_x
_atom_site_fract_y
_atom_site_fract_z
_atom_type_partial_charge
C1    C     C_R   0.506754 0.855402 0.286948 0.775142
C2    C     C_R   0.455708 0.229512 0.836538 -0.051328
C3    C     C_R   0.572350 0.814558 0.081257 -0.189600
C4    C     C_R   0.591565 0.734922 0.964627 -0.150381
C5    C     C_R   0.551173 0.612520 0.928628 -0.184725
C6    C     C_R   0.485685 0.567866 0.009165 0.072583
C7    C     C_R   0.452308 0.652558 0.125631 0.067087
C8    C     C_R   0.451904 0.442006 0.977854 0.071100
C9    C     C_R   0.373955 0.404092 0.058622 0.168577
C10   C     C_R   0.329824 0.490533 0.168187 -0.256086
C11   C     C_R   0.367566 0.613015 0.201028 -0.197177
C12   C     C_R   0.715599 0.999980 0.499713 0.838542
C13   C     C_R   0.495374 0.352321 0.869083 -0.242557
C14   C     C_R   0.379267 0.193023 0.917018 -0.188051
C15   C     C_R   0.505927 0.774210 0.163325 -0.124953
C16   C     C_R   0.725505 0.369531 0.381265 -0.292044
C17   C     C_R   0.334410 0.757736 0.642354 0.675727
C18   C     C_R   0.309188 0.669773 0.685365 -0.382661
C19   C     C_R   0.376169 0.571900 0.637128 -0.204459
C20   C     C_R   0.471113 0.558992 0.545445 -0.059243
C21   C     C_R   0.505306 0.656839 0.511881 0.100252
C22   C     C_R   0.537391 0.454365 0.490011 -0.110431
C23   C     C_R   0.482009 0.145247 0.713804 0.789207
C24   C     C_R   0.653812 0.465386 0.431634 0.047535
C25   C     C_R   0.695139 0.568464 0.415058 -0.337975
C26   C     C_R   0.615195 0.648010 0.430483 0.485607
C27   C     C_R   0.492846 0.337752 0.486572 0.589064
C28   C     C_R   0.679916 0.260275 0.385481 -0.013503
C29   C     C_R   0.284403 0.999844 0.500161 0.812793
C30   C     C_1   0.837526 0.999666 0.499194 -0.195444
C31   C     C_1   0.940119 0.998746 0.498844 -0.012500
C32   C     C_1   0.059876 0.998016 0.498856 -0.016453
C33   C     C_1   0.162547 0.998532 0.499326 -0.201737
C34   C     C_R   0.339479 0.279973 0.028049 -0.208978
Cu1   Cu    Cu3+1 0.526510 0.098270 0.475420 0.961770
Cu2   Cu    Cu3+1 0.473490 0.901730 0.524580 0.999543
H1    H     H_    0.347008 0.098275 0.892958 0.173864
H2    H     H_    0.785576 0.575846 0.371122 0.151928
H3    H     H_    0.815648 0.378268 0.336942 0.147472
H4    H     H_    0.355688 0.509753 0.676671 0.212639
H5    H     H_    0.238508 0.676927 0.757557 0.152650
H6    H     H_    0.266658 0.463320 0.229302 0.136685
H7    H     H_    0.279423 0.250508 0.089144 0.131250
H8    H     H_    0.560150 0.375685 0.807088 0.148829
H9    H     H_    0.612487 0.907363 0.107437 0.154887
H10   H     H_    0.570220 0.555855 0.836856 0.134607
H11   H     H_    0.641903 0.767380 0.901972 0.143032
H12   H     H_    0.327217 0.676200 0.285419 0.163699
H13   H     H_    0.736123 0.186926 0.348667 0.149873
N1    N     N_R   0.566700 0.246290 0.438210 -0.217626
N2    N     N_R   0.434010 0.754320 0.561170 -0.229370
O1    O     O_R   0.533340 0.972510 0.318140 -0.592234
O2    O     O_R   0.488570 0.806530 0.359650 -0.538414
O3    O     O_R   0.685190 0.083000 0.479260 -0.597561
O4    O     O_R   0.640410 0.917020 0.520770 -0.520104
O5    O     O_R   0.511430 0.193470 0.640350 -0.565544
O6    O     O_R   0.466660 0.027490 0.681860 -0.554342
O7    O     O_R   0.359590 0.082980 0.479230 -0.539000
O8    O     O_R   0.314810 0.917000 0.520740 -0.556960
O9    O     O_3   0.375046 0.313857 0.528305 -0.608639
C35   C     C_3   0.305780 0.293097 0.445194 0.050832
H14   H     H_    0.314734 0.199736 0.374217 0.165137
H15   H     H_    0.332515 0.359129 0.406301 0.116630
C36   C     C_3   0.175602 0.305800 0.503648 -0.312207
H16   H     H_    0.147666 0.246432 0.549110 0.237250
H17   H     H_    0.165493 0.401305 0.569143 0.213956
C37   C     C_3   0.094696 0.271781 0.415997 -0.936801
H18   H     H_    0.119876 0.331874 0.371073 0.246031
H19   H     H_    0.001157 0.282660 0.461388 0.263345
H20   H     H_    0.101080 0.175583 0.351085 0.258349
O10   O     O_3   0.266728 0.855453 0.688275 -0.593484
C38   C     C_3   0.142291 0.820780 0.698861 0.027660
H21   H     H_    0.098339 0.904594 0.729034 0.176199
H22   H     H_    0.109505 0.789080 0.767730 0.121801
C39   C     C_3   0.102811 0.727071 0.583692 -0.379944
H23   H     H_    0.139777 0.758232 0.514948 0.238062
H24   H     H_    0.135759 0.637895 0.555733 0.202609
C40   C     C_3   0.967677 0.708572 0.595869 -0.896073
H25   H     H_    0.927928 0.676597 0.663831 0.254808
H26   H     H_    0.942153 0.639107 0.512458 0.254252
H27   H     H_    0.931801 0.794924 0.618731 0.260629
O11   O     O_3   0.646739 0.716425 0.368121 -0.562465
C41   C     C_3   0.703868 0.653156 0.251493 0.047934
H28   H     H_    0.655365 0.662364 0.194297 0.170298
H29   H     H_    0.702010 0.553062 0.219846 0.126628
C42   C     C_3   0.830637 0.712006 0.234177 -0.355507
H30   H     H_    0.827350 0.808617 0.254279 0.217264
H31   H     H_    0.881993 0.710127 0.293998 0.217172
C43   C     C_3   0.894388 0.646950 0.109856 -0.919041
H32   H     H_    0.901043 0.550658 0.088392 0.256526
H33   H     H_    0.985470 0.692454 0.099806 0.257325
H34   H     H_    0.845679 0.650053 0.048646 0.258959

loop_
_geom_bond_atom_site_label_1
_geom_bond_atom_site_label_2
_ccdc_geom_bond_type
C16   C28   A    
C21   C26   A    
C8    C13   A    
C10   H6    S    
Cu1   Cu2   S    
Cu2   O8    S    
C17   N2    A    
C23   O5    A    
C7    C11   A    
Cu1   O7    S    
C27   O9    S    
C30   C31   T    
C40   H26   S    
C29   C33   S    
C18   C19   A    
C35   H15   S    
C2    C13   A    
C1    O2    A    
Cu2   O2    S    
C28   N1    A    
C29   O8    A    
C8    C9    A    
C1    C15   S    
C43   H33   S    
C9    C10   A    
C27   N1    A    
C7    C15   A    
C16   C24   A    
Cu1   O3    S    
C11   H12   S    
C38   C39   S    
C39   C40   S    
C37   H18   S    
C36   C37   S    
C24   C25   A    
C38   H22   S    
Cu2   O6    S    
C19   H4    S    
C18   H5    S    
C40   H25   S    
C4    C5    A    
C6    C8    A    
C25   C26   A    
C3    H9    S    
O9    C35   S    
C37   H19   S    
C36   H17   S    
C35   C36   S    
C39   H23   S    
C25   H2    S    
C28   H13   S    
C41   H28   S    
C2    C23   S    
Cu1   N1    S    
C17   C18   A    
C20   C21   A    
C43   H34   S    
C39   H24   S    
Cu2   N2    S    
C41   H29   S    
C20   C22   A    
C17   O10   S    
C22   C27   A    
C9    C34   A    
C22   C24   A    
C3    C4    A    
C21   N2    A    
C3    C15   A    
C23   O6    A    
C12   C30   S    
Cu1   O5    S    
C42   H30   S    
C31   C32   S    
C34   H7    S    
C38   H21   S    
C42   C43   S    
C14   C34   A    
C6    C7    A    
C5    H10   S    
C37   H20   S    
C32   C33   T    
C19   C20   A    
O10   C38   S    
Cu2   O4    S    
C36   H16   S    
C14   H1    S    
C40   H27   S    
C5    C6    A    
C42   H31   S    
C35   H14   S    
C2    C14   A    
C1    O1    A    
C12   O4    A    
C10   C11   A    
C16   H3    S    
C41   C42   S    
C29   O7    A    
C26   O11   S    
O11   C41   S    
Cu1   O1    S    
C43   H32   S    
C13   H8    S    
C12   O3    A    
C4    H11   S    
