data_mof_unit_38650.cif
_audit_creation_date              2012-12-10T19:14:25-0500
_audit_creation_method            fapswitch 2.2
_symmetry_space_group_name_H-M    P1
_symmetry_Int_Tables_number       1
_space_group_crystal_system       triclinic
_cell_length_a                    15.989409
_cell_length_b                    14.75133
_cell_length_c                    11.00547
_cell_angle_alpha                 89.002575
_cell_angle_beta                  90.594734
_cell_angle_gamma                 90.738369
_cell_volume                      2595.06298996

loop_
_atom_site_label
_atom_site_type_symbol
_atom_type_description
_atom_site_fract_x
_atom_site_fract_y
_atom_site_fract_z
_atom_type_partial_charge
C1    C     C_R   0.340956 0.499447 0.501220 0.842813
C2    C     C_R   0.659027 0.500254 0.499707 0.949496
C3    C     C_R   0.954700 0.415428 0.486755 0.295413
C4    C     C_R   0.042586 0.413578 0.506025 0.317244
C5    C     C_1   0.822929 0.499760 0.499300 0.134767
C6    C     C_1   0.177189 0.497264 0.508512 0.126912
C7    C     C_1   0.252107 0.498217 0.504668 -0.041353
C8    C     C_1   0.748008 0.500459 0.500097 0.067614
C9    C     C_R   0.578148 0.953974 0.518359 0.286967
C10   C     C_R   0.424704 0.949274 0.525605 0.215364
C11   C     C_R   0.501767 0.902942 0.516158 -0.320505
C12   C     C_R   0.422989 0.046292 0.513123 0.289411
C13   C     C_R   0.576315 0.050888 0.528962 0.261993
C14   C     C_R   0.499271 0.097092 0.515257 -0.306842
C15   C     C_1   0.501304 0.802593 0.506453 0.461591
C16   C     C_1   0.499250 0.197372 0.506035 0.533972
C17   C     C_R   0.499795 0.500855 0.261867 0.937125
C18   C     C_R   0.502801 0.498898 0.738735 0.853695
C19   C     C_R   0.602833 0.630196 0.124436 0.297183
C20   C     C_R   0.598598 0.637947 0.878350 0.360576
C21   C     C_R   0.613398 0.715664 0.067544 0.252096
C22   C     C_R   0.610029 0.719628 0.939851 0.297629
C23   C     C_R   0.551786 0.566951 0.936251 -0.142002
C24   C     C_R   0.551674 0.565943 0.064407 -0.139493
C25   C     C_R   0.501460 0.502147 0.128415 -0.177689
C26   C     C_R   0.509620 0.495772 0.873022 -0.165727
C27   C     C_R   0.451743 0.439261 0.064304 0.309365
C28   C     C_R   0.467294 0.425668 0.940450 0.204353
C29   C     C_R   0.957865 0.580965 0.513187 0.418149
C30   C     C_R   0.044944 0.580174 0.517684 0.399659
C31   C     C_R   0.912674 0.498800 0.498051 -0.270299
C32   C     C_R   0.087407 0.496787 0.512922 -0.260913
Cu1   Cu    Cu3+1 0.500000 0.589220 0.500000 1.116926
Cu2   Cu    Cu3+1 0.500000 0.410780 0.500000 1.175602
N1    N     N_1   0.500000 0.276710 0.500000 -0.102865
N2    N     N_1   0.500000 0.723290 0.500000 -0.116466
O1    O     O_R   0.380310 0.575320 0.500020 -0.567368
O2    O     O_R   0.619690 0.575320 0.499980 -0.514927
O3    O     O_R   0.380310 0.424640 0.499960 -0.540583
O4    O     O_R   0.619690 0.424640 0.500040 -0.579315
O5    O     O_R   0.500000 0.575360 0.319640 -0.604273
O6    O     O_R   0.500000 0.575360 0.680360 -0.587050
O7    O     O_R   0.500000 0.424670 0.319580 -0.522212
O8    O     O_R   0.500000 0.424670 0.680420 -0.515714
S1    S     S_3+6 0.360027 0.392031 0.133302 0.077175
O9    O     O_2   0.325230 0.456734 0.223193 -0.308203
O10   O     O_2   0.293769 0.374011 0.038456 -0.235391
O11   O     O_3   0.384646 0.294761 0.206211 -0.443533
H1    H     H_    0.335614 0.254081 0.194064 0.420617
S2    S     S_3+6 0.440914 0.317850 0.875423 0.131876
O12   O     O_2   0.517275 0.280937 0.816112 -0.187587
O13   O     O_2   0.412894 0.248849 0.968722 -0.166723
O14   O     O_3   0.364734 0.329809 0.769816 -0.450716
H2    H     H_    0.329939 0.380142 0.798141 0.346940
S3    S     S_3+6 0.692708 0.588693 0.200745 0.040476
O15   O     O_2   0.710266 0.643044 0.311927 -0.328699
O16   O     O_2   0.682353 0.489961 0.233811 -0.302790
O17   O     O_3   0.775085 0.600514 0.108113 -0.419848
H3    H     H_    0.823289 0.577365 0.156081 0.393861
S4    S     S_3+6 0.683706 0.611897 0.785101 0.079029
O18   O     O_2   0.683369 0.513072 0.754951 -0.309822
O19   O     O_2   0.680494 0.669973 0.672005 -0.266475
O20   O     O_3   0.773828 0.635545 0.858813 -0.417526
H4    H     H_    0.783376 0.701535 0.846569 0.401116
O21   O     O_3   0.642092 0.789823 0.130966 -0.648236
H5    H     H_    0.632320 0.777826 0.218515 0.387674
O22   O     O_3   0.633710 0.796200 0.874103 -0.642079
H6    H     H_    0.637775 0.848556 0.929033 0.398250
O23   O     O_3   0.085613 0.663287 0.527760 -0.584287
H7    H     H_    0.146229 0.655294 0.541770 0.351229
O24   O     O_3   0.920041 0.664548 0.522726 -0.589779
H8    H     H_    0.858800 0.659100 0.511673 0.347519
S5    S     S_3+6 0.896635 0.316219 0.443411 0.127557
O25   O     O_2   0.865157 0.268822 0.556277 -0.203016
O26   O     O_2   0.823084 0.341279 0.364106 -0.236174
O27   O     O_3   0.955783 0.244932 0.364603 -0.410434
H9    H     H_    0.921596 0.188732 0.357836 0.411249
S6    S     S_3+6 0.097428 0.309246 0.527068 0.119725
O28   O     O_2   0.127810 0.278951 0.405717 -0.207460
O29   O     O_2   0.171465 0.322066 0.610624 -0.262972
O30   O     O_3   0.035973 0.227901 0.589120 -0.405852
H10   H     H_    0.069108 0.171743 0.585574 0.412567
S7    S     S_3+6 0.669315 0.116972 0.559334 0.127707
O31   O     O_2   0.731895 0.065190 0.634759 -0.132500
O32   O     O_2   0.708025 0.144260 0.440061 -0.209959
O33   O     O_3   0.647026 0.211126 0.636265 -0.497555
H11   H     H_    0.695959 0.252093 0.624659 0.403941
S8    S     S_3+6 0.325893 0.105171 0.498015 0.124318
O34   O     O_2   0.262843 0.050217 0.427663 -0.149033
O35   O     O_2   0.292991 0.121800 0.623074 -0.182578
O36   O     O_3   0.337094 0.205471 0.424958 -0.523964
H12   H     H_    0.293390 0.244723 0.458130 0.417152
S9    S     S_3+6 0.675796 0.896306 0.512095 0.117508
O37   O     O_2   0.737861 0.950910 0.438763 -0.160354
O38   O     O_2   0.708805 0.883466 0.639532 -0.175230
O39   O     O_3   0.667271 0.794100 0.448805 -0.525785
H13   H     H_    0.721875 0.765481 0.466218 0.415859
S10   S     S_3+6 0.331766 0.883735 0.556872 0.107912
O40   O     O_2   0.269763 0.935978 0.628553 -0.151049
O41   O     O_2   0.292064 0.856737 0.438348 -0.182352
O42   O     O_3   0.353641 0.788920 0.637626 -0.523371
H14   H     H_    0.378271 0.810585 0.715003 0.349755

loop_
_geom_bond_atom_site_label_1
_geom_bond_atom_site_label_2
_ccdc_geom_bond_type
C6    C32   S    
S3    O15   D    
S9    O37   D    
S5    O25   D    
C18   C26   S    
O30   H10   S    
O14   H2    S    
O42   H14   S    
S4    O20   S    
Cu2   O4    S    
Cu1   O6    S    
C19   C21   A    
C18   O6    A    
C16   N1    T    
S6    O29   D    
Cu1   N2    S    
S4    O19   D    
Cu2   N1    S    
C23   C26   A    
C10   S10   S    
C9    C13   A    
C28   S2    S    
S2    O13   D    
C23   C24   A    
C20   C23   A    
C20   S4    S    
C1    O1    A    
C27   S1    S    
S9    O38   D    
C21   C22   A    
S5    O26   D    
C11   C15   S    
S2    O12   D    
S1    O10   D    
S2    O14   S    
C12   S8    S    
O22   H6    S    
Cu2   O8    S    
C24   C25   A    
O36   H12   S    
O33   H11   S    
O17   H3    S    
S1    O9    D    
Cu1   O1    S    
Cu2   O3    S    
S4    O18   D    
C17   O7    A    
C4    S6    S    
C29   C30   A    
C18   O8    A    
C2    O2    A    
S7    O31   D    
S8    O36   S    
O39   H13   S    
Cu1   Cu2   S    
O27   H9    S    
C3    C31   A    
C9    C11   A    
C4    C32   A    
C10   C12   A    
O11   H1    S    
S7    O32   D    
S8    O35   D    
O21   H5    S    
S9    O39   S    
S10   O41   D    
S3    O16   D    
S5    O27   S    
C14   C16   S    
C3    C4    A    
C9    S9    S    
C15   N2    T    
C30   O23   S    
S1    O11   S    
C19   S3    S    
C21   O21   S    
C1    C7    S    
C2    C8    S    
Cu2   O7    S    
C20   C22   A    
C5    C8    T    
C6    C7    T    
C25   C27   A    
S10   O42   S    
C13   S7    S    
C26   C28   A    
Cu1   O2    S    
C17   C25   S    
C19   C24   A    
C12   C14   A    
Cu1   O5    S    
O24   H8    S    
C29   C31   A    
C30   C32   A    
S6    O28   D    
S6    O30   S    
O23   H7    S    
C3    S5    S    
C17   O5    A    
C22   O22   S    
C10   C11   A    
C1    O3    A    
O20   H4    S    
C2    O4    A    
S7    O33   S    
S8    O34   D    
S10   O40   D    
S3    O17   S    
C27   C28   A    
C5    C31   S    
C13   C14   A    
C29   O24   S    
