data_mof_unit_30505.cif
_audit_creation_date              2013-03-05T16:09:16-0500
_audit_creation_method            fapswitch 2.2
_symmetry_space_group_name_H-M    P1
_symmetry_Int_Tables_number       1
_space_group_crystal_system       triclinic
_cell_length_a                    8.589623
_cell_length_b                    10.662337
_cell_length_c                    9.857116
_cell_angle_alpha                 89.683736
_cell_angle_beta                  98.672103
_cell_angle_gamma                 90.016621
_cell_volume                      892.433750396

loop_
_atom_site_label
_atom_site_type_symbol
_atom_site_description
_atom_site_fract_x
_atom_site_fract_y
_atom_site_fract_z
_atom_type_partial_charge
O1    O     O_R   0.499990 0.316750 0.614620 -0.628820
O2    O     O_R   0.500010 0.683250 0.385380 -0.628821
O3    O     O_R   0.499990 0.316780 0.385290 -0.594197
O4    O     O_R   0.500010 0.683220 0.614710 -0.594197
C1    C     C_R   0.504789 0.260232 0.500986 0.953812
C2    C     C_R   0.495210 0.739768 0.499014 0.953815
O5    O     O_R   0.271750 0.499990 0.587840 -0.604900
O6    O     O_R   0.728250 0.500010 0.412160 -0.604900
O7    O     O_R   0.271750 0.500010 0.358510 -0.631394
O8    O     O_R   0.728250 0.499990 0.641490 -0.631394
C3    C     C_R   0.201117 0.499622 0.464066 0.990763
C4    C     C_R   0.798883 0.500378 0.535934 0.990762
Zn1   Zn    Zn3+2 0.500000 0.499980 0.653120 1.003094
Zn2   Zn    Zn3+2 0.500000 0.500020 0.346880 1.003094
N1    N     N_R   0.499960 0.499970 0.857200 -0.090286
N2    N     N_R   0.500040 0.500030 0.142800 -0.090286
C5    C     C_2   0.035953 0.499699 0.444766 -0.297422
C6    C     C_2   0.964047 0.500301 0.555233 -0.297423
H1    H     H_    0.973987 0.499341 0.340011 0.180099
H2    H     H_    0.026013 0.500659 0.659989 0.180099
C7    C     C_R   0.605595 0.061898 0.424841 0.333681
C8    C     C_R   0.394402 0.938102 0.575156 0.333681
C9    C     C_R   0.593680 0.933080 0.421349 -0.267372
C10   C     C_R   0.406319 0.066920 0.578650 -0.267373
H3    H     H_    0.669631 0.879626 0.364597 0.197586
H4    H     H_    0.330369 0.120374 0.635402 0.197588
C11   C     C_R   0.491018 0.872248 0.496966 -0.199544
C12   C     C_R   0.508980 0.127752 0.503033 -0.199545
C13   C     C_R   0.596396 0.578986 0.084058 -0.041898
C14   C     C_R   0.403604 0.421014 0.915942 -0.041898
H5    H     H_    0.673530 0.642173 0.148174 0.137325
H6    H     H_    0.326470 0.357827 0.851826 0.137325
C15   C     C_R   0.596334 0.578963 0.940267 -0.028719
C16   C     C_R   0.403666 0.421036 0.059733 -0.028718
H7    H     H_    0.673415 0.642139 0.895611 0.143530
H8    H     H_    0.326584 0.357861 0.104389 0.143530
N3    N     N_R   0.719702 0.123303 0.354357 0.219419
O9    O     O_R   0.805505 0.214164 0.412975 -0.404046
O10   O     O_R   0.754351 0.076796 0.240810 -0.370708
N4    N     N_R   0.280294 0.876698 0.645640 0.219417
O11   O     O_R   0.194495 0.785835 0.587021 -0.404048
O12   O     O_R   0.245638 0.923208 0.759184 -0.370708

loop_
_geom_bond_atom_site_label_1
_geom_bond_atom_site_label_2
_geom_bond_distance
_ccdc_geom_bond_type
C14   H6    1.081881 S    
O7    Zn2   1.981111 S    
N3    O9    1.301136 A    
C9    C11   1.395145 A    
C1    C12   1.412972 S    
C6    H2    1.088053 S    
C2    C11   1.412972 S    
O6    C4    1.278076 A    
C8    N4    1.439440 S    
N4    O12   1.301487 A    
C5    C6    1.330450 D    
N3    O10   1.301479 A    
O5    C3    1.278077 A    
O7    C3    1.281028 A    
C15   H7    1.081764 S    
O2    C2    1.280960 A    
O3    Zn2   1.988062 S    
O8    C4    1.281027 A    
O1    C1    1.280963 A    
C8    C10   1.377518 A    
N4    O11   1.301137 A    
C5    H1    1.088052 S    
C7    C12   1.405341 A    
C10   H4    1.084974 S    
C16   H8    1.081764 S    
C8    C11   1.405340 A    
Zn1   N1    2.011693 S    
C7    C9    1.377515 A    
O2    Zn2   1.992231 S    
Zn2   N2    2.011691 S    
O1    Zn1   1.992229 S    
C14   C16   1.417290 A    
C13   C15   1.417290 A    
O5    Zn1   1.969136 S    
C9    H3    1.084977 S    
C7    N3    1.439445 S    
N1    C14   1.366656 A    
O4    C2    1.282206 A    
C4    C6    1.402672 S    
O4    Zn1   1.988063 S    
C3    C5    1.402672 S    
O6    Zn2   1.969136 S    
N2    C16   1.366716 A    
N2    C13   1.366657 A    
C13   H5    1.081881 S    
N1    C15   1.366717 A    
C10   C12   1.395139 A    
O3    C1    1.282206 A    
O8    Zn1   1.981110 S    
