data_mof_unit_37068.cif
_audit_creation_date              2013-03-05T15:49:57-0500
_audit_creation_method            fapswitch 2.2
_symmetry_space_group_name_H-M    P1
_symmetry_Int_Tables_number       1
_space_group_crystal_system       triclinic
_cell_length_a                    6.94305
_cell_length_b                    19.710812
_cell_length_c                    23.851043
_cell_angle_alpha                 93.307162
_cell_angle_beta                  91.124541
_cell_angle_gamma                 89.170454
_cell_volume                      3257.73561554

loop_
_atom_site_label
_atom_site_type_symbol
_atom_site_description
_atom_site_fract_x
_atom_site_fract_y
_atom_site_fract_z
_atom_type_partial_charge
O1    O     O_R   0.620100 0.812200 0.810870 -0.591737
O2    O     O_R   0.379900 0.187800 0.189130 -0.585966
O3    O     O_R   0.296960 0.671650 0.794750 -0.594675
O4    O     O_R   0.703040 0.328350 0.205250 -0.584618
O5    O     O_R   0.120160 0.687800 0.689130 -0.590341
O6    O     O_R   0.879840 0.312200 0.310870 -0.588519
C1    C     C_R   0.466216 0.647068 0.805331 0.940551
C2    C     C_R   0.533319 0.353264 0.195418 0.934977
O7    O     O_R   0.290810 0.810670 0.817290 -0.601767
O8    O     O_R   0.709190 0.189330 0.182710 -0.605828
O9    O     O_R   0.113980 0.827820 0.711840 -0.586951
O10   O     O_R   0.886020 0.172180 0.288160 -0.597725
C3    C     C_R   0.459584 0.831826 0.834253 0.962533
C4    C     C_R   0.540583 0.167358 0.166469 0.962276
O11   O     O_R   0.626290 0.672180 0.788160 -0.596950
O12   O     O_R   0.373710 0.327820 0.211840 -0.599325
O13   O     O_3   0.451520 0.755460 0.715370 -0.261771
O14   O     O_3   0.548480 0.244540 0.284630 -0.267848
V1    V     V_3+5 0.179200 0.748980 0.756420 1.152357
V2    V     V_3+5 0.820800 0.251020 0.243580 1.155316
O15   O     O_R   0.783880 0.828350 0.705250 -0.561546
O16   O     O_R   0.216120 0.171650 0.294750 -0.566645
C5    C     C_R   0.950004 0.852619 0.693991 1.011895
C6    C     C_R   0.050495 0.146380 0.304631 1.029993
O17   O     O_R   0.790030 0.689320 0.682700 -0.601746
O18   O     O_R   0.209970 0.310680 0.317300 -0.601628
C7    C     C_R   0.958322 0.668012 0.665743 0.920806
C8    C     C_R   0.042036 0.332666 0.333557 0.926077
V3    V     V_3+5 0.678400 0.751010 0.743570 1.167032
V4    V     V_3+5 0.321600 0.248990 0.256430 1.170638
O19   O     O_3   0.955950 0.744540 0.784620 -0.283388
O20   O     O_3   0.044050 0.255460 0.215380 -0.281081
C9    C     C_R   0.150476 0.439458 0.386240 -0.189676
C10   C     C_R   0.846776 0.562928 0.610681 -0.185056
C11   C     C_R   0.035205 0.381590 0.382955 -0.157154
C12   C     C_R   0.966417 0.619678 0.615571 -0.160961
C13   C     C_R   0.910417 0.370533 0.426534 -0.186770
C14   C     C_R   0.096042 0.630030 0.572738 -0.200645
C15   C     C_R   0.901651 0.415533 0.474716 0.066764
C16   C     C_R   0.108654 0.584478 0.524707 0.072137
C17   C     C_R   0.009575 0.476512 0.476006 -0.063783
C18   C     C_R   0.993993 0.525168 0.521880 -0.089578
C19   C     C_R   0.134245 0.488464 0.431505 -0.018873
C20   C     C_R   0.861909 0.514751 0.564842 -0.026138
C21   C     C_R   0.783997 0.402639 0.520838 -0.023072
C22   C     C_R   0.233490 0.596376 0.479772 -0.019513
C23   C     C_R   0.748836 0.455749 0.561791 0.561342
C24   C     C_R   0.239245 0.549422 0.432483 0.538400
H1    H     H_    0.247610 0.447118 0.352247 0.156285
H2    H     H_    0.747721 0.555037 0.644028 0.160664
H3    H     H_    0.818845 0.326935 0.420889 0.120730
H4    H     H_    0.184423 0.674682 0.577554 0.141336
C25   C     C_R   0.944828 0.916493 0.663474 -0.400903
C26   C     C_R   0.060569 0.082576 0.334907 -0.405441
C27   C     C_R   0.804555 0.029094 0.652522 0.502530
C28   C     C_R   0.239428 0.977554 0.349151 0.521124
C29   C     C_R   0.828268 0.971397 0.683680 0.469458
C30   C     C_R   0.181307 0.029029 0.314090 0.479031
C31   C     C_R   0.029695 0.919284 0.610433 -0.257139
C32   C     C_R   0.991863 0.081373 0.389904 -0.262512
C33   C     C_R   0.005876 0.977128 0.577222 0.089965
C34   C     C_R   0.064626 0.033521 0.428190 0.094766
C35   C     C_R   0.889643 0.031682 0.599394 -0.168536
C36   C     C_R   0.187857 0.980895 0.406315 -0.153889
C37   C     C_R   0.081207 0.981104 0.521344 -0.125937
C38   C     C_R   0.020886 0.036093 0.487282 -0.131271
C39   C     C_R   0.928737 0.093212 0.514844 0.613365
C40   C     C_R   0.221074 0.934344 0.498676 0.589743
C41   C     C_R   0.857136 0.088810 0.568372 -0.287445
C42   C     C_R   0.266373 0.933489 0.442029 -0.286781
H5    H     H_    0.777087 0.132154 0.585985 0.188560
H6    H     H_    0.370057 0.895656 0.426511 0.197473
H7    H     H_    0.887223 0.120019 0.401728 0.215326
H8    H     H_    0.097387 0.872951 0.594351 0.206208
C43   C     C_R   0.468963 0.582643 0.834560 -0.156121
C44   C     C_R   0.526701 0.416471 0.165083 -0.168225
C45   C     C_R   0.371214 0.465507 0.839780 -0.203481
C46   C     C_R   0.592525 0.536562 0.162063 -0.185245
C47   C     C_R   0.376310 0.524432 0.809971 0.213692
C48   C     C_R   0.568107 0.479411 0.193323 0.172502
C49   C     C_R   0.534478 0.582447 0.890792 -0.258417
C50   C     C_R   0.507734 0.412142 0.106296 -0.228852
C51   C     C_R   0.505318 0.525571 0.923896 0.103961
C52   C     C_R   0.529530 0.469959 0.073941 0.100081
C53   C     C_R   0.432517 0.465400 0.896180 -0.044648
C54   C     C_R   0.577034 0.532480 0.103038 -0.051207
C55   C     C_R   0.537813 0.527184 0.983694 0.009792
C56   C     C_R   0.506707 0.467587 0.013875 0.007451
C57   C     C_R   0.446409 0.408057 0.983316 -0.355451
C58   C     C_R   0.588922 0.587549 0.014668 -0.360333
C59   C     C_R   0.412663 0.406250 0.925511 0.597932
C60   C     C_R   0.610737 0.590357 0.073074 0.595425
H9    H     H_    0.483687 0.362056 0.087229 0.101562
H10   H     H_    0.598981 0.628650 0.908067 0.111905
H11   H     H_    0.307367 0.420342 0.819595 0.170306
H12   H     H_    0.626616 0.584461 0.184405 0.168851
H13   H     H_    0.415046 0.361975 0.003179 0.153018
H14   H     H_    0.607114 0.634817 0.995073 0.152748
C61   C     C_R   0.647734 0.059249 0.115411 -0.161097
C62   C     C_R   0.342016 0.935935 0.888846 -0.161829
C63   C     C_R   0.529699 0.117446 0.117774 -0.163147
C64   C     C_R   0.468677 0.880082 0.884354 -0.178292
C65   C     C_R   0.395711 0.127135 0.074501 -0.206087
C66   C     C_R   0.601450 0.869659 0.928071 -0.218277
C67   C     C_R   0.377681 0.079681 0.028050 0.093763
C68   C     C_R   0.609454 0.914252 0.976847 0.082514
C69   C     C_R   0.497323 0.020432 0.026121 -0.081697
C70   C     C_R   0.485726 0.972462 0.979656 -0.092497
C71   C     C_R   0.629957 0.009603 0.070611 -0.020268
C72   C     C_R   0.350672 0.982874 0.935685 -0.020146
C73   C     C_R   0.242322 0.089850 0.983833 -0.005415
C74   C     C_R   0.737783 0.902378 0.022673 0.002372
C75   C     C_R   0.225072 0.039850 0.939158 0.518311
C76   C     C_R   0.741643 0.949104 0.070123 0.524935
H15   H     H_    0.750714 0.052367 0.149361 0.147209
H16   H     H_    0.239935 0.943497 0.854748 0.153704
H17   H     H_    0.307605 0.172745 0.077819 0.135055
H18   H     H_    0.695855 0.825773 0.923350 0.133524
O21   O     O_3   0.339948 0.347702 0.898571 -0.625536
C77   C     C_3   0.491892 0.300087 0.890514 -0.272595
H19   H     H_    0.548800 0.282603 0.931236 0.141284
H20   H     H_    0.610092 0.321082 0.866076 0.146303
H21   H     H_    0.435570 0.254881 0.865963 0.178806
O22   O     O_3   0.651288 0.651958 0.101387 -0.627368
C78   C     C_3   0.849503 0.664825 0.096800 -0.289319
H22   H     H_    0.888117 0.672678 0.052614 0.146029
H23   H     H_    0.939521 0.623229 0.113806 0.147931
H24   H     H_    0.883487 0.712310 0.122072 0.172490
C79   C     C_3   0.591365 0.487105 0.256597 -0.353125
C80   C     C_3   0.803287 0.491528 0.274258 -0.872564
H25   H     H_    0.882459 0.444758 0.259395 0.259387
H26   H     H_    0.870087 0.536273 0.256580 0.240013
H27   H     H_    0.815478 0.497032 0.320782 0.262964
H28   H     H_    0.515034 0.533958 0.272286 0.204514
H29   H     H_    0.525344 0.444417 0.277402 0.183067
C81   C     C_3   0.267435 0.524870 0.754223 -0.422072
C82   C     C_3   0.399633 0.532750 0.705095 -0.832543
H30   H     H_    0.490057 0.578419 0.710709 0.244030
H31   H     H_    0.494220 0.487111 0.699547 0.287850
H32   H     H_    0.308520 0.538742 0.667088 0.251068
H33   H     H_    0.186696 0.476932 0.745705 0.190806
H34   H     H_    0.156378 0.565913 0.755623 0.213457
C83   C     C_3   0.118332 0.154318 0.982426 -0.287709
C84   C     C_3   0.947284 0.153457 0.021964 -0.886008
H35   H     H_    0.834798 0.118676 0.004265 0.257651
H36   H     H_    0.991170 0.137128 0.064134 0.264316
H37   H     H_    0.882278 0.205209 0.026837 0.243378
H38   H     H_    0.208038 0.199676 0.992836 0.169380
H39   H     H_    0.061024 0.161992 0.939423 0.229353
C85   C     C_3   0.872104 0.840481 0.022151 -0.308306
C86   C     C_3   0.053613 0.852172 0.989092 -0.870124
H40   H     H_    0.017795 0.861214 0.944587 0.250775
H41   H     H_    0.132144 0.896672 0.008346 0.271379
H42   H     H_    0.149771 0.806731 0.990149 0.246522
H43   H     H_    0.918718 0.828374 0.065221 0.223619
H44   H     H_    0.797101 0.794095 0.005305 0.167904
O23   O     O_3   0.081172 0.046687 0.898942 -0.637566
C87   C     C_3   0.914557 0.014415 0.916798 -0.272608
H45   H     H_    0.903919 0.012264 0.963233 0.148979
H46   H     H_    0.909370 0.961840 0.897724 0.152354
H47   H     H_    0.785759 0.042978 0.902463 0.167931
O24   O     O_3   0.862097 0.936603 0.115427 -0.634743
C88   C     C_3   0.755099 0.903411 0.155282 -0.325670
H48   H     H_    0.683640 0.856971 0.136537 0.153587
H49   H     H_    0.645776 0.938284 0.175248 0.180134
H50   H     H_    0.855194 0.886987 0.188840 0.171957
C89   C     C_3   0.699003 0.333017 0.529998 -0.288218
C90   C     C_3   0.782666 0.303584 0.583373 -0.826229
H51   H     H_    0.942311 0.300878 0.581634 0.239207
H52   H     H_    0.740619 0.334691 0.621507 0.278951
H53   H     H_    0.727011 0.251629 0.587145 0.243573
H54   H     H_    0.539989 0.336986 0.533093 0.195144
H55   H     H_    0.727000 0.294321 0.495871 0.198598
C91   C     C_3   0.360318 0.659012 0.480826 -0.307858
C92   C     C_3   0.542401 0.649583 0.516620 -0.850369
H56   H     H_    0.507120 0.641902 0.560934 0.251999
H57   H     H_    0.626478 0.605035 0.499448 0.266376
H58   H     H_    0.633160 0.695416 0.515725 0.249752
H59   H     H_    0.406802 0.670161 0.438160 0.227183
H60   H     H_    0.279132 0.705290 0.495704 0.182216
O25   O     O_3   0.603729 0.448735 0.599691 -0.632926
C93   C     C_3   0.428363 0.468045 0.573793 -0.298706
H61   H     H_    0.409342 0.446312 0.529899 0.135891
H62   H     H_    0.418269 0.524193 0.574011 0.171301
H63   H     H_    0.307219 0.449314 0.598001 0.185778
O26   O     O_3   0.353330 0.562685 0.387536 -0.613372
C94   C     C_3   0.239744 0.597488 0.348295 -0.348967
H64   H     H_    0.148901 0.638898 0.368299 0.141367
H65   H     H_    0.147502 0.561336 0.322995 0.161510
H66   H     H_    0.336699 0.621840 0.319270 0.175521
O27   O     O_3   0.262852 0.029338 0.261409 -0.603294
C95   C     C_3   0.118707 0.023581 0.218799 -0.180190
H67   H     H_    0.074166 0.074683 0.205726 0.140720
H68   H     H_    0.989891 0.995116 0.230972 0.112754
H69   H     H_    0.180866 0.995663 0.181531 0.195400
O28   O     O_3   0.713016 0.965972 0.729843 -0.589601
C96   C     C_3   0.825368 0.972306 0.779647 -0.175254
H70   H     H_    0.946785 0.008429 0.777709 0.124855
H71   H     H_    0.881647 0.921987 0.791312 0.136639
H72   H     H_    0.728985 0.991695 0.813476 0.165172
O29   O     O_3   0.677133 0.079760 0.671293 -0.596544
C97   C     C_3   0.779648 0.129258 0.704401 -0.226400
H73   H     H_    0.909330 0.146988 0.682988 0.121605
H74   H     H_    0.821361 0.110027 0.745767 0.155803
H75   H     H_    0.683712 0.174126 0.712368 0.167883
O30   O     O_3   0.365170 0.927478 0.328489 -0.595632
C98   C     C_3   0.255867 0.873157 0.304383 -0.244580
H76   H     H_    0.167898 0.889058 0.267807 0.145015
H77   H     H_    0.161893 0.851332 0.335886 0.125493
H78   H     H_    0.356209 0.832298 0.288865 0.169822
O31   O     O_3   0.915103 0.156058 0.492167 -0.646255
C99   C     C_3   0.093132 0.189136 0.500735 -0.298472
H79   H     H_    0.210977 0.161255 0.477905 0.159398
H80   H     H_    0.131226 0.196015 0.546254 0.152664
H81   H     H_    0.080655 0.240340 0.483880 0.177145
O32   O     O_3   0.325578 0.890890 0.531433 -0.649119
C100  C     C_3   0.485329 0.926190 0.555346 -0.212373
H82   H     H_    0.439206 0.970659 0.583001 0.164303
H83   H     H_    0.582847 0.942728 0.522374 0.138009
H84   H     H_    0.569071 0.891377 0.581791 0.177532

loop_
_geom_bond_atom_site_label_1
_geom_bond_atom_site_label_2
_geom_bond_distance
_ccdc_geom_bond_type
C51   C55   1.438191 A    
C55   C56   1.433785 A    
C62   C72   1.409746 A    
O23   C87   1.412848 S    
C59   O21   1.384969 S    
O13   V3    1.703725 S    
C17   C18   1.417465 A    
C88   H48   1.114071 S    
C62   H16   1.083634 S    
C23   O25   1.380389 S    
V1    O19   1.707131 S    
C66   C68   1.417730 A    
C53   C59   1.403652 A    
C92   H57   1.110219 S    
C26   C32   1.406137 A    
O25   C93   1.411765 S    
C100  H84   1.109390 S    
C16   C22   1.423446 A    
C47   C81   1.516952 S    
C82   H31   1.109320 S    
O9    V1    1.975324 S    
C43   C47   1.415340 A    
C97   H74   1.108942 S    
O16   C6    1.291026 A    
C11   C13   1.394810 A    
C52   C54   1.418865 A    
O24   C88   1.413182 S    
O3    C1    1.290512 A    
C60   O22   1.384698 S    
C61   H15   1.082792 S    
C13   H3    1.076997 S    
C46   C48   1.400349 A    
C76   O24   1.384560 S    
C14   H4    1.079608 S    
C9    H1    1.083276 S    
C83   C84   1.531768 S    
C27   O29   1.385232 S    
C32   H7    1.074650 S    
C2    C44   1.476067 S    
C32   C34   1.430457 A    
O29   C97   1.411106 S    
C31   C33   1.431198 A    
C96   H71   1.109122 S    
O7    C3    1.298761 A    
C93   H61   1.114194 S    
C94   H66   1.108502 S    
C81   H34   1.109041 S    
C87   H47   1.108687 S    
C9    C11   1.400483 A    
C79   H29   1.110222 S    
O7    V1    1.991544 S    
C90   H53   1.108872 S    
O6    C8    1.299141 A    
C35   C41   1.395928 A    
C8    C11   1.479891 S    
C46   H12   1.083899 S    
C97   H75   1.109245 S    
C27   C35   1.412455 A    
C98   H78   1.109248 S    
C34   C36   1.417617 A    
C86   H40   1.109317 S    
C22   C91   1.525553 S    
O3    V1    1.980639 S    
O14   V4    1.703725 S    
C36   C42   1.398130 A    
C57   C59   1.392436 A    
C19   C24   1.413211 A    
C17   C19   1.414964 A    
O14   V2    2.154965 S    
C25   C31   1.410266 A    
C20   C23   1.410163 A    
O4    C2    1.292446 A    
C15   C21   1.419701 A    
C46   C54   1.407547 A    
C90   H52   1.108726 S    
C38   C39   1.421012 A    
C67   C73   1.419738 A    
C45   C53   1.403066 A    
C2    O12   1.299530 A    
C50   H9    1.076702 S    
O5    C7    1.299562 A    
C87   H46   1.108255 S    
C69   C71   1.414822 A    
C65   H17   1.080038 S    
C18   C20   1.414131 A    
C84   H37   1.110313 S    
C40   O32   1.381114 S    
O1    V3    1.995777 S    
C49   C51   1.426948 A    
C77   H20   1.113970 S    
O11   V3    1.974417 S    
C92   H58   1.110370 S    
C66   H18   1.079725 S    
C21   C23   1.411929 A    
O17   V3    2.000057 S    
C83   H38   1.110540 S    
C82   H32   1.106163 S    
C22   C24   1.417953 A    
C10   H2    1.081029 S    
C41   H5    1.081332 S    
C97   H73   1.114184 S    
C34   C38   1.445449 A    
C29   O28   1.383701 S    
O27   C95   1.413283 S    
C9    C19   1.411608 A    
C95   H69   1.109480 S    
C52   C56   1.436445 A    
C88   H50   1.109028 S    
C10   C20   1.410672 A    
O32   C100  1.411169 S    
C73   C75   1.413612 A    
O8    C4    1.298290 A    
O8    V2    1.991545 S    
C89   C90   1.530052 S    
C25   C29   1.410014 A    
O30   C98   1.410067 S    
C43   C49   1.407938 A    
C4    C63   1.479656 S    
C68   C74   1.424273 A    
C1    O11   1.305807 A    
C100  H82   1.113268 S    
O15   V3    1.978621 S    
C45   H11   1.083701 S    
C98   H76   1.112370 S    
C57   H13   1.075331 S    
C39   C41   1.386930 A    
C93   H63   1.108962 S    
C95   H68   1.114688 S    
C96   H72   1.105941 S    
C80   H26   1.110487 S    
C24   O26   1.384447 S    
C81   H33   1.112233 S    
V4    O20   2.149790 S    
C78   H24   1.109391 S    
C67   C69   1.422395 A    
C58   C60   1.396290 A    
O31   C99   1.411654 S    
C31   H8    1.075309 S    
C99   H81   1.109354 S    
C69   C70   1.416500 A    
C37   C40   1.421994 A    
O10   V2    1.975326 S    
C62   C64   1.399607 A    
C45   C47   1.397561 A    
C65   C67   1.412930 A    
C84   H35   1.107846 S    
C56   C57   1.409579 A    
C39   O31   1.381257 S    
C21   C89   1.530467 S    
C72   C75   1.411493 A    
C71   C76   1.412593 A    
C86   H42   1.110505 S    
C74   C76   1.417415 A    
C84   H36   1.109319 S    
C90   H51   1.110410 S    
C51   C53   1.418779 A    
C99   H80   1.113453 S    
C42   H6    1.083693 S    
O18   V4    2.000057 S    
C50   C52   1.424157 A    
C85   H43   1.109030 S    
C27   C29   1.400017 A    
C87   H45   1.114695 S    
C74   C85   1.524516 S    
C80   H27   1.110385 S    
O1    C3    1.299909 A    
O12   V4    1.974417 S    
C44   C50   1.403523 A    
C12   C14   1.400278 A    
C91   H60   1.109643 S    
C77   H19   1.112588 S    
C78   H23   1.113977 S    
C79   C80   1.524848 S    
C26   C30   1.411919 A    
O17   C7    1.300008 A    
C48   C79   1.513715 S    
O16   V4    1.978619 S    
C61   C63   1.399215 A    
V3    O19   2.149792 S    
C33   C35   1.418870 A    
C44   C48   1.407741 A    
O28   C96   1.408721 S    
C1    C43   1.483199 S    
O21   C77   1.410375 S    
C77   H21   1.109366 S    
C89   H54   1.109279 S    
O5    V1    1.990795 S    
C73   C83   1.526123 S    
C7    C12   1.487381 S    
C100  H83   1.113561 S    
O6    V2    1.990794 S    
C82   H30   1.105236 S    
O10   C6    1.305995 A    
O18   C8    1.296675 A    
C89   H55   1.101080 S    
O2    V4    1.995776 S    
C95   H67   1.109456 S    
O15   C5    1.293923 A    
C80   H25   1.110376 S    
C3    C64   1.484669 S    
C94   H64   1.115200 S    
C13   C15   1.412328 A    
C92   H56   1.108936 S    
V2    O20   1.707131 S    
C14   C16   1.417469 A    
C49   H10   1.077483 S    
C28   C36   1.414064 A    
C78   H22   1.112480 S    
C70   C72   1.414902 A    
C68   C70   1.422592 A    
C64   C66   1.400273 A    
C5    C25   1.489830 S    
O9    C5    1.305838 A    
O13   V1    2.154964 S    
C28   C30   1.401563 A    
C10   C12   1.401028 A    
C86   H41   1.111349 S    
C96   H70   1.114650 S    
O2    C4    1.297929 A    
C93   H62   1.107650 S    
C94   H65   1.109270 S    
C85   H44   1.109841 S    
C79   H28   1.107939 S    
O4    V2    1.980637 S    
C33   C37   1.447934 A    
C83   H39   1.110561 S    
C28   O30   1.383876 S    
C99   H79   1.112618 S    
C15   C17   1.424086 A    
C63   C65   1.395377 A    
C37   C38   1.444054 A    
C55   C58   1.409945 A    
C30   O27   1.388630 S    
C98   H77   1.113555 S    
C40   C42   1.392308 A    
C16   C18   1.421520 A    
C85   C86   1.526880 S    
C81   C82   1.518853 S    
C88   H49   1.112085 S    
C54   C60   1.405458 A    
C75   O23   1.381953 S    
O26   C94   1.413486 S    
C6    C26   1.486020 S    
C91   H59   1.108516 S    
C58   H14   1.076302 S    
O22   C78   1.410493 S    
C91   C92   1.526680 S    
C61   C71   1.411463 A    
