data_mof_unit_16510.cif
_audit_creation_date              2012-12-11T14:01:24-0500
_audit_creation_method            fapswitch 2.2
_symmetry_space_group_name_H-M    P1
_symmetry_Int_Tables_number       1
_space_group_crystal_system       triclinic
_cell_length_a                    18.977749
_cell_length_b                    10.976776
_cell_length_c                    18.857519
_cell_angle_alpha                 90.509999
_cell_angle_beta                  90.240626
_cell_angle_gamma                 90.172662
_cell_volume                      3928.08609283

loop_
_atom_site_label
_atom_site_type_symbol
_atom_type_description
_atom_site_fract_x
_atom_site_fract_y
_atom_site_fract_z
_atom_type_partial_charge
C1    C     C_R   0.288008 0.003867 0.861411 0.559807
C2    C     C_R   0.727410 0.041757 0.146373 0.555653
C3    C     C_R   0.788008 0.503867 0.861411 0.559806
C4    C     C_R   0.227410 0.541756 0.146373 0.555653
C5    C     C_R   0.484760 0.054239 0.074958 -0.095891
C6    C     C_R   0.510528 0.056544 0.929816 -0.096853
C7    C     C_R   0.984760 0.554239 0.074958 -0.095891
C8    C     C_R   0.010528 0.556544 0.929816 -0.096852
C9    C     C_R   0.989847 0.665310 0.039811 0.105711
C10   C     C_R   0.005104 0.666496 0.967192 0.105583
C11   C     C_R   0.489847 0.165310 0.039811 0.105711
C12   C     C_R   0.505104 0.166496 0.967192 0.105583
C13   C     C_2   0.249050 0.582019 0.920677 -0.112989
C14   C     C_2   0.757608 0.562127 0.087149 -0.116935
C15   C     C_2   0.749050 0.082019 0.920677 -0.112989
C16   C     C_2   0.257608 0.062127 0.087149 -0.116935
C17   C     C_2   0.249747 0.586177 0.077316 -0.111174
C18   C     C_2   0.770500 0.538204 0.933880 -0.104775
C19   C     C_2   0.749747 0.086177 0.077316 -0.111174
C20   C     C_2   0.270500 0.038204 0.933880 -0.104776
C21   C     C_2   0.294168 0.520854 0.036928 -0.152073
C22   C     C_2   0.724134 0.474241 0.972444 -0.159371
C23   C     C_2   0.794168 0.020855 0.036928 -0.152074
C24   C     C_2   0.224134 0.974241 0.972444 -0.159371
C25   C     C_2   0.303511 0.547229 0.961434 -0.151104
C26   C     C_2   0.708036 0.510568 0.045828 -0.153534
C27   C     C_2   0.803512 0.047230 0.961434 -0.151104
C28   C     C_2   0.208036 0.010568 0.045828 -0.153534
C29   C     C_2   0.487567 0.828163 0.572471 -0.092282
C30   C     C_2   0.489855 0.838660 0.416638 -0.113683
C31   C     C_2   0.987571 0.328161 0.572473 -0.092281
C32   C     C_2   0.989857 0.338664 0.416639 -0.113663
C33   C     C_2   0.472825 0.739790 0.453333 -0.155141
C34   C     C_2   0.457721 0.745649 0.528431 -0.137492
C35   C     C_2   0.972821 0.239797 0.453335 -0.155140
C36   C     C_2   0.957711 0.245667 0.528430 -0.137502
C37   C     C_2   0.245475 0.565372 0.583591 -0.023092
C38   C     C_2   0.748760 0.608610 0.428475 -0.024754
C39   C     C_2   0.745476 0.065357 0.583594 -0.023087
C40   C     C_2   0.248761 0.108598 0.428471 -0.024739
C41   C     C_2   0.239474 0.576788 0.425535 0.093393
C42   C     C_2   0.745763 0.603845 0.586011 0.077279
C43   C     C_2   0.739471 0.076779 0.425536 0.093364
C44   C     C_2   0.245766 0.103837 0.586008 0.077292
C45   C     C_R   0.471238 0.822565 0.853465 0.533734
C46   C     C_R   0.528384 0.821821 0.146892 0.536926
C47   C     C_R   0.971238 0.322565 0.853465 0.533734
C48   C     C_R   0.028384 0.321821 0.146892 0.536926
C49   C     C_2   0.187146 0.547447 0.470582 -0.093957
C50   C     C_2   0.794364 0.655560 0.545182 -0.106826
C51   C     C_2   0.687162 0.047363 0.470587 -0.093958
C52   C     C_2   0.294370 0.155535 0.545175 -0.106834
C53   C     C_2   0.187172 0.582547 0.544845 0.079728
C54   C     C_2   0.782278 0.687327 0.472908 0.089780
C55   C     C_2   0.687177 0.082518 0.544841 0.079753
C56   C     C_2   0.282271 0.187319 0.472907 0.089796
C57   C     C_R   0.261095 0.637068 0.851647 0.542755
C58   C     C_R   0.739958 0.633090 0.150088 0.552188
C59   C     C_R   0.761095 0.137068 0.851647 0.542752
C60   C     C_R   0.239958 0.133090 0.150088 0.552187
C61   C     C_R   0.270960 0.048357 0.650122 0.566237
C62   C     C_R   0.727361 0.045789 0.352169 0.555427
C63   C     C_R   0.770959 0.548359 0.650123 0.566237
C64   C     C_R   0.227360 0.545787 0.352170 0.555448
C65   C     C_R   0.468049 0.823007 0.646374 0.551637
C66   C     C_R   0.528230 0.824631 0.350998 0.548987
C67   C     C_R   0.968051 0.323007 0.646376 0.551637
C68   C     C_R   0.028231 0.324631 0.350999 0.548997
C69   C     C_R   0.259638 0.634078 0.647557 0.573120
C70   C     C_R   0.738680 0.642401 0.355684 0.560570
C71   C     C_R   0.759639 0.134080 0.647556 0.573120
C72   C     C_R   0.238680 0.142397 0.355682 0.560584
C73   C     C_R   0.500112 0.829681 0.074694 0.002084
C74   C     C_R   0.498524 0.831243 0.926148 0.003016
C75   C     C_R   0.000112 0.329681 0.074694 0.002084
C76   C     C_R   0.998524 0.331243 0.926148 0.003016
C77   C     C_R   0.495140 0.942576 0.038708 -0.007690
C78   C     C_R   0.501371 0.943603 0.964001 -0.010987
C79   C     C_R   0.995140 0.442576 0.038708 -0.007690
C80   C     C_R   0.001371 0.443603 0.964001 -0.010987
C81   C     C_R   0.500641 0.721427 0.963305 -0.139850
C82   C     C_R   0.499843 0.720602 0.035835 -0.141084
C83   C     C_R   0.000640 0.221427 0.963305 -0.139850
C84   C     C_R   0.999843 0.220602 0.035835 -0.141084
Cr1   Cr    Cr6+3 0.230530 0.836340 0.748870 1.061870
Cr2   Cr    Cr6+3 0.769470 0.836340 0.251130 1.062949
Cr3   Cr    Cr6+3 0.730530 0.336340 0.748870 1.061874
Cr4   Cr    Cr6+3 0.269470 0.336340 0.251130 1.062941
Cr5   Cr    Cr6+3 0.387420 0.989430 0.750820 1.038030
Cr6   Cr    Cr6+3 0.612580 0.989430 0.249180 1.037697
Cr7   Cr    Cr6+3 0.887420 0.489430 0.750820 1.038034
Cr8   Cr    Cr6+3 0.112580 0.489430 0.249180 1.037697
Cr9   Cr    Cr6+3 0.385640 0.677860 0.749230 1.039953
Cr10  Cr    Cr6+3 0.614360 0.677860 0.250770 1.050242
Cr11  Cr    Cr6+3 0.885640 0.177860 0.749230 1.039952
Cr12  Cr    Cr6+3 0.114360 0.177860 0.250770 1.050251
H1    H     H_    0.499625 0.633834 0.936384 0.180038
H2    H     H_    0.502715 0.632677 0.061348 0.179469
H3    H     H_    0.999625 0.133834 0.936384 0.180038
H4    H     H_    0.002715 0.132678 0.061348 0.179469
H5    H     H_    0.138911 0.505130 0.450753 0.121310
H6    H     H_    0.848062 0.671121 0.563517 0.128734
H7    H     H_    0.638948 0.004965 0.450764 0.121292
H8    H     H_    0.348073 0.171078 0.563502 0.128729
H9    H     H_    0.289182 0.513437 0.562466 0.081919
H10   H     H_    0.726607 0.523151 0.446675 0.090439
H11   H     H_    0.789183 0.013407 0.562476 0.081882
H12   H     H_    0.226620 0.023127 0.446668 0.090431
H13   H     H_    0.471279 0.056453 0.130596 0.152299
H14   H     H_    0.524158 0.060773 0.874306 0.159145
H15   H     H_    0.971279 0.556453 0.130596 0.152300
H16   H     H_    0.024159 0.560773 0.874306 0.159147
H17   H     H_    0.323274 0.444827 0.058791 0.191943
H18   H     H_    0.694662 0.399129 0.948793 0.180663
H19   H     H_    0.823274 0.944827 0.058791 0.191943
H20   H     H_    0.194662 0.899129 0.948793 0.180663
H21   H     H_    0.356339 0.539929 0.939864 0.181644
H22   H     H_    0.653898 0.502579 0.063746 0.182209
H23   H     H_    0.856340 0.039929 0.939864 0.181644
H24   H     H_    0.153898 0.002580 0.063746 0.182209
H25   H     H_    0.222162 0.664035 0.055426 0.121077
H26   H     H_    0.797741 0.616747 0.956473 0.130160
H27   H     H_    0.722162 0.164035 0.055427 0.121077
H28   H     H_    0.297742 0.116747 0.956473 0.130160
H29   H     H_    0.196054 0.585716 0.942254 0.122311
H30   H     H_    0.812176 0.565085 0.069931 0.117323
H31   H     H_    0.696054 0.085716 0.942254 0.122311
H32   H     H_    0.312176 0.065085 0.069931 0.117323
H33   H     H_    0.474627 0.649456 0.429381 0.156584
H34   H     H_    0.424370 0.673215 0.548651 0.167886
H35   H     H_    0.974623 0.149459 0.429385 0.156571
H36   H     H_    0.924343 0.173256 0.548648 0.167887
H37   H     H_    0.484487 0.929460 0.439377 0.099664
H38   H     H_    0.520784 0.901327 0.553677 0.080406
H39   H     H_    0.984492 0.429466 0.439378 0.099661
H40   H     H_    0.020806 0.401296 0.553681 0.080413
O1    O     O_R   0.215090 0.709860 0.828130 -0.510757
O2    O     O_R   0.784910 0.709860 0.171870 -0.502816
O3    O     O_R   0.715090 0.209860 0.828130 -0.510761
O4    O     O_R   0.284910 0.209860 0.171870 -0.502817
O5    O     O_R   0.445660 0.919250 0.676780 -0.494497
O6    O     O_R   0.554340 0.919250 0.323220 -0.507768
O7    O     O_R   0.945660 0.419250 0.676780 -0.494488
O8    O     O_R   0.054340 0.419250 0.323220 -0.507773
O9    O     O_R   0.456260 0.718170 0.670000 -0.511448
O10   O     O_R   0.543740 0.718170 0.330000 -0.506675
O11   O     O_R   0.956260 0.218170 0.670000 -0.511445
O12   O     O_R   0.043740 0.218170 0.330000 -0.506670
O13   O     O_R   0.320940 0.626760 0.674370 -0.518089
O14   O     O_R   0.679060 0.626760 0.325630 -0.503992
O15   O     O_R   0.820940 0.126760 0.674370 -0.518093
O16   O     O_R   0.179060 0.126760 0.325630 -0.503985
O17   O     O_3   0.334530 0.834540 0.749640 -0.276772
O18   O     O_3   0.665470 0.834540 0.250360 -0.259954
O19   O     O_3   0.834530 0.334540 0.749640 -0.276772
O20   O     O_3   0.165470 0.334540 0.250360 -0.259951
O21   O     O_R   0.236990 0.958390 0.823710 -0.483714
O22   O     O_R   0.763010 0.958390 0.176290 -0.491019
O23   O     O_R   0.736990 0.458390 0.823710 -0.483715
O24   O     O_R   0.263010 0.458390 0.176290 -0.491020
O25   O     O_R   0.332380 0.074750 0.830850 -0.497068
O26   O     O_R   0.667620 0.074750 0.169150 -0.498236
O27   O     O_R   0.832380 0.574750 0.830850 -0.497070
O28   O     O_R   0.167620 0.574750 0.169150 -0.498235
O29   O     O_R   0.445800 0.917770 0.825070 -0.519925
O30   O     O_R   0.554200 0.917770 0.174930 -0.505458
O31   O     O_R   0.945800 0.417770 0.825070 -0.519925
O32   O     O_R   0.054200 0.417770 0.174930 -0.505457
O33   O     O_R   0.456410 0.716580 0.829970 -0.508081
O34   O     O_R   0.543590 0.716580 0.170030 -0.509290
O35   O     O_R   0.956410 0.216580 0.829970 -0.508082
O36   O     O_R   0.043590 0.216580 0.170030 -0.509290
O37   O     O_R   0.321080 0.625290 0.822650 -0.493960
O38   O     O_R   0.678920 0.625290 0.177350 -0.492067
O39   O     O_R   0.821080 0.125290 0.822650 -0.493961
O40   O     O_R   0.178920 0.125290 0.177350 -0.492069
O41   O     O_R   0.214930 0.711450 0.668160 -0.463327
O42   O     O_R   0.785070 0.711450 0.331840 -0.473264
O43   O     O_R   0.714930 0.211450 0.668160 -0.463319
O44   O     O_R   0.285070 0.211450 0.331840 -0.473282
O45   O     O_R   0.236850 0.959870 0.675420 -0.493005
O46   O     O_R   0.763150 0.959870 0.324580 -0.480606
O47   O     O_R   0.736850 0.459870 0.675420 -0.492997
O48   O     O_R   0.263150 0.459870 0.324580 -0.480596
O49   O     O_R   0.332230 0.076350 0.670880 -0.526395
O50   O     O_R   0.667770 0.076350 0.329120 -0.524803
O51   O     O_R   0.832230 0.576350 0.670880 -0.526397
O52   O     O_R   0.167770 0.576350 0.329120 -0.524825
N1    N     N_3   0.125633 0.640648 0.573334 -0.584019
H41   H     H_    0.082844 0.581806 0.566282 0.211464
H42   H     H_    0.115788 0.718633 0.543483 0.235275
N2    N     N_3   0.813081 0.799677 0.449599 -0.570598
H43   H     H_    0.867537 0.795851 0.457953 0.216693
H44   H     H_    0.793243 0.868839 0.481646 0.223524
N3    N     N_3   0.625644 0.140685 0.573303 -0.584007
H45   H     H_    0.582849 0.081851 0.566279 0.211481
H46   H     H_    0.615810 0.218635 0.543416 0.235272
N4    N     N_3   0.313046 0.299696 0.449607 -0.570631
H47   H     H_    0.367502 0.295900 0.457946 0.216694
H48   H     H_    0.293204 0.368825 0.481672 0.223517
N5    N     N_3   0.302764 0.638179 0.447566 -0.665975
H49   H     H_    0.345264 0.583200 0.432984 0.226077
H50   H     H_    0.306546 0.719088 0.418981 0.230170
N6    N     N_3   0.673069 0.594321 0.564883 -0.638346
H51   H     H_    0.659597 0.501982 0.561847 0.239278
H52   H     H_    0.642586 0.634139 0.604843 0.240144
N7    N     N_3   0.802712 0.138317 0.447560 -0.665971
H53   H     H_    0.845252 0.083492 0.432924 0.226079
H54   H     H_    0.806395 0.219268 0.419015 0.230170
N8    N     N_3   0.173070 0.094331 0.564885 -0.638328
H55   H     H_    0.159587 0.001994 0.561853 0.239272
H56   H     H_    0.142592 0.134166 0.604844 0.240138
I1    I     I_    0.976361 0.827258 0.100343 -0.412387
I2    I     I_    0.019446 0.830446 0.910278 -0.406357
I3    I     I_    0.476361 0.327258 0.100344 -0.412390
I4    I     I_    0.519446 0.330446 0.910278 -0.406359

loop_
_geom_bond_atom_site_label_1
_geom_bond_atom_site_label_2
_ccdc_geom_bond_type
C16   C28   D    
C55   N3    S    
C38   C70   S    
Cr10  O10   S    
C37   C69   S    
C82   H2    S    
N5    H49   S    
C42   N6    S    
C35   C36   S    
C70   O14   A    
C36   H36   S    
C67   O7    A    
C2    O26   A    
C81   C82   A    
Cr12  O20   S    
C77   C78   A    
C31   C67   S    
C19   H27   S    
C50   C54   S    
C75   C79   A    
C54   N2    S    
Cr6   O26   S    
Cr4   O20   S    
Cr7   O31   S    
C47   C76   S    
C5    C11   A    
C59   O39   A    
C8    H16   S    
C6    C12   A    
Cr5   O5    S    
C75   C84   A    
Cr4   O48   S    
C13   C57   S    
C51   H7    S    
Cr12  O16   S    
Cr2   O42   S    
C65   O5    A    
N7    H54   S    
C3    C18   S    
C16   C60   S    
C71   O43   A    
N1    H42   S    
Cr11  O39   S    
Cr4   O4    S    
C21   C25   S    
Cr12  O36   S    
C69   O41   A    
C48   O36   A    
C15   C27   D    
C41   C49   D    
C71   O15   A    
C20   C24   D    
Cr3   O23   S    
C72   O16   A    
C38   C54   D    
C76   C80   A    
C4    O28   A    
Cr9   O9    S    
N4    H47   S    
C23   C27   S    
Cr6   O18   S    
C40   C72   S    
C9    C10   A    
Cr11  O19   S    
C68   O12   A    
C3    O27   A    
C62   O50   A    
C37   C53   D    
Cr8   O28   S    
Cr4   O24   S    
C29   H38   S    
C1    O25   A    
C15   H31   S    
Cr6   O30   S    
C41   N5    S    
C3    O23   A    
N5    H50   S    
C48   C75   S    
Cr7   O27   S    
C58   O38   A    
Cr1   O21   S    
Cr12  O12   S    
C76   C83   A    
Cr5   O25   S    
Cr9   O37   S    
Cr4   O44   S    
Cr7   O7    S    
N4    H48   S    
C14   C58   S    
C39   C55   D    
C63   O47   A    
Cr8   O8    S    
C43   N7    S    
N7    H53   S    
C84   H4    S    
C32   C35   D    
C24   C28   S    
Cr11  O11   S    
C79   C80   A    
C21   H17   S    
C28   H24   S    
C56   N4    S    
C70   O42   A    
Cr1   O17   S    
C61   O45   A    
Cr6   O50   S    
C51   C55   S    
C9    I1    S    
C39   C71   S    
C23   H19   S    
C29   C34   D    
C17   C21   D    
C46   O34   A    
C45   O33   A    
C45   C74   S    
N2    H44   S    
C6    H14   S    
C19   C23   D    
C18   H26   S    
C37   H9    S    
Cr3   O47   S    
C31   H40   S    
C62   O46   A    
C47   O31   A    
Cr8   O32   S    
Cr5   O17   S    
C83   C84   A    
C48   O32   A    
Cr1   O41   S    
C59   O3    A    
C42   C50   D    
C2    O22   A    
C30   H37   S    
Cr9   O33   S    
C38   H10   S    
C61   O49   A    
C33   C34   S    
C57   O1    A    
Cr8   O20   S    
C40   C56   D    
C64   O52   A    
C14   C26   D    
Cr2   O22   S    
Cr5   O29   S    
C30   C66   S    
C60   O4    A    
C57   O37   A    
Cr9   O13   S    
C17   H25   S    
N6    H52   S    
C24   H20   S    
N8    H56   S    
C74   C78   A    
C60   O40   A    
C29   C65   S    
Cr11  O15   S    
Cr7   O19   S    
C4    C17   S    
C74   C81   A    
C5    C77   A    
Cr1   O1    S    
C73   C82   A    
C66   O10   A    
C7    C79   A    
C33   H33   S    
C7    C9    A    
Cr7   O51   S    
C52   H8    S    
C1    C20   S    
Cr1   O45   S    
C46   O30   A    
C30   C33   D    
C2    C19   S    
C18   C22   D    
Cr5   O49   S    
Cr10  O38   S    
C10   I2    S    
C26   H22   S    
Cr3   O3    S    
Cr2   O46   S    
C13   C25   D    
C25   H21   S    
C44   C52   D    
Cr12  O40   S    
C32   H39   S    
C47   O35   A    
C11   C12   A    
Cr8   O52   S    
C50   H6    S    
C66   O6    A    
Cr3   O19   S    
C27   H23   S    
C44   C61   S    
Cr6   O6    S    
C63   O51   A    
C14   H30   S    
C40   H12   S    
C69   O13   A    
N2    H43   S    
C72   O44   A    
Cr9   O17   S    
Cr2   O18   S    
C35   H35   S    
C13   H29   S    
Cr10  O34   S    
C32   C68   S    
C49   H5    S    
Cr10  O18   S    
C58   O2    A    
C4    O24   A    
C45   O29   A    
C43   C51   D    
C49   C53   S    
C65   O9    A    
C1    O21   A    
C81   H1    S    
C7    H15   S    
C68   O8    A    
C44   N8    S    
C16   H32   S    
N1    H41   S    
C39   H11   S    
C15   C59   S    
C20   H28   S    
C6    C78   A    
Cr2   O2    S    
Cr3   O43   S    
N3    H45   S    
C64   O48   A    
Cr10  O14   S    
C22   H18   S    
N6    H51   S    
C34   H34   S    
C73   C77   A    
C8    C10   A    
N8    H55   S    
C22   C26   S    
C67   O11   A    
C8    C80   A    
C12   I4    S    
C31   C36   D    
C83   H3    S    
C5    H13   S    
C41   C64   S    
Cr11  O35   S    
C53   N1    S    
C42   C63   S    
C46   C73   S    
C52   C56   S    
C43   C62   S    
C11   I3    S    
N3    H46   S    
