data_mof_unit_44599.cif
_audit_creation_date              2012-12-11T14:47:26-0500
_audit_creation_method            fapswitch 2.2
_symmetry_space_group_name_H-M    P1
_symmetry_Int_Tables_number       1
_space_group_crystal_system       triclinic
_cell_length_a                    19.40845
_cell_length_b                    6.971945
_cell_length_c                    19.393192
_cell_angle_alpha                 89.997898
_cell_angle_beta                  96.189695
_cell_angle_gamma                 90.000716
_cell_volume                      2608.88489766

loop_
_atom_site_label
_atom_site_type_symbol
_atom_type_description
_atom_site_fract_x
_atom_site_fract_y
_atom_site_fract_z
_atom_type_partial_charge
O1    O     O_R   0.673510 0.377480 0.186100 -0.536234
O2    O     O_R   0.326490 0.622520 0.813900 -0.536225
O3    O     O_R   0.826490 0.877480 0.313900 -0.536183
O4    O     O_R   0.173510 0.122520 0.686100 -0.536203
O5    O     O_R   0.807790 0.705750 0.184090 -0.528730
O6    O     O_R   0.192210 0.294250 0.815910 -0.528763
O7    O     O_R   0.692210 0.205750 0.315910 -0.528810
O8    O     O_R   0.307790 0.794250 0.684090 -0.528795
C1    C     C_1   0.478010 0.994212 0.521064 -0.030454
C2    C     C_1   0.521987 0.005786 0.478933 -0.030439
C3    C     C_1   0.021989 0.494204 0.978935 -0.030448
C4    C     C_1   0.978009 0.505783 0.021064 -0.030464
C5    C     C_R   0.830872 0.538280 0.166264 0.718234
C6    C     C_R   0.169127 0.461719 0.833735 0.718207
C7    C     C_R   0.669126 0.038275 0.333734 0.718152
C8    C     C_R   0.330873 0.961725 0.666266 0.718178
O9    O     O_R   0.672870 0.707110 0.178120 -0.531297
O10   O     O_R   0.327130 0.292890 0.821880 -0.531299
O11   O     O_R   0.827130 0.207110 0.321880 -0.531328
O12   O     O_R   0.172870 0.792890 0.678120 -0.531314
O13   O     O_R   0.690610 0.878650 0.307880 -0.516736
O14   O     O_R   0.309390 0.121350 0.692120 -0.516731
O15   O     O_R   0.809390 0.378650 0.192120 -0.516737
O16   O     O_R   0.190610 0.621350 0.807880 -0.516733
C9    C     C_R   0.647872 0.538199 0.160811 0.708932
C10   C     C_R   0.352126 0.461802 0.839191 0.708963
C11   C     C_R   0.852124 0.038196 0.339192 0.709093
C12   C     C_R   0.147874 0.961804 0.660810 0.709035
C13   C     C_1   0.382675 0.971624 0.614052 -0.210862
C14   C     C_1   0.617323 0.028374 0.385946 -0.210870
C15   C     C_1   0.117327 0.471610 0.885950 -0.210840
C16   C     C_1   0.882672 0.528388 0.114048 -0.210807
O17   O     O_3   0.755980 0.544260 0.292580 -0.359308
O18   O     O_3   0.244020 0.455740 0.707420 -0.359297
O19   O     O_3   0.744020 0.044260 0.207420 -0.359278
O20   O     O_3   0.255980 0.955740 0.792580 -0.359287
V1    V     V_3+5 0.748890 0.818640 0.242100 1.422407
V2    V     V_3+5 0.251110 0.181360 0.757900 1.422346
V3    V     V_3+5 0.751110 0.318640 0.257900 1.422236
V4    V     V_3+5 0.248890 0.681360 0.742100 1.422269
C17   C     C_R   0.085053 0.971345 0.609729 -0.093893
C18   C     C_R   0.914940 0.028662 0.390280 -0.093903
C19   C     C_R   0.414947 0.471339 0.890272 -0.093887
C20   C     C_R   0.585049 0.528659 0.109733 -0.093881
C21   C     C_1   0.426065 0.981320 0.571260 -0.014726
C22   C     C_1   0.573932 0.018678 0.428737 -0.014699
C23   C     C_1   0.073936 0.481307 0.928742 -0.014775
C24   C     C_1   0.926062 0.518686 0.071256 -0.014809
C25   C     C_R   0.039703 0.067556 0.420736 -0.206022
C26   C     C_R   0.960288 0.932467 0.579274 -0.206035
C27   C     C_R   0.460286 0.567562 0.079265 -0.206052
C28   C     C_R   0.539709 0.432428 0.920740 -0.206049
C29   C     C_R   0.981544 0.069288 0.370539 -0.005997
C30   C     C_R   0.018447 0.930728 0.629472 -0.005957
C31   C     C_R   0.518441 0.569295 0.129472 -0.005890
C32   C     C_R   0.481555 0.430700 0.870534 -0.005905
C33   C     C_R   0.908384 0.982101 0.459881 -0.240069
C34   C     C_R   0.091607 0.017914 0.540128 -0.240043
C35   C     C_R   0.591604 0.482073 0.040134 -0.240013
C36   C     C_R   0.408391 0.517920 0.959871 -0.240027
C37   C     C_R   0.966931 0.978018 0.509817 0.140997
C38   C     C_R   0.033060 0.022003 0.490193 0.140978
C39   C     C_R   0.533061 0.477993 0.990195 0.140985
C40   C     C_R   0.466934 0.521997 0.009811 0.140993
H1    H     H_    0.142507 0.049637 0.524842 0.107368
H2    H     H_    0.857484 0.950375 0.475166 0.107365
H3    H     H_    0.357491 0.549658 0.975152 0.107365
H4    H     H_    0.642504 0.450336 0.024853 0.107368
H5    H     H_    0.090564 0.098299 0.405135 0.121570
H6    H     H_    0.909426 0.901730 0.594873 0.121541
H7    H     H_    0.409422 0.598309 0.094856 0.121501
H8    H     H_    0.590572 0.401676 0.905148 0.121512
C41   C     C_R   0.007519 0.894662 0.702703 0.080777
C42   C     C_R   0.977047 0.722477 0.721692 -0.139154
C43   C     C_R   0.963525 0.692951 0.790272 -0.120041
C44   C     C_R   0.979868 0.835400 0.840093 -0.083461
C45   C     C_R   0.010509 0.006544 0.821677 -0.124726
C46   C     C_R   0.024202 0.036629 0.753228 -0.125401
H9    H     H_    0.963640 0.611736 0.683406 0.111574
H10   H     H_    0.940059 0.560079 0.804737 0.115347
H11   H     H_    0.968628 0.813562 0.892958 0.116941
H12   H     H_    0.022957 0.116654 0.860310 0.118847
H13   H     H_    0.046517 0.171820 0.739371 0.104138
C47   C     C_R   0.992469 0.105325 0.297310 0.080811
C48   C     C_R   0.022801 0.277665 0.278286 -0.139159
C49   C     C_R   0.036333 0.307157 0.209707 -0.120059
C50   C     C_R   0.020142 0.164519 0.159925 -0.083421
C51   C     C_R   0.989642 0.993212 0.178379 -0.124774
C52   C     C_R   0.975932 0.963171 0.246825 -0.125393
H14   H     H_    0.036094 0.388544 0.316545 0.111558
H15   H     H_    0.059692 0.440144 0.195215 0.115329
H16   H     H_    0.031393 0.186331 0.107062 0.116922
H17   H     H_    0.977323 0.882938 0.139778 0.118826
H18   H     H_    0.953719 0.827872 0.260713 0.104061
C53   C     C_R   0.492490 0.394596 0.797305 0.080758
C54   C     C_R   0.523115 0.222568 0.778361 -0.139145
C55   C     C_R   0.536632 0.193008 0.709782 -0.120032
C56   C     C_R   0.520133 0.335269 0.659914 -0.083490
C57   C     C_R   0.489341 0.506252 0.678283 -0.124669
C58   C     C_R   0.475659 0.536376 0.746731 -0.125410
H19   H     H_    0.536641 0.111970 0.816682 0.111588
H20   H     H_    0.560214 0.060256 0.695355 0.115353
H21   H     H_    0.531368 0.313410 0.607050 0.116936
H22   H     H_    0.476767 0.616210 0.639611 0.118848
H23   H     H_    0.453233 0.671462 0.760548 0.104216
C59   C     C_R   0.507504 0.605418 0.202702 0.080740
C60   C     C_R   0.476818 0.777371 0.221628 -0.139148
C61   C     C_R   0.463294 0.806935 0.290205 -0.120021
C62   C     C_R   0.479848 0.664754 0.340089 -0.083513
C63   C     C_R   0.510701 0.493849 0.321739 -0.124648
C64   C     C_R   0.524387 0.463718 0.253293 -0.125406
H24   H     H_    0.463249 0.887907 0.183296 0.111598
H25   H     H_    0.439661 0.939625 0.304617 0.115364
H26   H     H_    0.468607 0.686614 0.392951 0.116941
H27   H     H_    0.523318 0.383953 0.360424 0.118856
H28   H     H_    0.546855 0.328677 0.239491 0.104247

loop_
_geom_bond_atom_site_label_1
_geom_bond_atom_site_label_2
_ccdc_geom_bond_type
C34   C38   A    
C32   C53   S    
C50   C51   A    
C1    C21   S    
O5    V1    S    
C41   C42   A    
C5    C16   S    
C3    C23   S    
C53   C54   A    
O10   C10   A    
C6    C15   S    
C4    C24   S    
C55   C56   A    
C45   C46   A    
C58   H23   S    
O17   V3    S    
C29   C47   S    
O18   V4    S    
O19   V1    S    
C17   C34   A    
C49   H15   S    
C18   C29   A    
O12   V4    S    
C25   C29   A    
C59   C60   A    
C20   C35   A    
C56   H21   S    
O14   V2    S    
C12   C17   S    
C61   C62   A    
C5    O15   A    
C60   H24   S    
C6    O16   A    
C52   H18   S    
C63   C64   A    
C46   H13   S    
C36   H3    S    
C2    C22   S    
C41   C46   A    
O6    V2    S    
C64   H28   S    
O11   C11   A    
C43   H10   S    
C33   H2    S    
O5    C5    A    
C55   H20   S    
O7    C7    A    
C57   H22   S    
O8    C8    A    
C15   C23   T    
C54   H19   S    
O1    C9    A    
C16   C24   T    
C27   H7    S    
C9    C20   S    
O4    C12   A    
C10   C19   S    
C59   C64   A    
C42   C43   A    
C31   C59   S    
O20   V4    S    
C47   C48   A    
C53   C58   A    
C49   C50   A    
O12   C12   A    
C8    C13   S    
C48   C49   A    
C18   C33   A    
C13   C21   T    
C61   H25   S    
O19   V3    S    
C43   C44   A    
C28   H8    S    
C35   H4    S    
O6    C6    A    
C30   C41   S    
C34   H1    S    
C57   C58   A    
C60   C61   A    
C54   C55   A    
O2    C10   A    
O9    V1    S    
C44   C45   A    
O11   V3    S    
C62   H26   S    
C19   C36   A    
O4    V2    S    
C42   H9    S    
C47   C52   A    
C7    C14   S    
C1    C2    T    
C51   H17   S    
C8    O14   A    
C25   C38   A    
O18   V2    S    
C14   C22   T    
C27   C40   A    
C28   C39   A    
C44   H11   S    
C48   H14   S    
C33   C37   A    
C35   C39   A    
C36   C40   A    
O9    C9    A    
O3    C11   A    
O10   V2    S    
C26   C30   A    
C62   C63   A    
C11   C18   S    
C45   H12   S    
O15   V3    S    
O20   V2    S    
O16   V4    S    
C20   C31   A    
C27   C31   A    
C26   H6    S    
C37   C38   A    
O17   V1    S    
C17   C30   A    
O1    V3    S    
C39   C40   A    
O2    V4    S    
C19   C32   A    
C7    O13   A    
O13   V1    S    
C51   C52   A    
O3    V1    S    
C56   C57   A    
C26   C37   A    
O7    V3    S    
C25   H5    S    
O8    V4    S    
C50   H16   S    
C63   H27   S    
C28   C32   A    
C3    C4    T    
