data_mof_unit_38016.cif
_audit_creation_date              2012-12-11T16:58:24-0500
_audit_creation_method            fapswitch 2.2
_symmetry_space_group_name_H-M    P1
_symmetry_Int_Tables_number       1
_space_group_crystal_system       triclinic
_cell_length_a                    16.882881
_cell_length_b                    7.26341
_cell_length_c                    16.821505
_cell_angle_alpha                 89.999774
_cell_angle_beta                  100.287052
_cell_angle_gamma                 90.000243
_cell_volume                      2029.61726492

loop_
_atom_site_label
_atom_site_type_symbol
_atom_type_description
_atom_site_fract_x
_atom_site_fract_y
_atom_site_fract_z
_atom_type_partial_charge
O1    O     O_R   0.413450 0.494370 0.415710 -0.525759
O2    O     O_R   0.586550 0.994370 0.584290 -0.525759
O3    O     O_R   0.578420 0.819350 0.429360 -0.512386
O4    O     O_R   0.421580 0.319350 0.570640 -0.512390
C1    C     C_R   0.606198 0.657220 0.415193 0.741872
C2    C     C_R   0.393800 0.157219 0.584807 0.741870
O5    O     O_R   0.413570 0.823780 0.406240 -0.549381
O6    O     O_R   0.586430 0.323780 0.593760 -0.549383
O7    O     O_R   0.420530 0.998740 0.561000 -0.543915
O8    O     O_R   0.579470 0.498740 0.439000 -0.543923
C3    C     C_R   0.386755 0.655332 0.383064 0.694474
C4    C     C_R   0.613245 0.155332 0.616936 0.694466
O9    O     O_3   0.502480 0.662320 0.550800 -0.379366
O10   O     O_3   0.497520 0.162320 0.449200 -0.379366
V1    V     V_3+5 0.499540 0.935370 0.490580 1.447219
V2    V     V_3+5 0.500460 0.435370 0.509420 1.447210
C5    C     C_R   0.694489 0.989402 0.736397 0.112154
C6    C     C_R   0.305511 0.489404 0.263603 0.112158
C7    C     C_R   0.679351 0.147408 0.688236 -0.111587
C8    C     C_R   0.320650 0.647409 0.311763 -0.111581
C9    C     C_R   0.729324 0.301023 0.711185 -0.191993
C10   C     C_R   0.270678 0.801025 0.288813 -0.192004
H1    H     H_    0.719947 0.427152 0.676786 0.144544
H2    H     H_    0.280055 0.927151 0.323212 0.144544
C11   C     C_R   0.796005 0.289026 0.774779 -0.182064
C12   C     C_R   0.203997 0.789027 0.225219 -0.182058
H3    H     H_    0.834925 0.407571 0.787796 0.140015
H4    H     H_    0.165076 0.907570 0.212203 0.140016
C13   C     C_R   0.814985 0.122837 0.817553 -0.109047
C14   C     C_R   0.185016 0.622839 0.182446 -0.109044
C15   C     C_R   0.760248 0.977515 0.799174 0.114970
C16   C     C_R   0.239752 0.477517 0.200825 0.114970
C17   C     C_3   0.773594 0.779569 0.782338 -0.431677
C18   C     C_3   0.226400 0.279577 0.217667 -0.431685
C19   C     C_3   0.701402 0.792366 0.713964 -0.411813
C20   C     C_3   0.298592 0.292373 0.286040 -0.411822
H5    H     H_    0.762760 0.689284 0.832667 0.175028
H6    H     H_    0.237232 0.189282 0.167340 0.175030
H7    H     H_    0.831369 0.755541 0.760941 0.172779
H8    H     H_    0.168624 0.255563 0.239063 0.172781
H9    H     H_    0.649007 0.709956 0.725163 0.174613
H10   H     H_    0.350985 0.209953 0.274845 0.174616
H11   H     H_    0.717306 0.774418 0.653084 0.179120
H12   H     H_    0.282687 0.274440 0.346920 0.179120
C21   C     C_R   0.328459 0.161837 0.634192 -0.136160
C22   C     C_R   0.671536 0.661844 0.365804 -0.136157
C23   C     C_R   0.168041 0.108906 0.863331 -0.063250
C24   C     C_R   0.831957 0.608894 0.136669 -0.063263
C25   C     C_R   0.277122 0.938819 0.818229 -0.170046
C26   C     C_R   0.722906 0.438750 0.181799 -0.170074
C27   C     C_R   0.223606 0.962115 0.872101 -0.163229
C28   C     C_R   0.776418 0.462051 0.127924 -0.163226
C29   C     C_R   0.168151 0.234207 0.799929 -0.213555
C30   C     C_R   0.831825 0.734243 0.200049 -0.213567
C31   C     C_R   0.220996 0.209208 0.744435 0.111690
C32   C     C_R   0.778988 0.709235 0.255550 0.111695
C33   C     C_R   0.275786 0.060498 0.753403 0.152706
C34   C     C_R   0.724221 0.560478 0.246604 0.152713
C35   C     C_R   0.328960 0.037430 0.698343 -0.315626
C36   C     C_R   0.671049 0.537409 0.301667 -0.315662
C37   C     C_R   0.270484 0.306362 0.622347 0.430391
C38   C     C_R   0.729497 0.806398 0.377635 0.430402
C39   C     C_R   0.218578 0.329655 0.679414 -0.303883
C40   C     C_R   0.781394 0.829710 0.320560 -0.303907
H13   H     H_    0.372961 0.927197 0.707291 0.143356
H14   H     H_    0.627063 0.427147 0.292734 0.143373
H15   H     H_    0.318719 0.823919 0.826654 0.118518
H16   H     H_    0.681331 0.323807 0.173396 0.118523
H17   H     H_    0.176265 0.442526 0.674673 0.106221
H18   H     H_    0.823695 0.942606 0.325287 0.106216
H19   H     H_    0.224813 0.862842 0.920376 0.124078
H20   H     H_    0.775229 0.362736 0.079668 0.124096
H21   H     H_    0.124812 0.345828 0.791679 0.118683
H22   H     H_    0.875142 0.845909 0.208279 0.118698
O11   O     O_R   0.920630 0.775410 0.061150 -0.533150
O12   O     O_R   0.079370 0.275410 0.938850 -0.533146
O13   O     O_R   0.086500 0.441450 0.093690 -0.536003
O14   O     O_R   0.913500 0.941450 0.906310 -0.536003
C41   C     C_R   0.114065 0.610188 0.116131 0.684816
C42   C     C_R   0.885935 0.110187 0.883868 0.684810
O15   O     O_R   0.921670 0.445960 0.070740 -0.538971
O16   O     O_R   0.078330 0.945960 0.929260 -0.538965
O17   O     O_R   0.913380 0.271130 0.915780 -0.539240
O18   O     O_R   0.086620 0.771130 0.084220 -0.539240
C43   C     C_R   0.895392 0.612770 0.085604 0.685595
C44   C     C_R   0.104606 0.112771 0.914395 0.685594
O19   O     O_3   0.997500 0.603030 0.949220 -0.376947
O20   O     O_3   0.002500 0.103030 0.050780 -0.376951
V3    V     V_3+5 0.000470 0.329940 0.009420 1.391221
V4    V     V_3+5 0.999530 0.829940 0.990580 1.391226
O21   O     O_3   0.270325 0.424689 0.556551 -0.550026
C45   C     C_3   0.197584 0.523312 0.533646 0.073954
H23   H     H_    0.193545 0.635953 0.577553 0.130395
H24   H     H_    0.144381 0.430340 0.528325 0.112414
C46   C     C_3   0.196411 0.612623 0.451854 -0.698279
H25   H     H_    0.201783 0.505912 0.405917 0.220935
H26   H     H_    0.138942 0.688143 0.432975 0.170311
H27   H     H_    0.246967 0.711829 0.455928 0.215305
O22   O     O_3   0.729654 0.924716 0.443432 -0.550031
C47   C     C_3   0.802374 0.023432 0.466310 0.073970
H28   H     H_    0.806379 0.136050 0.422383 0.130393
H29   H     H_    0.855599 0.930524 0.471636 0.112415
C48   C     C_3   0.803537 0.112790 0.548091 -0.698265
H30   H     H_    0.798188 0.006098 0.594045 0.220944
H31   H     H_    0.860993 0.188374 0.566956 0.170304
H32   H     H_    0.752963 0.211946 0.544007 0.215294

loop_
_geom_bond_atom_site_label_1
_geom_bond_atom_site_label_2
_ccdc_geom_bond_type
C2    C21   S    
C20   H10   S    
C46   H25   S    
O1    C3    A    
O2    C4    A    
C2    O7    A    
C46   H27   S    
O14   V4    S    
C24   C30   A    
O13   V3    S    
C17   H7    S    
C27   H19   S    
C22   C38   A    
C18   H8    S    
C7    C9    A    
C41   O18   A    
O14   C42   A    
C33   C35   A    
C34   C36   A    
C25   C33   A    
C37   C39   A    
C47   H28   S    
C38   C40   A    
O11   V4    S    
C17   C19   S    
C30   H22   S    
O11   C43   A    
C39   H17   S    
C25   C27   A    
C31   C39   A    
C26   C28   A    
C32   C40   A    
C40   H18   S    
C19   H11   S    
C18   C20   S    
O19   V4    S    
O12   V3    S    
C23   C29   A    
O15   V3    S    
C29   C31   A    
C36   H14   S    
O6    V2    S    
O18   V4    S    
C42   O17   A    
C45   H24   S    
O13   C41   A    
C11   C13   A    
O17   V3    S    
C30   C32   A    
C3    C8    S    
C15   C17   S    
C26   C34   A    
C23   C44   S    
O4    C2    A    
O21   C45   S    
C23   C27   A    
O5    V1    S    
O16   C44   A    
C47   C48   S    
C17   H5    S    
C16   C18   S    
O4    V2    S    
O5    C3    A    
C28   H20   S    
O22   C47   S    
O10   V1    S    
O6    C4    A    
C47   H29   S    
C48   H31   S    
O1    V2    S    
O2    V1    S    
C14   C41   S    
C8    C10   A    
C12   C14   A    
C31   C33   A    
C5    C15   A    
C10   H2    S    
C20   H12   S    
C6    C16   A    
O12   C44   A    
O3    V1    S    
C9    C11   A    
C21   C35   A    
C25   H15   S    
C22   C36   A    
C18   H6    S    
C29   H21   S    
O3    C1    A    
C46   H26   S    
C11   H3    S    
C1    C22   S    
C12   H4    S    
O16   V4    S    
C9    H1    S    
O7    V1    S    
C1    O8    A    
C13   C15   A    
O8    V2    S    
C35   H13   S    
C14   C16   A    
C13   C42   S    
C26   H16   S    
C4    C7    S    
C21   C37   A    
C45   H23   S    
C5    C7    A    
C32   C34   A    
C48   H32   S    
C6    C8    A    
C45   C46   S    
C19   H9    S    
C38   O22   S    
C24   C28   A    
O20   V3    S    
C10   C12   A    
O9    V2    S    
C48   H30   S    
C24   C43   S    
C5    C19   S    
C6    C20   S    
O15   C43   A    
C37   O21   S    
