data_mof_unit_31791.cif
_audit_creation_date              2012-12-10T18:51:35-0500
_audit_creation_method            fapswitch 2.2
_symmetry_space_group_name_H-M    P1
_symmetry_Int_Tables_number       1
_space_group_crystal_system       triclinic
_cell_length_a                    10.636623
_cell_length_b                    9.862997
_cell_length_c                    10.526259
_cell_angle_alpha                 90.275005
_cell_angle_beta                  90.458335
_cell_angle_gamma                 90.160191
_cell_volume                      1104.24661478

loop_
_atom_site_label
_atom_site_type_symbol
_atom_type_description
_atom_site_fract_x
_atom_site_fract_y
_atom_site_fract_z
_atom_type_partial_charge
Br1   Br    Br    0.154117 0.357664 0.258113 -0.518859
Br2   Br    Br    0.845883 0.642333 0.741894 -0.518844
Br3   Br    Br    0.842386 0.354456 0.258594 -0.402900
Br4   Br    Br    0.157616 0.645522 0.741417 -0.402949
C1    C     C_R   0.872035 0.500152 0.499659 -0.264860
C2    C     C_3   0.511377 0.370980 0.040604 -0.209959
C3    C     C_3   0.402514 0.426602 0.959425 0.009854
C4    C     C_3   0.597480 0.573399 0.040574 0.009843
C5    C     C_3   0.497812 0.500613 0.877224 -0.007050
C6    C     C_3   0.502181 0.499387 0.122776 -0.007063
C7    C     C_R   0.572570 0.072516 0.584661 -0.031198
C8    C     C_R   0.427430 0.927484 0.415339 -0.031222
C9    C     C_R   0.427445 0.071231 0.415326 -0.033285
C10   C     C_R   0.572555 0.928769 0.584674 -0.033292
C11   C     C_R   0.064173 0.437129 0.398835 0.191798
C12   C     C_R   0.127965 0.499846 0.500343 -0.264851
C13   C     C_R   0.935827 0.562868 0.601169 0.191803
C14   C     C_R   0.934231 0.436908 0.398595 0.259734
C15   C     C_R   0.065769 0.563086 0.601410 0.259692
C16   C     C_2   0.292019 0.342517 0.917275 0.465064
C17   C     C_2   0.707972 0.657487 0.082724 0.465102
C18   C     C_R   0.260328 0.499906 0.500366 1.018534
C19   C     C_R   0.739672 0.500094 0.499634 1.018552
C20   C     C_R   0.501227 0.499703 0.257459 0.958575
C21   C     C_R   0.498770 0.500297 0.742541 0.958559
C22   C     C_3   0.392103 0.553962 0.043611 -0.208403
C23   C     C_3   0.607891 0.446038 0.956389 -0.208353
C24   C     C_3   0.488617 0.629020 0.959396 -0.210013
H1    H     H_    0.630671 0.127353 0.652406 0.139121
H2    H     H_    0.765848 0.706737 0.012310 0.119618
H3    H     H_    0.369329 0.872647 0.347594 0.139124
H4    H     H_    0.369401 0.125029 0.347544 0.160416
H5    H     H_    0.630599 0.874971 0.652456 0.160414
H6    H     H_    0.304205 0.597244 0.082790 0.190050
H7    H     H_    0.695789 0.402757 0.917210 0.190044
H8    H     H_    0.479728 0.734171 0.923237 0.176547
H9    H     H_    0.520266 0.265829 0.076762 0.176542
H10   H     H_    0.234087 0.293351 0.987690 0.119666
N1    N     N_R   0.500000 0.857200 0.500000 -0.086744
N2    N     N_R   0.500000 0.142800 0.500000 -0.086739
O1    O     O_R   0.316770 0.614620 0.499990 -0.613598
O2    O     O_2   0.733445 0.671705 0.195174 -0.534663
O3    O     O_R   0.683230 0.385380 0.500010 -0.613605
O4    O     O_R   0.683230 0.614620 0.500010 -0.572220
O5    O     O_R   0.316770 0.385380 0.499990 -0.572214
O6    O     O_R   0.499970 0.614650 0.313950 -0.610082
O7    O     O_R   0.500030 0.385350 0.686050 -0.610051
O8    O     O_R   0.500030 0.614650 0.686050 -0.620920
O9    O     O_R   0.499970 0.385350 0.313950 -0.620918
O10   O     O_2   0.266605 0.328208 0.804823 -0.534664
Zn1   Zn    Zn3+2 0.500000 0.653120 0.500000 1.025427
Zn2   Zn    Zn3+2 0.500000 0.346880 0.500000 1.025443

loop_
_geom_bond_atom_site_label_1
_geom_bond_atom_site_label_2
_ccdc_geom_bond_type
C2    C6    S    
C11   C14   A    
N1    Zn1   S    
C2    C3    S    
Br1   C11   S    
C16   H10   S    
C17   H2    S    
C21   O7    A    
C9    H4    S    
C22   C24   S    
C2    C23   S    
C1    C19   S    
C5    C23   S    
O9    Zn2   S    
C20   O6    A    
C6    C22   S    
C8    N1    A    
C4    C17   S    
C2    H9    S    
C5    C21   S    
Br2   C13   S    
C21   O8    A    
C24   H8    S    
O7    Zn2   S    
C3    C22   S    
C10   H5    S    
C12   C15   A    
O4    Zn1   S    
C13   C15   A    
O1    Zn1   S    
C8    H3    S    
C7    N2    A    
C4    C24   S    
C7    C10   A    
O3    Zn2   S    
C18   O1    A    
C1    C13   A    
C17   O2    D    
C18   O5    A    
C19   O3    A    
C8    C9    A    
C7    H1    S    
Br3   C14   S    
C4    C6    S    
C3    C16   S    
C20   O9    A    
C3    C5    S    
C4    C23   S    
C9    N2    A    
C16   O10   D    
C1    C14   A    
O5    Zn2   S    
C23   H7    S    
C10   N1    A    
N2    Zn2   S    
Br4   C15   S    
O6    Zn1   S    
C22   H6    S    
O8    Zn1   S    
C6    C20   S    
C19   O4    A    
C11   C12   A    
C5    C24   S    
C12   C18   S    
