data_mof_unit_40611.cif
_audit_creation_date              2013-03-05T16:04:28-0500
_audit_creation_method            fapswitch 2.2
_symmetry_space_group_name_H-M    P1
_symmetry_Int_Tables_number       1
_space_group_crystal_system       triclinic
_cell_length_a                    14.884699
_cell_length_b                    14.154851
_cell_length_c                    27.6231
_cell_angle_alpha                 89.514728
_cell_angle_beta                  90.84954
_cell_angle_gamma                 89.182301
_cell_volume                      5818.47847456

loop_
_atom_site_label
_atom_site_type_symbol
_atom_site_description
_atom_site_fract_x
_atom_site_fract_y
_atom_site_fract_z
_atom_type_partial_charge
O1    O     O_R   0.367850 0.580280 0.500010 -0.647495
O2    O     O_R   0.632150 0.419720 0.499990 -0.598896
O3    O     O_R   0.632150 0.580280 0.499990 -0.627476
O4    O     O_R   0.367850 0.419720 0.500010 -0.627248
C1    C     C_R   0.327112 0.500786 0.499116 0.909788
C2    C     C_R   0.672929 0.499503 0.501482 0.909537
O5    O     O_R   0.500010 0.580260 0.428760 -0.572968
O6    O     O_R   0.499990 0.419740 0.571240 -0.575681
O7    O     O_R   0.499990 0.580260 0.571240 -0.585474
O8    O     O_R   0.500010 0.419740 0.428760 -0.568197
C3    C     C_R   0.503628 0.500228 0.406289 0.939567
C4    C     C_R   0.499744 0.500180 0.593928 0.923937
Zn1   Zn    Zn3+2 0.500000 0.607200 0.500000 0.988557
Zn2   Zn    Zn3+2 0.500000 0.392800 0.500000 1.000884
C5    C     C_R   0.445711 0.477986 0.174856 0.555153
C6    C     C_R   0.608425 0.531218 0.822792 0.583835
O9    O     O_2   0.371977 0.445753 0.197125 -0.589068
O10   O     O_2   0.685123 0.513418 0.798832 -0.514086
N1    N     N_R   0.521125 0.498462 0.201362 -0.327096
N2    N     N_R   0.528691 0.541543 0.797839 -0.332780
C7    C     C_R   0.599704 0.522228 0.179557 0.525096
C8    C     C_R   0.449695 0.558290 0.821237 0.508977
C9    C     C_R   0.570706 0.436065 0.280184 -0.227510
C10   C     C_R   0.471726 0.457168 0.727473 -0.212440
C11   C     C_R   0.569282 0.437364 0.330432 0.136520
C12   C     C_R   0.460220 0.447256 0.677851 0.144377
C13   C     C_R   0.457774 0.564906 0.326735 -0.352943
C14   C     C_R   0.566215 0.573806 0.665509 -0.324441
C15   C     C_R   0.459024 0.563329 0.276115 0.512305
C16   C     C_R   0.572382 0.589664 0.715689 0.560711
C17   C     C_R   0.516460 0.498770 0.253033 0.205189
C18   C     C_R   0.526066 0.528371 0.746487 0.185606
C19   C     C_R   0.524787 0.514627 0.101391 -0.051349
C20   C     C_R   0.528805 0.546126 0.898152 -0.053497
C21   C     C_R   0.444728 0.490540 0.124658 -0.031055
C22   C     C_R   0.610335 0.536809 0.873383 -0.053935
C23   C     C_R   0.365622 0.480041 0.097518 -0.157624
C24   C     C_R   0.691235 0.529828 0.899613 -0.132488
C25   C     C_R   0.603738 0.527752 0.129022 -0.029817
C26   C     C_R   0.447732 0.557235 0.871760 -0.027231
C27   C     C_R   0.510481 0.500423 0.353849 -0.140075
C28   C     C_R   0.509582 0.504223 0.646515 -0.140914
H1    H     H_    0.415626 0.616080 0.344930 0.183709
H2    H     H_    0.604246 0.616088 0.640517 0.175903
H3    H     H_    0.303409 0.460659 0.114619 0.186424
H4    H     H_    0.754831 0.522283 0.881364 0.191741
C29   C     C_R   0.444748 0.539694 0.973380 0.041800
C30   C     C_R   0.608737 0.539088 0.026932 0.042221
C31   C     C_R   0.610446 0.538571 0.975715 0.043374
C32   C     C_R   0.444166 0.521355 0.023684 0.045029
C33   C     C_R   0.528067 0.542157 0.949264 0.078384
C34   C     C_R   0.525911 0.525193 0.050512 0.076077
C35   C     C_R   0.364733 0.555168 0.946205 -0.217816
C36   C     C_R   0.686941 0.552453 0.055532 -0.214748
C37   C     C_R   0.366475 0.564996 0.896215 -0.131689
C38   C     C_R   0.684061 0.548099 0.105767 -0.134604
O11   O     O_2   0.373015 0.574308 0.795547 -0.557550
O12   O     O_2   0.673219 0.541513 0.206706 -0.560201
C39   C     C_R   0.364863 0.496680 0.047937 -0.210802
C40   C     C_R   0.691561 0.532116 0.949911 -0.210121
H5    H     H_    0.434285 0.412517 0.751739 0.190527
H6    H     H_    0.615684 0.387640 0.262000 0.187714
H7    H     H_    0.303419 0.575782 0.876720 0.192019
H8    H     H_    0.745430 0.559789 0.126290 0.190312
H9    H     H_    0.299901 0.562013 0.962892 0.145468
H10   H     H_    0.750839 0.569538 0.040037 0.144898
H11   H     H_    0.301840 0.486107 0.029101 0.145808
H12   H     H_    0.756203 0.524094 0.967732 0.144756
C41   C     C_R   0.810859 0.513593 0.459106 -0.253885
C42   C     C_R   0.189039 0.509697 0.542005 -0.293085
C43   C     C_R   0.768671 0.500007 0.502813 -0.092231
C44   C     C_R   0.231483 0.504230 0.497872 -0.099302
C45   C     C_R   0.816145 0.497305 0.547087 0.087937
C46   C     C_R   0.184343 0.510862 0.453565 0.098827
C47   C     C_R   0.909151 0.514644 0.547196 0.023994
C48   C     C_R   0.090468 0.525401 0.454107 0.028842
C49   C     C_R   0.952913 0.518932 0.501704 0.006616
C50   C     C_R   0.046735 0.520464 0.499629 0.008875
C51   C     C_R   0.902956 0.520547 0.458057 0.091908
C52   C     C_R   0.096705 0.516185 0.543266 0.096987
C53   C     C_R   0.961196 0.527423 0.590043 0.200905
C54   C     C_R   0.037335 0.543177 0.411839 0.210796
C55   C     C_R   0.054263 0.522969 0.587715 -0.248155
C56   C     C_R   0.944805 0.534564 0.413940 -0.236986
H13   H     H_    0.771530 0.517314 0.425759 0.158948
H14   H     H_    0.228371 0.507468 0.575445 0.158282
H15   H     H_    0.093973 0.529378 0.620726 0.182638
H16   H     H_    0.904659 0.544175 0.381148 0.186886
C57   C     C_R   0.533329 0.798427 0.461113 0.467214
C58   C     C_R   0.491765 0.198295 0.542108 0.481769
C59   C     C_R   0.465920 0.799112 0.538694 0.516260
C60   C     C_R   0.505896 0.200431 0.457188 0.561893
N3    N     N_R   0.500000 0.750030 0.500000 -0.202205
N4    N     N_R   0.500000 0.249970 0.500000 -0.224104
C61   C     C_R   0.471914 0.899222 0.540914 -0.159405
C62   C     C_R   0.519093 0.100535 0.457102 -0.178610
C63   C     C_R   0.522875 0.899079 0.457442 -0.228620
C64   C     C_R   0.476318 0.099290 0.540802 -0.190425
C65   C     C_R   0.496705 0.949234 0.498922 -0.117668
C66   C     C_R   0.497769 0.049392 0.498950 -0.154811
C67   C     C_R   0.450436 0.949480 0.583627 0.370527
C68   C     C_R   0.544961 0.051341 0.415023 0.421162
C69   C     C_R   0.541785 0.951055 0.414430 0.376191
C70   C     C_R   0.441548 0.049957 0.580823 0.403593
I1    I     I_    0.748203 0.441218 0.608313 -0.396587
I2    I     I_    0.256764 0.475034 0.389752 -0.451758
I3    I     I_    0.914169 0.583182 0.656714 -0.309765
I4    I     I_    0.078765 0.613177 0.347574 -0.414780
O13   O     O_3   0.574265 0.747661 0.424883 -0.595805
C71   C     C_3   0.668285 0.760116 0.427822 0.152281
H17   H     H_    0.696847 0.722732 0.460185 0.144012
H18   H     H_    0.686621 0.835974 0.430313 0.150594
C72   C     C_3   0.710647 0.719553 0.382307 -0.310820
H19   H     H_    0.699172 0.642250 0.381012 0.215392
H20   H     H_    0.678098 0.752374 0.349695 0.255960
C73   C     C_3   0.811240 0.738502 0.381171 -0.934136
H21   H     H_    0.823089 0.815662 0.378541 0.276729
H22   H     H_    0.841015 0.703822 0.349151 0.286244
H23   H     H_    0.844983 0.710303 0.414465 0.268672
O14   O     O_3   0.498489 0.241570 0.586457 -0.566033
C74   C     C_3   0.590307 0.247048 0.600304 0.188066
H24   H     H_    0.595719 0.305415 0.626702 0.196755
H25   H     H_    0.634478 0.265278 0.569362 0.141421
C75   C     C_3   0.624287 0.156498 0.625889 -0.420461
H26   H     H_    0.579221 0.139500 0.656303 0.251722
H27   H     H_    0.624660 0.096595 0.600195 0.220158
C76   C     C_3   0.719595 0.168356 0.645790 -0.887205
H28   H     H_    0.766231 0.184835 0.615899 0.278346
H29   H     H_    0.742654 0.101733 0.663819 0.267075
H30   H     H_    0.721416 0.226189 0.672762 0.287276
O15   O     O_3   0.421774 0.751497 0.575065 -0.592901
C77   C     C_3   0.331556 0.734861 0.560372 0.160999
H31   H     H_    0.314802 0.662432 0.572581 0.177938
H32   H     H_    0.319866 0.739294 0.520355 0.133118
C78   C     C_3   0.265670 0.802567 0.584614 -0.444252
H33   H     H_    0.272577 0.795383 0.624496 0.232226
H34   H     H_    0.280214 0.876020 0.573415 0.202743
C79   C     C_3   0.168725 0.781009 0.570213 -0.904454
H35   H     H_    0.159269 0.786592 0.530316 0.266446
H36   H     H_    0.122650 0.832440 0.587614 0.269546
H37   H     H_    0.151089 0.708774 0.582410 0.274977
O16   O     O_3   0.487504 0.244415 0.413463 -0.602711
C80   C     C_3   0.393286 0.258896 0.407971 0.108080
H38   H     H_    0.383014 0.309431 0.377412 0.203553
H39   H     H_    0.363424 0.291840 0.440457 0.181320
C81   C     C_3   0.342229 0.168402 0.395453 -0.502702
H40   H     H_    0.369755 0.136655 0.362190 0.217978
H41   H     H_    0.348655 0.116183 0.425535 0.213184
C82   C     C_3   0.242418 0.189739 0.387018 -0.845402
H42   H     H_    0.212586 0.220753 0.420038 0.269800
H43   H     H_    0.206961 0.123318 0.378434 0.261043
H44   H     H_    0.232681 0.239876 0.356169 0.285450
O17   O     O_3   0.466030 0.901832 0.627549 -0.629419
C83   C     C_3   0.401036 0.918194 0.663375 0.151221
H45   H     H_    0.383052 0.848276 0.678658 0.158532
H46   H     H_    0.337205 0.949277 0.649438 0.118942
C84   C     C_3   0.440948 0.975596 0.704989 -0.337648
H47   H     H_    0.494148 0.932845 0.723791 0.212115
H48   H     H_    0.472170 0.040662 0.691002 0.258971
C85   C     C_3   0.369311 0.002790 0.741440 -0.900587
H49   H     H_    0.316597 0.048107 0.723786 0.271898
H50   H     H_    0.400576 0.042834 0.771534 0.269066
H51   H     H_    0.337954 0.938484 0.756623 0.261577
O18   O     O_3   0.595988 0.098645 0.380986 -0.586346
C86   C     C_3   0.551088 0.109200 0.335735 0.180828
H52   H     H_    0.521528 0.181449 0.332945 0.193288
H53   H     H_    0.496081 0.058829 0.329644 0.101462
C87   C     C_3   0.619533 0.098426 0.295416 -0.317451
H54   H     H_    0.673736 0.150787 0.300525 0.251289
H55   H     H_    0.650464 0.026572 0.297289 0.238410
C88   C     C_3   0.575802 0.114078 0.245613 -0.970817
H56   H     H_    0.521748 0.062081 0.239390 0.269321
H57   H     H_    0.627100 0.105078 0.217185 0.277681
H58   H     H_    0.546905 0.186752 0.242658 0.273957
O19   O     O_3   0.560537 0.904997 0.371691 -0.623624
C89   C     C_3   0.478807 0.875360 0.350026 0.082966
H59   H     H_    0.424855 0.930698 0.352184 0.101916
H60   H     H_    0.453360 0.811326 0.368559 0.174319
C90   C     C_3   0.495447 0.851141 0.296945 -0.311747
H61   H     H_    0.547261 0.898145 0.281792 0.235601
H62   H     H_    0.521088 0.777192 0.294613 0.236868
C91   C     C_3   0.410086 0.862664 0.266115 -0.912974
H63   H     H_    0.354487 0.822375 0.282247 0.265766
H64   H     H_    0.422564 0.836500 0.229009 0.282715
H65   H     H_    0.389860 0.938425 0.263690 0.249620
O20   O     O_3   0.395554 0.100787 0.615439 -0.610227
C92   C     C_3   0.302696 0.107567 0.602231 0.105091
H66   H     H_    0.265998 0.129502 0.635103 0.188953
H67   H     H_    0.274730 0.038317 0.591384 0.075184
C93   C     C_3   0.282185 0.179942 0.561371 -0.339713
H68   H     H_    0.319421 0.245933 0.567542 0.284422
H69   H     H_    0.302930 0.150360 0.526066 0.185544
C94   C     C_3   0.182111 0.204328 0.557838 -0.905450
H70   H     H_    0.142699 0.139604 0.551033 0.259853
H71   H     H_    0.169722 0.254991 0.527449 0.272014
H72   H     H_    0.159256 0.237704 0.591851 0.280581
O21   O     O_3   0.411141 0.629299 0.248347 -0.656166
C95   C     C_3   0.318058 0.623931 0.257450 0.126900
H73   H     H_    0.301208 0.666794 0.289679 0.152038
H74   H     H_    0.296053 0.549880 0.263946 0.201511
C96   C     C_3   0.266512 0.663357 0.213239 -0.343971
H75   H     H_    0.288326 0.736612 0.205538 0.225881
H76   H     H_    0.281924 0.619428 0.181174 0.244587
C97   C     C_3   0.165342 0.664236 0.221004 -0.874995
H77   H     H_    0.141791 0.591861 0.229333 0.290598
H78   H     H_    0.130308 0.690182 0.187599 0.258607
H79   H     H_    0.148044 0.712237 0.251155 0.283660
O22   O     O_3   0.623384 0.660841 0.736938 -0.617925
C98   C     C_3   0.640899 0.737321 0.705398 0.084450
H80   H     H_    0.578624 0.761150 0.685620 0.169088
H81   H     H_    0.694001 0.716500 0.679464 0.178696
C99   C     C_3   0.675635 0.820033 0.735098 -0.304844
H82   H     H_    0.623476 0.842531 0.761141 0.218227
H83   H     H_    0.736592 0.797135 0.756046 0.250747
C100  C     C_3   0.699227 0.903674 0.702642 -0.961784
H84   H     H_    0.754465 0.883720 0.677962 0.277644
H85   H     H_    0.721698 0.963375 0.725413 0.267783
H86   H     H_    0.639856 0.927353 0.680688 0.283644
I5    I     I_    0.355903 0.358019 0.654584 -0.342959
I6    I     I_    0.666648 0.351470 0.367605 -0.313160

loop_
_geom_bond_atom_site_label_1
_geom_bond_atom_site_label_2
_geom_bond_distance
_ccdc_geom_bond_type
C78   C79   1.526822 S    
C55   H15   1.084473 S    
C88   H56   1.110665 S    
C53   I3    2.133481 S    
C93   H68   1.106094 S    
C62   C68   1.415461 A    
C13   C15   1.399027 A    
C45   C47   1.409357 A    
C96   H75   1.110763 S    
C79   H35   1.110980 S    
O3    C2    1.286907 A    
N1    C17   1.430051 S    
C8    O11   1.350393 S    
C76   H29   1.110344 S    
C41   H13   1.084570 S    
C78   H33   1.108609 S    
C49   C50   1.399009 A    
C19   C34   1.412493 A    
C30   C36   1.412959 A    
C88   H57   1.110219 S    
C20   C33   1.412709 A    
C86   H52   1.109150 S    
C31   C40   1.413369 A    
C46   C48   1.409792 A    
O1    C1    1.286049 A    
C32   C39   1.412595 A    
O18   C86   1.414434 S    
C21   C23   1.396886 A    
C48   C50   1.426151 A    
C72   H19   1.110660 S    
C1    C44   1.423446 S    
C82   H43   1.110361 S    
C51   C56   1.390817 A    
C92   H67   1.112114 S    
C61   C65   1.410340 A    
C59   N3    1.378774 A    
O21   C95   1.414798 S    
C80   H38   1.109243 S    
C57   O13   1.380934 S    
C60   C62   1.424837 A    
C98   C99   1.527113 S    
C73   H21   1.110756 S    
C5    O9    1.349307 S    
C14   C28   1.405455 A    
C41   C43   1.382346 A    
O7    Zn1   2.001306 S    
C91   H63   1.108502 S    
C92   C93   1.542047 S    
C4    C28   1.459488 S    
O5    Zn1   2.007649 S    
C93   C94   1.525750 S    
C39   H11   1.078876 S    
C71   H17   1.110953 S    
C45   I1    2.136409 S    
C9    H6    1.083087 S    
C80   H39   1.110537 S    
O19   C89   1.418201 S    
C73   H22   1.110178 S    
C77   H31   1.109490 S    
C94   H71   1.111020 S    
C37   H7    1.083412 S    
C32   C34   1.417182 A    
C38   H8    1.083390 S    
C95   H73   1.111314 S    
C54   I4    2.129202 S    
C60   O16   1.376219 S    
O13   C71   1.414233 S    
C83   H46   1.104015 S    
O3    Zn1   1.998240 S    
O6    C4    1.304326 A    
C29   C35   1.411800 A    
C90   C91   1.525081 S    
C94   H72   1.110876 S    
C87   H55   1.110916 S    
C16   O22   1.398045 S    
C84   H48   1.106803 S    
C84   H47   1.109867 S    
C96   H76   1.111352 S    
C86   H53   1.105284 S    
O2    C2    1.290381 A    
C52   C55   1.392519 A    
C5    C21   1.396302 A    
C63   C65   1.409883 A    
C58   N4    1.376707 A    
C29   C32   1.411608 A    
C81   H41   1.109607 S    
C35   C37   1.387356 A    
C2    C43   1.425143 S    
C88   H58   1.111200 S    
C36   C38   1.389793 A    
C63   C69   1.425873 A    
C74   H25   1.116751 S    
C69   O19   1.383597 S    
C42   C52   1.377087 A    
C85   H51   1.110752 S    
C87   H54   1.111588 S    
C30   C34   1.418247 A    
C83   C84   1.530959 S    
C44   C46   1.403490 A    
O8    Zn2   2.001308 S    
C100  H86   1.110543 S    
C48   C54   1.419137 A    
C43   C45   1.403321 A    
C47   C53   1.419186 A    
C29   C33   1.417180 A    
O6    Zn2   2.007646 S    
C31   C33   1.418094 A    
C14   H2    1.081417 S    
Zn1   N3    2.021737 S    
C91   H65   1.110902 S    
C85   H50   1.110373 S    
C5    N1    1.366985 A    
C100  H84   1.110769 S    
C10   C18   1.401974 A    
C46   I2    2.140606 S    
C81   C82   1.525914 S    
C13   C27   1.400054 A    
O5    C3    1.297187 A    
C25   C38   1.398038 A    
C7    C25   1.399688 A    
C97   H79   1.110217 S    
C67   O17   1.397871 S    
C6    N2    1.368962 A    
C26   C37   1.397474 A    
C8    C26   1.396302 A    
C95   C96   1.529695 S    
C60   N4    1.383221 A    
C98   H80   1.115542 S    
C74   H24   1.109581 S    
C49   C51   1.406982 A    
C6    O10   1.349758 S    
C19   C25   1.407149 A    
C97   H77   1.110847 S    
C47   C49   1.425192 A    
C71   C72   1.527529 S    
O22   C98   1.413418 S    
C83   H45   1.110491 S    
C23   C39   1.387548 A    
C79   H36   1.110316 S    
C10   H5    1.083170 S    
C24   C40   1.389982 A    
C68   O18   1.390765 S    
C89   H59   1.116371 S    
C97   H78   1.110300 S    
C67   C70   1.427845 A    
C15   O21   1.386003 S    
C75   C76   1.525825 S    
C96   C97   1.524122 S    
C20   C26   1.406782 A    
C82   H44   1.110833 S    
O1    Zn1   2.008918 S    
C80   C81   1.537989 S    
N2    C8    1.368821 A    
C11   C27   1.409070 A    
O15   C77   1.420545 S    
C42   H14   1.086250 S    
C35   H9    1.079064 S    
O14   C74   1.417096 S    
C12   C28   1.401177 A    
C75   H27   1.110359 S    
C81   H40   1.107668 S    
N2    C18   1.432312 S    
C78   H34   1.107492 S    
C30   C31   1.415460 A    
C93   H69   1.110834 S    
C91   H64   1.110117 S    
N1    C7    1.368463 A    
C12   I5    2.111797 S    
C99   C100  1.527071 S    
C56   H16   1.084275 S    
C99   H83   1.111761 S    
O4    C1    1.290046 A    
C79   H37   1.110089 S    
C53   C55   1.388278 A    
C95   H74   1.116475 S    
C72   C73   1.525635 S    
C76   H28   1.111925 S    
C36   H10   1.078516 S    
C84   C85   1.525016 S    
C86   C87   1.527634 S    
C70   O20   1.384789 S    
C54   C56   1.386415 A    
C73   H23   1.109861 S    
C85   H49   1.110819 S    
C89   C90   1.531552 S    
C100  H85   1.110158 S    
O17   C83   1.412363 S    
C76   H30   1.111905 S    
C7    O12   1.349820 S    
C15   C17   1.405778 A    
O4    Zn2   1.998241 S    
C65   C66   1.418037 A    
C6    C22   1.400296 A    
C22   C24   1.397955 A    
C16   C18   1.404889 A    
C10   C12   1.387395 A    
C77   C78   1.527150 S    
C64   C70   1.411301 A    
C62   C66   1.401534 A    
C89   H60   1.111198 S    
C19   C21   1.407108 A    
C20   C22   1.407051 A    
C14   C16   1.407926 A    
C3    C27   1.453616 S    
C50   C52   1.407395 A    
C9    C11   1.388730 A    
C57   N3    1.371974 A    
C68   C69   1.421224 A    
O2    Zn2   2.008916 S    
O7    C4    1.290667 A    
C71   H18   1.114111 S    
C24   H4    1.083408 S    
C64   C66   1.398476 A    
C41   C51   1.376491 A    
O8    C3    1.294967 A    
C59   C61   1.422908 A    
C90   H61   1.110034 S    
Zn2   N4    2.021739 S    
C13   H1    1.083247 S    
C92   H66   1.110822 S    
C59   O15   1.384261 S    
C99   H82   1.111332 S    
C40   H12   1.078373 S    
C77   H32   1.117548 S    
C94   H70   1.110782 S    
C57   C63   1.433542 A    
C74   C75   1.534171 S    
C98   H81   1.112885 S    
O16   C80   1.420116 S    
C11   I6    2.125411 S    
C42   C44   1.383598 A    
C87   C88   1.526276 S    
C90   H62   1.111730 S    
O20   C92   1.425971 S    
C82   H42   1.111346 S    
C23   H3    1.083510 S    
C58   C64   1.424048 A    
C61   C67   1.421004 A    
C58   O14   1.377250 S    
C75   H26   1.109774 S    
C72   H20   1.111599 S    
C9    C17   1.397357 A    
