data_mof_unit_22399.cif
_audit_creation_date              2012-12-10T20:27:53-0500
_audit_creation_method            fapswitch 2.2
_symmetry_space_group_name_H-M    P1
_symmetry_Int_Tables_number       1
_space_group_crystal_system       triclinic
_cell_length_a                    12.739939
_cell_length_b                    10.644607
_cell_length_c                    9.906606
_cell_angle_alpha                 90.199743
_cell_angle_beta                  99.093729
_cell_angle_gamma                 90.427287
_cell_volume                      1326.51374472

loop_
_atom_site_label
_atom_site_type_symbol
_atom_type_description
_atom_site_fract_x
_atom_site_fract_y
_atom_site_fract_z
_atom_type_partial_charge
C1    C     C_R   0.503375 0.260082 0.500569 0.865096
C2    C     C_R   0.024210 0.550391 0.525525 0.167479
C3    C     C_R   0.975756 0.434791 0.475832 0.162122
C4    C     C_R   0.871383 0.407769 0.496609 0.015303
C5    C     C_R   0.862884 0.617892 0.596777 -0.270650
C6    C     C_R   0.968417 0.639360 0.588690 -0.218885
C7    C     C_R   0.522955 0.064682 0.627193 0.144611
C8    C     C_R   0.521726 0.128936 0.504822 -0.111679
C9    C     C_R   0.543210 0.064979 0.388406 -0.246912
C10   C     C_R   0.543616 0.935108 0.388654 -0.231665
C11   C     C_R   0.522811 0.871430 0.505517 -0.103609
C12   C     C_R   0.298038 0.499097 0.471242 0.875438
C13   C     C_R   0.523565 0.936678 0.627647 0.108701
C14   C     C_3   0.449574 0.929069 0.730564 -0.477448
C15   C     C_3   0.449082 0.071504 0.730067 -0.492495
C16   C     C_R   0.439750 0.414816 0.058285 0.171657
C17   C     C_R   0.568057 0.573644 0.087929 -0.143488
C18   C     C_R   0.572451 0.570259 0.945520 0.171582
C19   C     C_R   0.437812 0.416980 0.915852 0.145309
C20   C     C_3   0.319691 0.404159 0.886725 -0.488557
C21   C     C_3   0.321939 0.397851 0.041181 -0.149632
C22   C     C_R   0.504061 0.739943 0.500974 0.875286
C23   C     C_R   0.701815 0.500281 0.528786 0.863195
C24   C     C_R   0.814827 0.504589 0.549287 -0.059883
C25   C     C_R   0.185413 0.487307 0.451183 -0.028318
C26   C     C_R   0.033187 0.350794 0.405917 -0.231161
C27   C     C_R   0.137803 0.377051 0.394423 -0.229848
C28   C     C_R   0.128980 0.574991 0.513615 -0.278983
H1    H     H_    0.488582 0.888999 0.829205 0.198638
H2    H     H_    0.370495 0.111769 0.687625 0.195535
H3    H     H_    0.488145 0.113800 0.828177 0.198834
H4    H     H_    0.620660 0.635091 0.155316 0.164033
H5    H     H_    0.281104 0.490828 0.841100 0.201986
H6    H     H_    0.293236 0.317357 0.828644 0.195449
H7    H     H_    0.282449 0.479759 0.081301 0.170127
H8    H     H_    0.817113 0.692101 0.634341 0.140002
H9    H     H_    0.004949 0.727816 0.625864 0.142911
H10   H     H_    0.183288 0.307299 0.349925 0.128273
H11   H     H_    0.168354 0.659832 0.557806 0.127579
H12   H     H_    0.552230 0.885754 0.295253 0.170973
H13   H     H_    0.371253 0.886375 0.688285 0.202829
N1    N     N_R   0.499290 0.499140 0.142710 -0.135584
N2    N     N_R   0.499290 0.499180 0.857070 -0.127084
O1    O     O_R   0.500010 0.316790 0.614690 -0.608688
O2    O     O_R   0.500000 0.316760 0.385350 -0.627000
O3    O     O_R   0.346360 0.499990 0.595720 -0.610282
O4    O     O_R   0.346350 0.499960 0.366370 -0.625201
O5    O     O_R   0.500000 0.683240 0.614650 -0.637877
O6    O     O_R   0.499990 0.683210 0.385310 -0.619412
O7    O     O_R   0.653650 0.500040 0.633630 -0.639431
O8    O     O_R   0.653640 0.500010 0.404280 -0.615309
Zn1   Zn    Zn3+2 0.500010 0.500020 0.653130 0.922333
Zn2   Zn    Zn3+2 0.499990 0.499980 0.346870 0.924209
C29   C     C_3   0.821679 0.277134 0.468094 -0.424698
C30   C     C_3   0.874824 0.181572 0.572917 -0.352117
C31   C     C_3   0.828662 0.049739 0.544139 -0.884094
H14   H     H_    0.744042 0.047498 0.557975 0.275136
H15   H     H_    0.835403 0.019835 0.438300 0.263230
H16   H     H_    0.872886 0.982270 0.616874 0.242114
H17   H     H_    0.961729 0.177820 0.571940 0.225291
H18   H     H_    0.862698 0.210888 0.677181 0.223009
H19   H     H_    0.735617 0.276123 0.474591 0.205566
H20   H     H_    0.826925 0.247137 0.361950 0.194581
C32   C     C_3   0.660917 0.645450 0.898792 -0.399241
C33   C     C_3   0.767968 0.575905 0.923234 -0.335215
C34   C     C_3   0.817493 0.566707 0.073957 -0.860481
H21   H     H_    0.818948 0.660024 0.124754 0.256126
H22   H     H_    0.773171 0.498147 0.128081 0.266292
H23   H     H_    0.900531 0.533056 0.081719 0.248044
H24   H     H_    0.758494 0.479835 0.878524 0.241324
H25   H     H_    0.824929 0.628154 0.870015 0.212592
H26   H     H_    0.642038 0.668748 0.790161 0.230333
H27   H     H_    0.669475 0.737881 0.952299 0.158618
C35   C     C_3   0.287164 0.271818 0.098129 -0.353970
C36   C     C_3   0.341595 0.153290 0.053343 -0.336010
C37   C     C_3   0.308193 0.037004 0.126241 -0.895301
H28   H     H_    0.350716 0.953566 0.095355 0.253392
H29   H     H_    0.328080 0.048838 0.238823 0.270777
H30   H     H_    0.221273 0.020432 0.098301 0.257870
H31   H     H_    0.319186 0.137489 0.941861 0.220607
H32   H     H_    0.429367 0.163538 0.077549 0.215763
H33   H     H_    0.305363 0.278390 0.211131 0.217827
H34   H     H_    0.199611 0.261611 0.069055 0.194378
H35   H     H_    0.999787 0.263294 0.362594 0.149879
H36   H     H_    0.552151 0.113946 0.295227 0.177969

loop_
_geom_bond_atom_site_label_1
_geom_bond_atom_site_label_2
_ccdc_geom_bond_type
C34   H22   S    
C30   C31   S    
C16   C21   S    
C1    C8    S    
C22   O5    A    
C19   C20   S    
C37   H30   S    
C35   H34   S    
C18   C32   S    
C7    C8    A    
C25   C28   A    
C26   C27   A    
C37   H29   S    
N1    Zn2   S    
C5    C6    A    
C4    C24   A    
N2    Zn1   S    
C34   H23   S    
C29   H20   S    
C27   H10   S    
C33   H24   S    
C5    H8    S    
O3    Zn1   S    
C31   H14   S    
C10   H12   S    
C17   N1    A    
C9    H36   S    
C8    C9    A    
O7    Zn1   S    
C23   C24   S    
C36   H31   S    
O4    Zn2   S    
C20   H6    S    
O1    Zn1   S    
C7    C15   S    
C34   H21   S    
O2    Zn2   S    
C30   H17   S    
C2    C6    A    
C35   H33   S    
C12   O4    A    
C19   N2    A    
C35   C36   S    
C37   H28   S    
C12   O3    A    
C36   H32   S    
C23   O7    A    
C29   H19   S    
C28   H11   S    
C33   H25   S    
C21   C35   S    
O8    Zn2   S    
C36   C37   S    
C1    O1    A    
C23   O8    A    
C7    C13   A    
C32   H27   S    
C17   C18   A    
C6    H9    S    
C14   H13   S    
C20   H5    S    
C22   O6    A    
C14   H1    S    
C3    C4    A    
C16   N1    A    
C15   H2    S    
C9    C10   A    
C29   C30   S    
C26   H35   S    
C4    C29   S    
C3    C26   A    
C15   H3    S    
C21   H7    S    
C25   C27   A    
C11   C22   S    
C31   H16   S    
C12   C25   S    
C32   C33   S    
C2    C3    A    
C18   N2    A    
C11   C13   A    
C1    O2    A    
C5    C24   A    
C16   C19   A    
O6    Zn2   S    
C30   H18   S    
C31   H15   S    
C32   H26   S    
C10   C11   A    
O5    Zn1   S    
C20   C21   S    
C33   C34   S    
C17   H4    S    
C14   C15   S    
C2    C28   A    
C13   C14   S    
