data_mof_unit_53719.cif
_audit_creation_date              2012-12-10T16:43:23-0500
_audit_creation_method            fapswitch 2.2
_symmetry_space_group_name_H-M    P1
_symmetry_Int_Tables_number       1
_space_group_crystal_system       triclinic
_cell_length_a                    10.820821
_cell_length_b                    8.691871
_cell_length_c                    7.410312
_cell_angle_alpha                 102.337132
_cell_angle_beta                  93.664393
_cell_angle_gamma                 92.008274
_cell_volume                      678.628360913

loop_
_atom_site_label
_atom_site_type_symbol
_atom_type_description
_atom_site_fract_x
_atom_site_fract_y
_atom_site_fract_z
_atom_type_partial_charge
C1    C     C_R   0.486350 0.200677 0.455380 0.881083
C2    C     C_R   0.070234 0.578519 0.680772 0.098190
C3    C     C_R   0.127583 0.508533 0.516129 -0.117188
C4    C     C_R   0.054912 0.454331 0.349295 -0.216301
C5    C     C_R   0.928038 0.463777 0.342255 -0.203623
C6    C     C_R   0.871070 0.535986 0.499371 -0.124669
C7    C     C_2   0.451260 0.036920 0.437663 -0.026013
C8    C     C_2   0.503600 0.966827 0.565785 -0.408914
C9    C     C_R   0.261869 0.501422 0.505137 0.782655
C10   C     C_R   0.498757 0.799747 0.545431 0.861407
C11   C     C_R   0.737186 0.514583 0.499070 0.794604
C12   C     C_R   0.131825 0.618915 0.861501 -0.176971
C13   C     C_R   0.072435 0.699043 0.012461 -0.161110
C14   C     C_R   0.954122 0.750195 0.987228 -0.144825
C15   C     C_R   0.890274 0.707778 0.813960 -0.156951
C16   C     C_R   0.942988 0.608574 0.664027 0.103534
Cu1   Cu    Cu3+1 0.513920 0.517380 0.684380 0.935268
Cu2   Cu    Cu3+1 0.486080 0.482620 0.315620 0.930207
H1    H     H_    0.095915 0.399282 0.223299 0.169160
H2    H     H_    0.596757 0.620520 0.051205 0.226555
H3    H     H_    0.223053 0.585459 0.896649 0.177816
H4    H     H_    0.119467 0.723660 0.149508 0.152405
H5    H     H_    0.910654 0.819757 0.102950 0.135389
H6    H     H_    0.799063 0.752668 0.799155 0.143913
H7    H     H_    0.874145 0.410409 0.214489 0.172823
H8    H     H_    0.563477 0.033407 0.681890 0.151723
H9    H     H_    0.403244 0.379488 0.948792 0.223973
N1    N     N_2   0.465100 0.456430 0.038520 -0.226114
N2    N     N_2   0.534900 0.543570 0.961480 -0.222454
O1    O     O_R   0.509050 0.286130 0.619770 -0.591528
O2    O     O_R   0.485540 0.256780 0.308360 -0.577993
O3    O     O_R   0.331410 0.514680 0.655740 -0.605879
O4    O     O_R   0.307900 0.485330 0.344330 -0.601035
O5    O     O_R   0.514460 0.743220 0.691640 -0.589816
O6    O     O_R   0.490950 0.713870 0.380230 -0.594056
O7    O     O_R   0.692100 0.514670 0.655670 -0.580466
O8    O     O_R   0.668590 0.485320 0.344260 -0.585632
C17   C     C_3   0.350202 0.960971 0.288319 -0.355794
C18   C     C_3   0.235171 0.059541 0.296436 -0.877181
H10   H     H_    0.199491 0.078245 0.436375 0.249525
H11   H     H_    0.256139 0.175179 0.262353 0.266587
H12   H     H_    0.161213 0.998643 0.193150 0.244986
H13   H     H_    0.387107 0.948301 0.149654 0.217520
H14   H     H_    0.317162 0.842950 0.304045 0.225188

loop_
_geom_bond_atom_site_label_1
_geom_bond_atom_site_label_2
_ccdc_geom_bond_type
C14   H5    S    
C17   H14   S    
C10   O6    A    
C3    C9    S    
Cu1   O7    S    
C2    C16   A    
Cu2   O6    S    
C2    C12   A    
Cu1   Cu2   S    
Cu2   N1    S    
C17   H13   S    
C10   O5    A    
C13   C14   A    
C9    O4    A    
Cu1   O1    S    
N1    N2    D    
C17   C18   S    
C5    H7    S    
C8    C10   S    
C15   H6    S    
C7    C17   S    
C13   H4    S    
C2    C3    A    
C18   H12   S    
H2    N2    S    
C6    C11   S    
C5    C6    A    
Cu2   O4    S    
C7    C8    D    
Cu1   O5    S    
C6    C16   A    
C3    C4    A    
Cu1   N2    S    
C1    O2    A    
C8    H8    S    
C12   C13   A    
C18   H11   S    
C18   H10   S    
C11   O8    A    
Cu1   O3    S    
C14   C15   A    
C1    O1    A    
Cu2   O2    S    
C9    O3    A    
C1    C7    S    
C4    H1    S    
C12   H3    S    
Cu2   O8    S    
C15   C16   A    
C4    C5    A    
H9    N1    S    
C11   O7    A    
