data_mof_unit_49354.cif
_audit_creation_date              2013-03-05T16:15:19-0500
_audit_creation_method            fapswitch 2.2
_symmetry_space_group_name_H-M    P1
_symmetry_Int_Tables_number       1
_space_group_crystal_system       triclinic
_cell_length_a                    27.751273
_cell_length_b                    10.619925
_cell_length_c                    9.44019
_cell_angle_alpha                 90.015222
_cell_angle_beta                  90.177691
_cell_angle_gamma                 90.107564
_cell_volume                      2782.16078521

loop_
_atom_site_label
_atom_site_type_symbol
_atom_site_description
_atom_site_fract_x
_atom_site_fract_y
_atom_site_fract_z
_atom_type_partial_charge
O1    O     O_R   0.500020 0.316850 0.620870 -0.532785
O2    O     O_R   0.499980 0.683150 0.379130 -0.532894
O3    O     O_R   0.500000 0.316860 0.379090 -0.594589
O4    O     O_R   0.500000 0.683140 0.620910 -0.594296
C1    C     C_R   0.499995 0.259465 0.499822 0.807059
C2    C     C_R   0.500005 0.740535 0.500179 0.807281
O5    O     O_R   0.430270 0.500020 0.620880 -0.553701
O6    O     O_R   0.569730 0.499980 0.379120 -0.553299
O7    O     O_R   0.430250 0.500030 0.379090 -0.593963
O8    O     O_R   0.569750 0.499970 0.620910 -0.593922
C3    C     C_R   0.407480 0.500356 0.499882 0.825091
C4    C     C_R   0.592520 0.499686 0.500209 0.825504
Cu1   Cu    Cu3+1 0.500010 0.499990 0.643150 1.006509
Cu2   Cu    Cu3+1 0.499990 0.500010 0.356850 1.005681
C5    C     C_R   0.177888 0.395597 0.522695 0.649613
C6    C     C_R   0.822185 0.604424 0.523718 0.650439
O9    O     O_2   0.203336 0.289411 0.546286 -0.479470
O10   O     O_2   0.796811 0.710653 0.547341 -0.479845
N1    N     N_R   0.201460 0.506288 0.497275 -0.459596
N2    N     N_R   0.798537 0.493729 0.498432 -0.459430
C7    C     C_R   0.177042 0.615435 0.469820 0.680519
C8    C     C_R   0.822874 0.384535 0.470967 0.680456
C9    C     C_R   0.278398 0.509388 0.373106 -0.110642
C10   C     C_R   0.721383 0.490398 0.374081 -0.118400
C11   C     C_R   0.328538 0.506515 0.372293 -0.181850
C12   C     C_R   0.671246 0.493243 0.373098 -0.151063
C13   C     C_R   0.329086 0.501134 0.628930 -0.227611
C14   C     C_R   0.671132 0.499402 0.629709 -0.258346
C15   C     C_R   0.278553 0.504900 0.631407 0.374480
C16   C     C_R   0.721674 0.495549 0.632374 0.384137
C17   C     C_R   0.253147 0.508299 0.501282 0.208318
C18   C     C_R   0.746857 0.491804 0.502330 0.207663
C19   C     C_R   0.101419 0.503622 0.499795 -0.085150
C20   C     C_R   0.898586 0.496338 0.500496 -0.085202
C21   C     C_R   0.127445 0.392314 0.525998 -0.044890
C22   C     C_R   0.872638 0.607676 0.526806 -0.044917
C23   C     C_R   0.102810 0.281668 0.561977 -0.152576
C24   C     C_R   0.897378 0.718337 0.562619 -0.152382
C25   C     C_R   0.126113 0.616263 0.466310 -0.205113
C26   C     C_R   0.873793 0.383678 0.467202 -0.205098
C27   C     C_R   0.354356 0.502215 0.500151 -0.110572
C28   C     C_R   0.645645 0.497896 0.500874 -0.109776
H1    H     H_    0.348738 0.499120 0.728181 0.214632
H2    H     H_    0.651650 0.501858 0.728826 0.191700
H3    H     H_    0.122849 0.198622 0.592918 0.236744
H4    H     H_    0.877429 0.801408 0.593658 0.236730
C29   C     C_R   0.975436 0.384236 0.497472 -0.092166
C30   C     C_R   0.024559 0.615712 0.497264 -0.092155
C31   C     C_R   0.974267 0.613772 0.524509 0.025337
C32   C     C_R   0.025809 0.386193 0.524349 0.025329
C33   C     C_R   0.949434 0.498086 0.507452 -0.024475
C34   C     C_R   0.050591 0.501870 0.507086 -0.024508
C35   C     C_R   0.950968 0.275178 0.450528 0.612234
C36   C     C_R   0.048888 0.724739 0.450117 0.612233
C37   C     C_R   0.900763 0.274631 0.433112 0.249725
C38   C     C_R   0.099043 0.725279 0.432353 0.249801
O11   O     O_2   0.797674 0.277033 0.452731 -0.444978
O12   O     O_2   0.202186 0.722932 0.451395 -0.445055
C39   C     C_R   0.052415 0.278398 0.566981 0.357553
C40   C     C_R   0.947787 0.721596 0.567310 0.357551
H5    H     H_    0.652594 0.491898 0.272161 0.200135
H6    H     H_    0.347012 0.507527 0.271454 0.178653
H7    H     H_    0.740683 0.487992 0.274573 0.196632
H8    H     H_    0.258924 0.511519 0.273533 0.195480
C41   C     C_3   0.539437 0.042230 0.568077 -0.169075
C42   C     C_3   0.460562 0.957770 0.431929 -0.169639
C43   C     C_3   0.539754 0.958182 0.434238 -0.118671
C44   C     C_3   0.460246 0.041818 0.565769 -0.118982
H9    H     H_    0.572245 0.920795 0.380461 0.196765
H10   H     H_    0.427754 0.079206 0.619546 0.196991
H11   H     H_    0.571662 0.079991 0.623762 0.167571
H12   H     H_    0.428337 0.920009 0.376245 0.167436
C45   C     C_3   0.500005 0.877551 0.500755 -0.031583
C46   C     C_3   0.499994 0.122449 0.499250 -0.031729
C47   C     C_3   0.499688 0.959326 0.634751 -0.084398
C48   C     C_3   0.500312 0.040674 0.365255 -0.084825
H13   H     H_    0.499426 0.923489 0.745242 0.193047
H14   H     H_    0.500573 0.076509 0.254764 0.192980
C49   C     C_3   0.520107 0.598439 0.048548 0.478087
C50   C     C_3   0.479893 0.401557 0.951454 0.478406
C51   C     C_3   0.476793 0.597036 0.948622 -0.149270
C52   C     C_3   0.523207 0.402965 0.051380 -0.150216
H15   H     H_    0.457962 0.678944 0.900939 0.167505
H16   H     H_    0.542038 0.321060 0.099063 0.167354
N3    N     N_3   0.500040 0.499970 0.858290 -0.222261
N4    N     N_3   0.499960 0.500030 0.141710 -0.222319
C53   C     C_3   0.543819 0.503779 0.949597 -0.164207
C54   C     C_3   0.456179 0.496216 0.050408 -0.163694
H17   H     H_    0.580525 0.509269 0.903770 0.167057
H18   H     H_    0.419474 0.490718 0.096265 0.164531
N5    N     N_R   0.543493 0.710164 0.106074 0.133015
O13   O     O_R   0.525296 0.821009 0.082714 -0.377826
O14   O     O_R   0.584235 0.700210 0.173455 -0.353831
N6    N     N_R   0.456533 0.289784 0.893948 0.132522
O15   O     O_R   0.474767 0.178978 0.917295 -0.378097
O16   O     O_R   0.415779 0.299644 0.826617 -0.350756
N7    N     N_R   0.253900 0.505705 0.765626 0.144083
O17   O     O_R   0.275323 0.463674 0.878961 -0.323942
O18   O     O_R   0.211620 0.557144 0.778365 -0.310486
N8    N     N_R   0.746558 0.494954 0.766688 0.144019
O19   O     O_R   0.725282 0.536802 0.879978 -0.328611
O20   O     O_R   0.788910 0.443800 0.779568 -0.309950
N9    N     N_R   0.878410 0.165603 0.371358 0.207017
O21   O     O_R   0.887817 0.054016 0.420886 -0.212022
O22   O     O_R   0.855340 0.175839 0.251700 -0.249659
N10   N     N_R   0.121216 0.834268 0.370424 0.206939
O23   O     O_R   0.111939 0.945891 0.419957 -0.212106
O24   O     O_R   0.143960 0.823943 0.250649 -0.250055
F1    F     F_    0.976128 0.173294 0.405051 -0.545385
F2    F     F_    0.023593 0.826592 0.404805 -0.545388
N11   N     N_R   0.029537 0.172918 0.635119 0.194479
O25   O     O_R   0.993219 0.191212 0.719544 -0.273774
O26   O     O_R   0.049673 0.062418 0.632520 -0.188177
N12   N     N_R   0.970865 0.827104 0.635301 0.194530
O27   O     O_R   0.007443 0.808845 0.719418 -0.273693
O28   O     O_R   0.950709 0.937589 0.632937 -0.188217

loop_
_geom_bond_atom_site_label_1
_geom_bond_atom_site_label_2
_geom_bond_distance
_ccdc_geom_bond_type
C42   C44   1.546815 S    
C37   N9    1.435275 S    
C13   C15   1.403265 A    
C40   N12   1.439448 S    
N11   O25   1.301680 A    
N1    C17   1.434875 S    
C8    O11   1.348441 S    
C49   C53   1.523800 S    
N7    O17   1.301804 A    
C44   C47   1.545678 S    
C30   C36   1.412014 A    
C20   C33   1.412502 A    
C19   C25   1.413867 A    
C31   C40   1.421001 A    
C46   C48   1.534233 S    
O1    C1    1.294916 A    
C32   C39   1.421004 A    
C48   H14   1.110455 S    
C21   C23   1.400751 A    
C12   H5    1.083050 S    
C10   C12   1.391730 A    
N4    C54   1.487947 S    
N10   O23   1.300679 A    
C44   C46   1.531463 S    
C52   C53   1.548659 S    
C16   N8    1.441949 S    
C1    C46   1.455114 S    
C36   F2    1.359042 S    
C14   C28   1.405125 A    
O4    Cu1   1.956393 S    
C4    C28   1.474438 S    
N7    O18   1.301097 A    
C5    N1    1.365865 A    
C42   H12   1.110186 S    
C41   C43   1.546813 S    
C32   C34   1.416459 A    
C43   C45   1.531460 S    
C49   N5    1.455506 S    
C6    N2    1.365875 A    
C29   C35   1.412010 A    
N3    C53   1.487927 S    
C42   C48   1.545674 S    
Cu1   Cu2   2.702724 S    
C50   C54   1.523832 S    
C45   C47   1.534237 S    
O2    C2    1.294927 A    
C5    C21   1.400690 A    
C51   H15   1.110315 S    
N12   O27   1.301684 A    
C29   C32   1.420067 A    
C35   C37   1.402412 A    
C36   C38   1.402424 A    
Cu2   N4    2.030961 S    
N11   O26   1.300962 A    
C11   C27   1.402525 A    
N5    O13   1.300406 A    
C49   C51   1.525732 S    
C29   C33   1.412480 A    
C31   C33   1.416449 A    
C41   H11   1.110187 S    
C42   C45   1.531479 S    
C14   H2    1.082438 S    
C41   C46   1.531481 S    
C19   C34   1.412510 A    
C9    C17   1.400198 A    
O5    C3    1.303934 A    
O7    Cu2   1.947376 S    
C10   C18   1.400150 A    
C50   N3    1.476394 S    
N5    O14   1.300060 A    
O7    C3    1.305390 A    
C13   C27   1.405391 A    
C39   N11   1.439413 S    
C25   C38   1.417551 A    
C7    C25   1.413674 A    
C30   C34   1.412474 A    
O6    C4    1.304682 A    
C26   C37   1.417547 A    
C8    C26   1.413662 A    
N8    O20   1.301091 A    
N9    O22   1.301357 A    
C6    O10   1.349864 S    
N6    O16   1.300032 A    
C47   H13   1.110455 S    
C38   N10   1.435278 S    
C23   C39   1.399835 A    
O3    Cu2   1.956392 S    
O8    C4    1.304641 A    
C24   C40   1.399843 A    
O4    C2    1.292620 A    
C9    H8    1.083090 S    
C54   H18   1.109465 S    
C10   H7    1.083095 S    
C52   H16   1.110314 S    
C53   H17   1.109372 S    
C20   C26   1.413860 A    
O1    Cu1   1.956219 S    
C50   N6    1.455531 S    
C12   C28   1.402720 A    
C2    C45   1.455114 S    
N2    C18   1.434899 S    
C35   F1    1.359042 S    
C5    O9    1.349868 S    
C30   C31   1.420053 A    
O6    Cu2   1.946111 S    
N1    C7    1.368192 A    
N2    C8    1.368202 A    
O3    C1    1.292629 A    
O8    Cu1   1.947376 S    
N12   O28   1.300960 A    
C41   C47   1.545674 S    
C15   N7    1.441850 S    
C22   C24   1.400750 A    
C7    O12   1.348441 S    
C15   C17   1.414965 A    
C52   N4    1.487069 S    
C6    C22   1.400701 A    
C16   C18   1.415074 A    
N10   O24   1.301356 A    
C14   C16   1.403434 A    
N8    O19   1.301753 A    
C19   C21   1.407981 A    
C50   C52   1.525714 S    
C3    C27   1.474449 S    
C20   C22   1.407988 A    
C11   H6    1.082662 S    
C9    C11   1.391880 A    
N6    O15   1.300406 A    
O2    Cu2   1.956218 S    
C24   H4    1.083215 S    
C51   C54   1.548732 S    
C13   H1    1.082878 S    
O5    Cu1   1.946111 S    
C44   H10   1.110166 S    
Cu1   N3    2.030961 S    
N9    O21   1.300681 A    
C43   C48   1.545676 S    
C43   H9    1.110161 S    
C23   H3    1.083218 S    
C49   N4    1.476358 S    
C51   N3    1.487102 S    
