data_mof_unit_62256.cif
_audit_creation_date              2012-12-10T17:00:06-0500
_audit_creation_method            fapswitch 2.2
_symmetry_space_group_name_H-M    P1
_symmetry_Int_Tables_number       1
_space_group_crystal_system       triclinic
_cell_length_a                    13.156518
_cell_length_b                    13.174137
_cell_length_c                    16.0699
_cell_angle_alpha                 80.514516
_cell_angle_beta                  100.598485
_cell_angle_gamma                 91.273672
_cell_volume                      2700.28382648

loop_
_atom_site_label
_atom_site_type_symbol
_atom_type_description
_atom_site_fract_x
_atom_site_fract_y
_atom_site_fract_z
_atom_type_partial_charge
C1    C     C_R   0.465827 0.777839 0.467392 0.544872
C2    C     C_2   0.054692 0.521538 0.490928 0.360198
C3    C     C_2   0.887948 0.553746 0.529419 -0.067269
C4    C     C_R   0.535905 0.223421 0.531097 0.510651
C5    C     C_2   0.944244 0.501688 0.488953 -0.123836
C6    C     C_R   0.777098 0.534155 0.524082 0.500631
C7    C     C_R   0.223346 0.466194 0.475242 0.568826
C8    C     C_R   0.515979 0.487793 0.726978 0.518116
C9    C     C_R   0.484089 0.512427 0.273166 0.506841
C10   C     C_1   0.521961 0.483706 0.817405 0.042234
C11   C     C_2   0.530789 0.477655 0.984141 -0.122944
C12   C     C_1   0.470598 0.522542 0.106190 -0.038742
C13   C     C_2   0.462343 0.528623 0.014895 -0.008407
C14   C     C_1   0.379467 0.590163 0.959013 0.245497
C15   C     C_1   0.633656 0.909180 0.535815 0.196950
C16   C     C_1   0.526386 0.480676 0.893316 -0.020049
C17   C     C_1   0.477096 0.517703 0.182511 0.029517
C18   C     C_2   0.547373 0.112468 0.542061 -0.084503
C19   C     C_2   0.521483 0.062956 0.475026 -0.104788
C20   C     C_2   0.459036 0.891300 0.451779 0.382102
C21   C     C_2   0.535220 0.950858 0.486746 -0.036720
C22   C     C_2   0.112296 0.453066 0.467292 -0.032271
F1    F     F_    0.371667 0.936308 0.401675 -0.605646
F2    F     F_    0.098596 0.606878 0.519831 -0.598775
H1    H     H_    0.078927 0.381784 0.449403 0.037205
H2    H     H_    0.592069 0.432135 0.028099 0.135062
H3    H     H_    0.487142 0.104670 0.412312 0.176913
H4    H     H_    0.572239 0.070236 0.606455 0.119030
H5    H     H_    0.908702 0.441700 0.454435 0.121761
H6    H     H_    0.923204 0.612312 0.565584 0.185281
N1    N     N_1   0.313155 0.639401 0.914284 -0.248544
N2    N     N_1   0.712188 0.876375 0.574859 -0.241216
O1    O     O_3   0.500000 0.500000 0.500000 -0.462734
O2    O     O_R   0.564890 0.556920 0.685230 -0.526743
O3    O     O_R   0.419250 0.562810 0.301190 -0.533732
O4    O     O_R   0.461010 0.422870 0.688230 -0.527204
O5    O     O_R   0.554850 0.457400 0.325340 -0.538034
O6    O     O_R   0.732880 0.470090 0.478000 -0.538099
O7    O     O_R   0.260330 0.535210 0.424090 -0.499453
O8    O     O_R   0.533020 0.732860 0.528350 -0.564391
O9    O     O_R   0.473780 0.261850 0.569570 -0.527927
O10   O     O_R   0.406490 0.723840 0.419860 -0.479067
O11   O     O_R   0.586720 0.281460 0.482230 -0.532205
O12   O     O_R   0.723810 0.584530 0.562340 -0.523167
O13   O     O_R   0.282980 0.410180 0.535580 -0.531662
Zn1   Zn    Zn3+2 0.592010 0.428480 0.447310 0.949979
Zn2   Zn    Zn3+2 0.579060 0.591980 0.567800 0.984359
Zn3   Zn    Zn3+2 0.430650 0.400450 0.572090 0.983747
Zn4   Zn    Zn3+2 0.398290 0.579090 0.412800 1.018357

loop_
_geom_bond_atom_site_label_1
_geom_bond_atom_site_label_2
_ccdc_geom_bond_type
C12   C17   T    
O3    Zn4   S    
O8    Zn2   S    
O12   Zn2   S    
C2    C22   D    
C4    O11   A    
C3    H6    S    
C7    C22   S    
C19   H3    S    
C11   C16   S    
C1    O8    A    
C20   F1    S    
C14   N1    T    
C3    C6    S    
C4    C18   S    
C9    O5    A    
C15   N2    T    
C6    O12   A    
C13   C14   S    
C12   C13   S    
O1    Zn1   S    
C11   C13   D    
C7    O13   A    
C9    C17   S    
O7    Zn4   S    
O9    Zn3   S    
O4    Zn3   S    
C5    H5    S    
C2    F2    S    
O1    Zn2   S    
O11   Zn1   S    
O6    Zn1   S    
C2    C5    S    
C4    O9    A    
O10   Zn4   S    
O1    Zn4   S    
C1    O10   A    
C15   C21   S    
C18   H4    S    
C20   C21   D    
C8    C10   S    
C18   C19   D    
C8    O4    A    
O13   Zn3   S    
C9    O3    A    
O1    Zn3   S    
C7    O7    A    
C1    C20   S    
C10   C16   T    
O2    Zn2   S    
C11   H2    S    
C19   C21   S    
O5    Zn1   S    
C8    O2    A    
C6    O6    A    
C3    C5    D    
C22   H1    S    
