data_mof_unit_14194.cif
_audit_creation_date              2012-12-10T17:25:17-0500
_audit_creation_method            fapswitch 2.2
_symmetry_space_group_name_H-M    P1
_symmetry_Int_Tables_number       1
_space_group_crystal_system       triclinic
_cell_length_a                    27.534217
_cell_length_b                    10.840277
_cell_length_c                    9.677127
_cell_angle_alpha                 91.034462
_cell_angle_beta                  91.365818
_cell_angle_gamma                 94.926992
_cell_volume                      2876.33836085

loop_
_atom_site_label
_atom_site_type_symbol
_atom_type_description
_atom_site_fract_x
_atom_site_fract_y
_atom_site_fract_z
_atom_type_partial_charge
C1    C     C_R   0.502671 0.263837 0.498906 0.798014
C2    C     C_R   0.275739 0.372355 0.502824 0.025116
C3    C     C_R   0.252999 0.484479 0.521000 0.133401
C4    C     C_R   0.105341 0.491148 0.623634 -0.133339
C5    C     C_R   0.127823 0.380114 0.639884 -0.015621
C6    C     C_R   0.098825 0.268809 0.663271 0.118808
C7    C     C_R   0.134830 0.604082 0.618979 -0.003689
C8    C     C_R   0.354226 0.493338 0.494131 -0.166844
C9    C     C_R   0.645208 0.475162 0.504122 -0.084386
C10   C     C_R   0.974760 0.374534 0.579740 0.059152
C11   C     C_R   0.979872 0.600867 0.605616 0.049307
C12   C     C_R   0.407673 0.498917 0.498421 0.815821
C13   C     C_R   0.951882 0.486211 0.580811 0.083687
C14   C     C_R   0.947922 0.266621 0.527596 -0.203106
C15   C     C_R   0.897932 0.263014 0.496764 -0.013929
C16   C     C_R   0.873059 0.370489 0.520261 -0.087525
C17   C     C_R   0.900716 0.483185 0.556322 -0.053414
C18   C     C_R   0.877251 0.593265 0.568276 -0.025414
C19   C     C_R   0.826510 0.588964 0.549816 0.548740
C20   C     C_R   0.821613 0.370113 0.512143 0.572981
C21   C     C_R   0.721820 0.440667 0.394049 -0.142430
C22   C     C_R   0.670607 0.435770 0.386869 -0.032300
C23   C     C_R   0.500035 0.738031 0.502925 0.825237
C24   C     C_R   0.671471 0.501372 0.628800 -0.250725
C25   C     C_R   0.721972 0.502583 0.635223 -0.086130
C26   C     C_R   0.747494 0.475463 0.517199 0.328887
C27   C     C_R   0.024949 0.375631 0.618888 -0.027367
C28   C     C_R   0.053883 0.490032 0.618720 0.064318
C29   C     C_R   0.031604 0.603268 0.613284 0.040415
C30   C     C_R   0.047307 0.267116 0.658036 -0.075059
C31   C     C_R   0.112675 0.716509 0.616579 0.177004
C32   C     C_R   0.955059 0.709203 0.618122 -0.193294
C33   C     C_R   0.904731 0.705131 0.600228 -0.114196
C34   C     C_R   0.592210 0.491244 0.500953 0.845039
C35   C     C_R   0.061900 0.715122 0.613449 -0.245324
C36   C     C_R   0.563135 0.146469 0.702691 -0.133308
C37   C     C_R   0.579763 0.093957 0.822982 -0.121129
C38   C     C_R   0.564274 0.972275 0.851733 -0.107326
C39   C     C_R   0.535469 0.900217 0.755128 -0.174828
C40   C     C_R   0.522516 0.947312 0.624800 0.082869
C41   C     C_R   0.531458 0.076235 0.607709 0.096084
C42   C     C_R   0.507947 0.131750 0.497025 -0.092570
C43   C     C_R   0.484703 0.059096 0.390529 -0.180670
C44   C     C_R   0.482438 0.931798 0.395728 -0.131987
C45   C     C_R   0.179278 0.385804 0.635300 0.622469
C46   C     C_R   0.500758 0.873639 0.511207 -0.129345
C47   C     C_R   0.580098 0.630965 0.144967 0.017515
C48   C     C_R   0.623483 0.654238 0.073084 0.120105
C49   C     C_R   0.619933 0.670271 0.930835 0.064428
C50   C     C_R   0.575894 0.632856 0.862000 -0.229314
C51   C     C_R   0.537797 0.564290 0.928305 0.136507
C52   C     C_R   0.538485 0.564575 0.077008 0.062253
C53   C     C_R   0.463824 0.438127 0.070429 0.088263
C54   C     C_R   0.463848 0.437192 0.923715 0.200996
C55   C     C_R   0.185791 0.599577 0.612734 0.611691
C56   C     C_R   0.278441 0.591947 0.466296 -0.043301
C57   C     C_R   0.330037 0.599917 0.465656 -0.116553
C58   C     C_R   0.327016 0.377670 0.502633 0.028990
Cu1   Cu    Cu3+1 0.500000 0.499990 0.640660 0.931192
Cu2   Cu    Cu3+1 0.500000 0.500010 0.359340 1.027112
H1    H     H_    0.973374 0.798516 0.645183 0.182741
H2    H     H_    0.652836 0.521100 0.722191 0.178221
H3    H     H_    0.887408 0.790651 0.611695 0.219485
H4    H     H_    0.741406 0.524888 0.732292 0.146185
H5    H     H_    0.047344 0.803873 0.604947 0.177231
H6    H     H_    0.467528 0.100482 0.303471 0.220970
H7    H     H_    0.575643 0.241950 0.684348 0.158713
H8    H     H_    0.603191 0.149083 0.896223 0.158989
H9    H     H_    0.574473 0.933449 0.949424 0.185718
H10   H     H_    0.521225 0.812042 0.790712 0.182782
H11   H     H_    0.465037 0.878430 0.309742 0.228418
H12   H     H_    0.571907 0.662075 0.758045 0.206033
H13   H     H_    0.741952 0.413462 0.305230 0.177146
H14   H     H_    0.966420 0.185508 0.501798 0.166359
N1    N     N_R   0.204972 0.489059 0.585347 -0.440557
N2    N     N_R   0.799780 0.478411 0.524573 -0.467278
N3    N     N_R   0.500460 0.501210 0.147910 -0.251562
N4    N     N_R   0.500480 0.501290 0.852040 -0.203626
O1    O     O_R   0.500000 0.319640 0.618810 -0.613691
O2    O     O_2   0.793341 0.262500 0.498611 -0.497287
O3    O     O_2   0.215690 0.702565 0.640414 -0.468478
O4    O     O_2   0.803892 0.694421 0.558188 -0.512013
O5    O     O_R   0.500000 0.319660 0.381240 -0.535745
O6    O     O_R   0.430260 0.500010 0.618770 -0.592467
O7    O     O_R   0.430270 0.500030 0.381200 -0.544142
O8    O     O_R   0.500000 0.680340 0.618760 -0.611642
O9    O     O_R   0.500000 0.680360 0.381190 -0.546851
O10   O     O_R   0.569730 0.499970 0.618800 -0.617910
O11   O     O_R   0.569740 0.499990 0.381230 -0.555789
O12   O     O_2   0.203252 0.294248 0.689785 -0.482771
N5    N     N_3   0.351011 0.265178 0.503966 -0.505201
H15   H     H_    0.371986 0.261042 0.415746 0.237928
H16   H     H_    0.374290 0.267114 0.590898 0.226895
C59   C     C_2   0.250853 0.678969 0.383012 0.937813
O13   O     O_2   0.266154 0.787432 0.371447 -0.528967
O14   O     O_R   0.206816 0.635159 0.316924 -0.753003
H17   H     H_    0.191050 0.702088 0.264625 0.343118
N6    N     N_3   0.141285 0.833108 0.610920 -0.489567
H18   H     H_    0.132921 0.887071 0.696306 0.241232
H19   H     H_    0.131086 0.877796 0.521247 0.223257
C60   C     C_2   0.247161 0.256278 0.453234 0.954295
O15   O     O_2   0.210488 0.262399 0.380637 -0.588209
O16   O     O_R   0.261940 0.140425 0.488630 -0.659609
H20   H     H_    0.239261 0.069350 0.448670 0.363646
C61   C     C_2   0.422254 0.371284 0.137339 0.934772
O17   O     O_2   0.426975 0.271686 0.190352 -0.627525
O18   O     O_R   0.376687 0.419059 0.131918 -0.726220
H21   H     H_    0.350638 0.364200 0.179012 0.334870
C62   C     C_2   0.574536 0.737985 0.236596 0.911328
O19   O     O_2   0.548718 0.817821 0.198379 -0.627427
O20   O     O_R   0.602944 0.755698 0.358336 -0.753712
H22   H     H_    0.598226 0.836979 0.407535 0.322950
N7    N     N_3   0.668053 0.692948 0.148013 -0.527857
H23   H     H_    0.678083 0.785806 0.126888 0.254127
H24   H     H_    0.695344 0.639949 0.112486 0.248743
N8    N     N_3   0.659104 0.737398 0.860804 -0.574217
H25   H     H_    0.689302 0.685287 0.864378 0.229681
H26   H     H_    0.649880 0.747853 0.756471 0.238721
N9    N     N_3   0.424096 0.366118 0.853667 -0.571757
H27   H     H_    0.397693 0.424320 0.823216 0.268665
H28   H     H_    0.436045 0.314008 0.772158 0.263070
N10   N     N_3   0.121912 0.157574 0.690270 -0.491815
H29   H     H_    0.110911 0.123088 0.785813 0.245101
H30   H     H_    0.111575 0.092522 0.611775 0.243477
C63   C     C_2   0.645452 0.378062 0.261230 0.862087
O21   O     O_2   0.663390 0.393898 0.147823 -0.615963
O22   O     O_R   0.602919 0.299072 0.273140 -0.747417
H31   H     H_    0.589518 0.264724 0.180432 0.334110
C64   C     C_2   0.874544 0.147778 0.430473 0.937613
O23   O     O_2   0.882476 0.047072 0.477020 -0.585699
O24   O     O_R   0.845422 0.154090 0.310838 -0.715514
H32   H     H_    0.832099 0.069314 0.274363 0.349741
C65   C     C_2   0.017543 0.158766 0.713995 0.826659
O25   O     O_2   0.024577 0.053177 0.678111 -0.646866
O26   O     O_R   0.980636 0.178692 0.806559 -0.725809
H33   H     H_    0.962412 0.098652 0.836192 0.347182
C66   C     C_2   0.358591 0.717580 0.433527 0.892309
O27   O     O_2   0.384682 0.722948 0.333023 -0.577966
O28   O     O_R   0.355340 0.822171 0.518287 -0.684395
H34   H     H_    0.376371 0.896952 0.485900 0.342169

loop_
_geom_bond_atom_site_label_1
_geom_bond_atom_site_label_2
_ccdc_geom_bond_type
C10   C27   A    
C21   C26   A    
C60   O15   D    
C41   C42   A    
O20   H22   S    
C7    C55   A    
C65   O25   D    
C36   H7    S    
O26   H33   S    
Cu2   O11   S    
N8    H25   S    
C56   C59   S    
C61   O18   S    
C12   O6    A    
C12   O7    A    
C14   H14   S    
C19   N2    A    
C32   H1    S    
N7    H23   S    
C62   O20   S    
C38   C39   A    
Cu2   O5    S    
C9    C22   A    
C35   H5    S    
C16   C20   A    
C15   C16   A    
C37   H8    S    
C21   H13   S    
C56   C57   A    
C20   N2    A    
C44   H11   S    
C18   C19   A    
C31   N6    S    
C50   H12   S    
Cu1   O10   S    
O16   H20   S    
C8    C58   A    
C16   C17   A    
C23   O8    A    
C26   N2    S    
O18   H21   S    
O22   H31   S    
C51   N4    A    
C55   O3    S    
C19   O4    S    
C3    N1    S    
C58   N5    S    
C8    C12   S    
C55   N1    A    
C38   H9    S    
Cu1   Cu2   S    
C60   O16   S    
C23   C46   S    
C23   O9    A    
C21   C22   A    
C27   C30   A    
C36   C41   A    
C4    C7    A    
Cu1   N4    S    
C4    C28   A    
Cu2   O9    S    
C44   C46   A    
C17   C18   A    
N9    H28   S    
O28   H34   S    
Cu2   N3    S    
C7    C31   A    
C20   O2    S    
C51   C52   A    
Cu1   O6    S    
C10   C14   A    
Cu1   O1    S    
N5    H15   S    
C22   C63   S    
C2    C60   S    
C25   C26   A    
C53   C54   A    
C5    C45   A    
N7    H24   S    
C25   H4    S    
C53   N3    A    
C43   C44   A    
C37   C38   A    
C8    C57   A    
N5    H16   S    
C66   O28   S    
C3    C56   A    
C47   C48   A    
C15   C64   S    
C33   H3    S    
C30   C65   S    
O14   H17   S    
C50   C51   A    
C57   C66   S    
C34   O10   A    
C24   C25   A    
C59   O14   S    
C45   O12   S    
C40   C41   A    
C6    C30   A    
C11   C32   A    
C49   C50   A    
N6    H19   S    
C63   O21   D    
C1    O1    A    
C31   C35   A    
C42   C43   A    
C40   C46   A    
N10   H30   S    
C52   N3    A    
C28   C29   A    
C39   C40   A    
C65   O26   S    
C64   O23   D    
C66   O27   D    
C36   C37   A    
C24   H2    S    
C4    C5    A    
C10   C13   A    
N9    H27   S    
C2    C58   A    
C9    C24   A    
C47   C52   A    
C1    O5    A    
C61   O17   D    
C29   C35   A    
C13   C17   A    
C45   N1    A    
C32   C33   A    
C2    C3    A    
Cu1   O8    S    
C47   C62   S    
C62   O19   D    
C11   C13   A    
C5    C6    A    
C43   H6    S    
C48   C49   A    
C39   H10   S    
N8    H26   S    
C9    C34   S    
C59   O13   D    
C18   C33   A    
C34   O11   A    
C53   C61   S    
C1    C42   S    
C49   N8    S    
C11   C29   A    
N6    H18   S    
C27   C28   A    
C63   O22   S    
C6    N10   S    
C14   C15   A    
Cu2   O7    S    
C64   O24   S    
N10   H29   S    
C54   N9    S    
O24   H32   S    
C48   N7    S    
C54   N4    A    
