data_mof_unit_68413.cif
_audit_creation_date              2013-03-05T15:39:55-0500
_audit_creation_method            fapswitch 2.2
_symmetry_space_group_name_H-M    P1
_symmetry_Int_Tables_number       1
_space_group_crystal_system       triclinic
_cell_length_a                    11.681547
_cell_length_b                    12.756009
_cell_length_c                    7.914026
_cell_angle_alpha                 90.208082
_cell_angle_beta                  92.366824
_cell_angle_gamma                 90.290674
_cell_volume                      1178.23847804

loop_
_atom_site_label
_atom_site_type_symbol
_atom_site_description
_atom_site_fract_x
_atom_site_fract_y
_atom_site_fract_z
_atom_type_partial_charge
O1    O     O_R   0.375700 0.885870 0.609240 -0.600035
O2    O     O_R   0.624300 0.114130 0.390760 -0.600100
O3    O     O_R   0.624300 0.885870 0.390760 -0.599302
O4    O     O_R   0.375700 0.114130 0.609240 -0.599328
O5    O     O_R   0.875700 0.385870 0.609240 -0.600016
O6    O     O_R   0.124300 0.614130 0.390760 -0.600069
O7    O     O_R   0.124300 0.385870 0.390760 -0.599269
O8    O     O_R   0.875700 0.614130 0.609240 -0.599307
O9    O     O_R   0.402280 0.885870 0.324040 -0.599210
O10   O     O_R   0.597720 0.114130 0.675960 -0.599225
O11   O     O_R   0.597720 0.885870 0.675960 -0.598927
O12   O     O_R   0.402280 0.114130 0.324040 -0.598921
O13   O     O_R   0.902280 0.385870 0.324040 -0.599189
O14   O     O_R   0.097720 0.614130 0.675960 -0.599225
O15   O     O_R   0.097720 0.385870 0.675960 -0.598880
O16   O     O_R   0.902280 0.614130 0.324040 -0.598930
C1    C     C_R   0.353972 0.852129 0.458135 0.917894
C2    C     C_R   0.646036 0.147858 0.541868 0.917721
C3    C     C_R   0.646177 0.852437 0.541824 0.916743
C4    C     C_R   0.353886 0.147608 0.458195 0.916765
C5    C     C_R   0.853926 0.352174 0.458114 0.917807
C6    C     C_R   0.146031 0.647861 0.541876 0.917791
C7    C     C_R   0.146224 0.352477 0.541827 0.916662
C8    C     C_R   0.853826 0.647567 0.458186 0.916690
Zn1   Zn    Zn3+2 0.482250 0.000000 0.690430 1.081984
Zn2   Zn    Zn3+2 0.517750 1.000000 0.309570 1.081977
Zn3   Zn    Zn3+2 0.982250 0.500000 0.690430 1.081990
Zn4   Zn    Zn3+2 0.017750 0.500000 0.309570 1.081986
C9    C     C_2   0.291752 0.241131 0.446315 -0.058494
C10   C     C_2   0.708351 0.758936 0.553682 -0.058311
C11   C     C_2   0.706628 0.242646 0.551219 -0.059970
C12   C     C_2   0.293370 0.757334 0.448824 -0.059902
C13   C     C_2   0.791681 0.741083 0.446395 -0.058395
C14   C     C_2   0.208477 0.259032 0.553704 -0.058373
C15   C     C_2   0.206671 0.742625 0.551273 -0.059735
C16   C     C_2   0.793269 0.257426 0.448691 -0.059731
N1    N     N_2   0.541470 1.000000 0.055820 0.023332
N2    N     N_2   0.458530 0.000000 0.944180 0.023355
N3    N     N_2   0.041470 0.500000 0.055820 0.023376
N4    N     N_2   0.958530 0.500000 0.944180 0.023357
I1    I     I_    0.870899 0.852540 0.290228 -0.173148
I2    I     I_    0.129396 0.147650 0.710163 -0.172865
I3    I     I_    0.116844 0.861272 0.678053 -0.185278
I4    I     I_    0.883147 0.138824 0.321928 -0.185192
I5    I     I_    0.370181 0.352099 0.287877 -0.172473
I6    I     I_    0.629354 0.647602 0.710424 -0.172977
I7    I     I_    0.616703 0.361271 0.677920 -0.185559
I8    I     I_    0.383483 0.638473 0.322992 -0.185776
I9    I     I_    0.707067 0.007579 0.974406 -0.065817
I10   I     I_    0.292948 0.992418 0.025641 -0.065727
I11   I     I_    0.206992 0.508539 0.974253 -0.065898
I12   I     I_    0.792962 0.492000 0.025606 -0.065878

loop_
_geom_bond_atom_site_label_1
_geom_bond_atom_site_label_2
_geom_bond_distance
_ccdc_geom_bond_type
O16   Zn4   1.995874 S    
N3    I11   2.066079 S    
Zn2   N1    2.038513 S    
O3    C3    1.286868 A    
N1    N2    1.283983 D    
N2    I10   2.065876 S    
N4    I12   2.065858 S    
O14   Zn3   1.986475 S    
O2    C2    1.284430 A    
C15   I3    2.119054 S    
Zn4   N3    2.038513 S    
O15   Zn3   1.995874 S    
C8    C13   1.400957 S    
C14   I2    2.121117 S    
Zn3   N4    2.038514 S    
C7    C14   1.400867 S    
C13   I1    2.121105 S    
O12   C4    1.295342 A    
O13   Zn4   1.986476 S    
O15   C7    1.295449 A    
O4    Zn1   2.010140 S    
O13   C5    1.296156 A    
O2    Zn2   1.997574 S    
C5    C16   1.398084 S    
C11   I7    2.119128 S    
O1    Zn1   1.997575 S    
C6    C15   1.398155 S    
C12   I8    2.119071 S    
O11   C3    1.295371 A    
O10   C2    1.296204 A    
O7    C7    1.286812 A    
O10   Zn1   1.986475 S    
O9    C1    1.296237 A    
O8    C8    1.286812 A    
O9    Zn2   1.986476 S    
C4    C9    1.400996 S    
O14   C6    1.296136 A    
Zn1   N2    2.038514 S    
C16   I4    2.118874 S    
O11   Zn1   1.995874 S    
O4    C4    1.286808 A    
C12   C15   1.336144 D    
N1    I9    2.065917 S    
O16   C8    1.295437 A    
O12   Zn2   1.995874 S    
N3    N4    1.283983 D    
C1    C12   1.398255 S    
O8    Zn3   2.010140 S    
C11   C16   1.336144 D    
C2    C11   1.398137 S    
C10   C13   1.337702 D    
O5    Zn3   1.997575 S    
C3    C10   1.401013 S    
O1    C1    1.284445 A    
C9    C14   1.337868 D    
C10   I6    2.121615 S    
O3    Zn2   2.010141 S    
O6    Zn4   1.997574 S    
O7    Zn4   2.010141 S    
C9    I5    2.123649 S    
O5    C5    1.284499 A    
O6    C6    1.284495 A    
