data_mof_unit_31813.cif
_audit_creation_date              2012-12-11T15:33:59-0500
_audit_creation_method            fapswitch 2.2
_symmetry_space_group_name_H-M    P1
_symmetry_Int_Tables_number       1
_space_group_crystal_system       triclinic
_cell_length_a                    15.028057
_cell_length_b                    15.053487
_cell_length_c                    34.93755
_cell_angle_alpha                 90.646714
_cell_angle_beta                  90.072044
_cell_angle_gamma                 60.133063
_cell_volume                      6853.47156167

loop_
_atom_site_label
_atom_site_type_symbol
_atom_type_description
_atom_site_fract_x
_atom_site_fract_y
_atom_site_fract_z
_atom_type_partial_charge
C1    C     C_R   0.301248 0.608794 0.555471 0.557217
C2    C     C_R   0.204626 0.727767 0.393318 -0.104616
C3    C     C_R   0.742171 0.072542 0.272192 0.098151
C4    C     C_R   0.746230 0.067012 0.232431 -0.094739
C5    C     C_R   0.679126 0.151671 0.210557 -0.017693
C6    C     C_R   0.735070 0.196343 0.352160 0.115259
C7    C     C_R   0.713548 0.230840 0.390055 -0.105698
C8    C     C_R   0.565284 0.207223 0.389699 -0.129080
C9    C     C_R   0.735823 0.571171 0.649765 -0.102320
C10   C     C_R   0.585918 0.173619 0.351833 -0.116187
C11   C     C_R   0.667865 0.172458 0.332430 0.061616
C12   C     C_R   0.625558 0.241562 0.408394 -0.002810
C13   C     C_R   0.173748 0.744023 0.355073 0.157181
C14   C     C_R   0.083200 0.709734 0.094051 0.021571
C15   C     C_R   0.090368 0.623590 0.112142 -0.115559
C16   C     C_R   0.121334 0.603879 0.150116 -0.111520
C17   C     C_R   0.145787 0.669789 0.170352 0.032661
C18   C     C_R   0.147873 0.750134 0.151246 -0.101141
C19   C     C_R   0.116848 0.769963 0.113299 -0.114672
C20   C     C_R   0.232809 0.675408 0.230213 -0.119896
C21   C     C_3   0.628833 0.375295 0.808324 -0.265120
C22   C     C_3   0.096219 0.443289 0.897867 -0.266563
C23   C     C_3   0.513139 0.851948 0.443905 -0.271001
C24   C     C_R   0.176675 0.662495 0.333763 0.022339
C25   C     C_3   0.437054 0.416741 0.268730 -0.305115
C26   C     C_3   0.211248 0.879017 0.338170 -0.291298
C27   C     C_3   0.274429 0.370958 0.385881 -0.295507
C28   C     C_R   0.573034 0.729913 0.648904 -0.118370
C29   C     C_R   0.240223 0.631735 0.410283 -0.007172
C30   C     C_R   0.735705 0.025955 0.943440 0.546899
C31   C     C_R   0.744824 0.721881 0.945501 0.565363
C32   C     C_R   0.039815 0.733142 0.948387 0.556421
C33   C     C_R   0.723131 0.038603 0.053085 0.558004
C34   C     C_R   0.733813 0.735069 0.055008 0.547097
C35   C     C_R   0.658829 0.657047 0.669013 0.037205
C36   C     C_R   0.027800 0.744785 0.057783 0.540567
C37   C     C_R   0.560002 0.711793 0.610527 -0.128781
C38   C     C_R   0.677657 0.669899 0.787811 0.362611
C39   C     C_R   0.663880 0.663232 0.710625 0.343416
C40   C     C_R   0.753621 0.587651 0.852140 0.101275
C41   C     C_R   0.760385 0.599901 0.892031 0.108414
C42   C     C_R   0.642951 0.782725 0.886421 -0.156305
C43   C     C_R   0.629176 0.769728 0.848013 -0.150620
C44   C     C_R   0.687045 0.674121 0.829872 0.015794
C45   C     C_R   0.611039 0.588364 0.555207 0.541427
C46   C     C_R   0.237099 0.677092 0.269907 -0.149689
C47   C     C_R   0.712131 0.699572 0.908420 0.009889
C48   C     C_R   0.721070 0.076209 0.906176 0.019135
C49   C     C_R   0.630991 0.104277 0.885331 -0.123782
C50   C     C_R   0.625224 0.129773 0.846922 -0.137449
C51   C     C_R   0.708639 0.129136 0.828884 0.040166
C52   C     C_R   0.795706 0.108914 0.850174 -0.077782
C53   C     C_R   0.802050 0.082349 0.888661 -0.113794
C54   C     C_R   0.715713 0.220609 0.770200 0.144466
C55   C     C_R   0.711960 0.228889 0.730249 -0.098009
C56   C     C_R   0.698745 0.159248 0.707144 0.003420
C57   C     C_R   0.164860 0.667096 0.292054 0.019352
C58   C     C_R   0.590724 0.299686 0.553493 0.554175
C59   C     C_R   0.692751 0.078732 0.724343 -0.121241
C60   C     C_R   0.696940 0.069612 0.763974 -0.144042
C61   C     C_R   0.707403 0.140554 0.787152 0.045150
C62   C     C_R   0.604756 0.167265 0.647084 -0.088959
C63   C     C_R   0.577810 0.199130 0.609318 0.093801
C64   C     C_R   0.713684 0.242162 0.607290 -0.144455
C65   C     C_R   0.740027 0.209690 0.644782 -0.126705
C66   C     C_R   0.683012 0.176144 0.665537 0.007839
C67   C     C_R   0.629315 0.242315 0.589568 0.024209
C68   C     C_R   0.088587 0.653503 0.274037 0.118273
C69   C     C_R   0.095917 0.694537 0.911168 0.027047
C70   C     C_R   0.298912 0.610475 0.446296 0.549072
C71   C     C_R   0.124152 0.756357 0.889636 0.067048
C72   C     C_R   0.140739 0.740158 0.850352 -0.111987
C73   C     C_R   0.132799 0.661986 0.831684 -0.026687
C74   C     C_R   0.119559 0.591873 0.853338 -0.090016
C75   C     C_R   0.103955 0.605028 0.893325 0.122580
C76   C     C_R   0.198469 0.560872 0.770522 -0.101185
C77   C     C_R   0.207079 0.556785 0.730655 -0.079054
C78   C     C_R   0.153958 0.646513 0.709232 0.050104
C79   C     C_R   0.084694 0.651979 0.234227 -0.084125
C80   C     C_R   0.090583 0.739978 0.727978 -0.098656
C81   C     C_R   0.082087 0.744179 0.767753 -0.102697
C82   C     C_R   0.608386 0.590489 0.445486 0.551812
C83   C     C_R   0.137491 0.655043 0.789431 0.032342
C84   C     C_R   0.227142 0.697050 0.656859 -0.154045
C85   C     C_R   0.261534 0.688992 0.619543 -0.150313
C86   C     C_R   0.188447 0.581258 0.602661 0.106243
C87   C     C_R   0.153707 0.589409 0.640912 0.121620
C88   C     C_R   0.176400 0.645120 0.668166 0.004929
C89   C     C_R   0.246292 0.628534 0.592401 0.007080
C90   C     C_R   0.156492 0.663001 0.212124 0.002516
C91   C     C_R   0.694192 0.722512 0.091975 -0.003456
C92   C     C_R   0.611322 0.807397 0.110008 -0.095511
C93   C     C_R   0.587321 0.802935 0.148303 0.102371
C94   C     C_R   0.588699 0.301065 0.444256 0.547282
C95   C     C_R   0.645683 0.712152 0.168848 0.051833
C96   C     C_R   0.724123 0.625556 0.150222 -0.108980
C97   C     C_R   0.748173 0.630530 0.112090 -0.122352
C98   C     C_R   0.595729 0.648187 0.226317 0.111982
C99   C     C_R   0.594981 0.638608 0.266004 -0.071352
C100  C     C_R   0.631908 0.688314 0.289956 0.020838
C101  C     C_R   0.203500 0.569676 0.351401 -0.093736
C102  C     C_R   0.666667 0.750643 0.274243 -0.081046
C103  C     C_R   0.667847 0.760340 0.234627 -0.099371
C104  C     C_R   0.633394 0.708623 0.210432 0.054249
C105  C     C_R   0.561911 0.745203 0.355274 -0.133672
C106  C     C_R   0.633706 0.621503 0.591966 0.020664
C107  C     C_R   0.556595 0.724822 0.394026 0.129164
C108  C     C_R   0.707401 0.556352 0.384911 -0.130304
C109  C     C_R   0.712958 0.577996 0.346578 0.112699
C110  C     C_R   0.637414 0.671107 0.331317 0.004621
C111  C     C_R   0.626836 0.626755 0.408613 0.015672
C112  C     C_R   0.232949 0.553456 0.389923 0.133583
C113  C     C_R   0.704016 0.092893 0.090285 0.026097
C114  C     C_R   0.790117 0.076662 0.111747 -0.143232
C115  C     C_R   0.780855 0.101085 0.150483 -0.118565
C116  C     C_R   0.685226 0.143522 0.168576 0.010897
C117  C     C_R   0.597303 0.170211 0.146756 -0.076412
C118  C     C_R   0.724083 0.554135 0.611437 -0.112630
C119  C     C_R   0.605678 0.145642 0.107703 0.098624
C120  C     C_R   0.605813 0.242052 0.228754 -0.072135
C121  C     C_R   0.600846 0.249467 0.268925 0.152217
C122  C     C_R   0.671049 0.164180 0.290550 0.059450
Cr1   Cr    Cr6+3 0.421670 0.426920 0.499620 1.087954
Cr2   Cr    Cr6+3 0.427030 0.651190 0.500980 1.037622
Cr3   Cr    Cr6+3 0.651280 0.421870 0.499380 1.030297
Cr4   Cr    Cr6+3 0.910810 0.908010 0.001130 1.060570
Cr5   Cr    Cr6+3 0.682800 0.909890 0.998370 1.058491
Cr6   Cr    Cr6+3 0.908370 0.682300 0.002180 1.059484
H1    H     H_    0.782901 0.484365 0.597908 0.148073
H2    H     H_    0.489824 0.765124 0.596170 0.132403
H3    H     H_    0.756387 0.272739 0.593001 0.142149
H4    H     H_    0.258189 0.484426 0.716587 0.135002
H5    H     H_    0.242501 0.491319 0.786619 0.106376
H6    H     H_    0.158066 0.790510 0.834038 0.142513
H7    H     H_    0.050019 0.810012 0.711832 0.120559
H8    H     H_    0.033329 0.817433 0.781678 0.115322
H9    H     H_    0.244379 0.740493 0.677551 0.127626
H10   H     H_    0.305325 0.726065 0.612502 0.142596
H11   H     H_    0.118786 0.528886 0.838499 0.124593
H12   H     H_    0.872417 0.061057 0.903994 0.161244
H13   H     H_    0.568559 0.879219 0.095105 0.170205
H14   H     H_    0.812439 0.563937 0.099014 0.147933
H15   H     H_    0.567384 0.590882 0.278219 0.133911
H16   H     H_    0.695401 0.789216 0.292552 0.162433
H17   H     H_    0.803203 0.514971 0.664857 0.153117
H18   H     H_    0.698004 0.806206 0.222703 0.139153
H19   H     H_    0.505096 0.817934 0.343498 0.113108
H20   H     H_    0.769894 0.555366 0.165806 0.151189
H21   H     H_    0.763155 0.481624 0.395443 0.164560
H22   H     H_    0.866531 0.037909 0.099403 0.144839
H23   H     H_    0.802595 0.214662 0.658066 0.121733
H24   H     H_    0.533985 0.155055 0.336847 0.126951
H25   H     H_    0.554967 0.306806 0.211427 0.136835
H26   H     H_    0.512992 0.796784 0.663524 0.131446
H27   H     H_    0.849303 0.082317 0.166765 0.133383
H28   H     H_    0.801188 0.995862 0.218517 0.137989
H29   H     H_    0.761999 0.255337 0.404200 0.152820
H30   H     H_    0.522626 0.205273 0.160469 0.141625
H31   H     H_    0.498180 0.212725 0.403433 0.137627
H32   H     H_    0.066001 0.575163 0.097820 0.138920
H33   H     H_    0.112960 0.836348 0.099915 0.143146
H34   H     H_    0.714483 0.292806 0.717426 0.118211
H35   H     H_    0.298266 0.684023 0.283423 0.122321
H36   H     H_    0.289148 0.683472 0.213630 0.154913
H37   H     H_    0.121204 0.540281 0.164268 0.122188
H38   H     H_    0.023876 0.644693 0.220553 0.133676
H39   H     H_    0.203804 0.509260 0.334248 0.136731
H40   H     H_    0.166337 0.802040 0.166378 0.128741
H41   H     H_    0.204422 0.789512 0.409567 0.151178
H42   H     H_    0.602787 0.859701 0.898345 0.148611
H43   H     H_    0.576278 0.836604 0.831977 0.145616
H44   H     H_    0.567090 0.100785 0.898006 0.139334
H45   H     H_    0.557155 0.146214 0.830812 0.114406
H46   H     H_    0.766798 0.323022 0.779928 0.285723
H47   H     H_    0.577635 0.421276 0.784653 0.145523
H48   H     H_    0.643526 0.426524 0.827126 0.188140
H49   H     H_    0.589873 0.343168 0.825651 0.159893
H50   H     H_    0.135852 0.513453 0.941293 0.260191
H51   H     H_    0.084113 0.397755 0.919912 0.181038
H52   H     H_    0.171361 0.393350 0.883659 0.132638
H53   H     H_    0.032743 0.469345 0.876891 0.196403
H54   H     H_    0.413482 0.853229 0.402672 0.236832
H55   H     H_    0.542977 0.895146 0.427903 0.143623
H56   H     H_    0.683894 0.023341 0.707150 0.133162
H57   H     H_    0.574476 0.795162 0.462617 0.162685
H58   H     H_    0.448291 0.906421 0.462388 0.146229
H59   H     H_    0.557615 0.370252 0.308356 0.268026
H60   H     H_    0.381639 0.471146 0.290104 0.148558
H61   H     H_    0.399573 0.379257 0.253328 0.163613
H62   H     H_    0.457222 0.460240 0.248468 0.176538
H63   H     H_    0.098092 0.855840 0.313452 0.293050
H64   H     H_    0.175921 0.954908 0.324192 0.177169
H65   H     H_    0.281406 0.824929 0.321922 0.131059
H66   H     H_    0.232602 0.888705 0.367687 0.146752
H67   H     H_    0.691527 0.007140 0.776703 0.132539
H68   H     H_    0.215517 0.469834 0.433311 0.273713
H69   H     H_    0.303116 0.303523 0.404809 0.146197
H70   H     H_    0.333590 0.353855 0.363543 0.154638
H71   H     H_    0.201838 0.383753 0.372597 0.163385
H72   H     H_    0.560705 0.140268 0.662633 0.135585
H73   H     H_    0.860739 0.108128 0.836490 0.148694
I1    I     I_    0.457380 0.179754 0.586151 -0.312450
I2    I     I_    0.843580 0.939552 0.302988 -0.351591
I3    I     I_    0.863712 0.191837 0.325268 -0.307516
I4    I     I_    0.858242 0.441847 0.826611 -0.349022
I5    I     I_    0.975623 0.637535 0.304793 -0.336202
I6    I     I_    0.145006 0.876981 0.912206 -0.347891
I7    I     I_    0.064472 0.521556 0.657972 -0.318290
I8    I     I_    0.835522 0.467553 0.927731 -0.299441
I9    I     I_    0.149101 0.502526 0.560471 -0.262838
I10   I     I_    0.834406 0.465514 0.312503 -0.286043
I11   I     I_    0.539767 0.569596 0.191997 -0.427480
I12   I     I_    0.465508 0.936840 0.173895 -0.363014
I13   I     I_    0.465929 0.189958 0.078381 -0.314727
N1    N     N_R   0.697397 0.582047 0.769589 -0.195241
N2    N     N_2   0.256359 0.459821 0.408385 -0.479233
N3    N     N_R   0.691619 0.578422 0.731717 -0.227946
N4    N     N_R   0.640511 0.752379 0.728687 -0.223034
N5    N     N_R   0.647810 0.755396 0.766603 -0.237718
N6    N     N_2   0.725071 0.294364 0.793040 -0.502956
N7    N     N_2   0.095585 0.530596 0.915961 -0.486808
N8    N     N_2   0.477776 0.801624 0.417479 -0.491824
N9    N     N_2   0.527790 0.341396 0.288363 -0.525726
N10   N     N_2   0.138519 0.842407 0.338604 -0.480969
O1    O     O_R   0.502070 0.323090 0.541280 -0.464062
O2    O     O_R   0.831550 0.656950 0.958960 -0.463372
O3    O     O_R   0.998590 0.685540 0.963930 -0.481831
O4    O     O_R   0.338340 0.520690 0.539540 -0.465488
O5    O     O_R   0.008220 0.831200 0.045060 -0.514766
O6    O     O_R   0.813270 0.997930 0.038810 -0.508187
O7    O     O_R   0.657500 0.016560 0.039940 -0.474837
O8    O     O_R   0.685680 0.820940 0.038120 -0.497991
O9    O     O_R   0.822130 0.666070 0.043610 -0.509234
O10   O     O_R   0.989860 0.694000 0.042400 -0.506592
O11   O     O_3   0.833990 0.833400 0.000560 -0.259858
O12   O     O_R   0.520720 0.641670 0.461580 -0.460047
O13   O     O_R   0.324760 0.674070 0.543580 -0.520736
O14   O     O_R   0.522400 0.640310 0.540110 -0.506033
O15   O     O_R   0.675940 0.500630 0.542210 -0.515961
O16   O     O_R   0.641790 0.337020 0.538150 -0.512368
O17   O     O_R   0.500260 0.324550 0.456580 -0.498606
O18   O     O_R   0.336660 0.522040 0.461020 -0.472658
O19   O     O_R   0.322940 0.675540 0.458880 -0.515517
O20   O     O_R   0.674120 0.502090 0.457500 -0.521238
O21   O     O_R   0.640110 0.338380 0.459630 -0.504680
O22   O     O_3   0.499990 0.499990 0.499990 -0.256994
O23   O     O_R   0.017640 0.822070 0.960410 -0.474814
O24   O     O_R   0.822000 0.989470 0.960340 -0.492536
O25   O     O_R   0.666920 0.007430 0.955290 -0.514843
O26   O     O_R   0.694410 0.812480 0.959650 -0.507900

loop_
_geom_bond_atom_site_label_1
_geom_bond_atom_site_label_2
_ccdc_geom_bond_type
C6    I3    S    
C87   C88   A    
C100  C110  S    
C63   I1    S    
C82   O12   A    
C53   H12   S    
C3    I2    S    
C73   C74   A    
C29   C112  A    
Cr3   O21   S    
C95   C96   A    
C27   H69   S    
Cr1   O17   S    
C38   N1    A    
C105  C110  A    
C114  C115  A    
C65   C66   A    
C102  C103  A    
C77   C78   A    
C108  C109  A    
C101  C112  A    
C38   C44   S    
C105  C107  A    
C80   H7    S    
C30   O24   A    
C32   O3    A    
C50   H45   S    
C30   C48   S    
Cr4   O6    S    
C94   O17   A    
C85   C89   A    
C18   C19   A    
C22   H53   S    
C25   H62   S    
N1    N3    A    
C14   C36   S    
H68   N2    S    
C78   C80   A    
C87   I7    S    
C40   I4    S    
C36   O10   A    
C115  C116  A    
C105  H19   S    
C37   H2    S    
Cr3   O20   S    
C101  H39   S    
C24   C101  A    
C19   H33   S    
C9    H17   S    
C69   C71   A    
C2    C13   A    
C34   C91   S    
C120  H25   S    
C79   C90   A    
Cr5   O8    S    
C42   H42   S    
C10   H24   S    
C45   O14   A    
C25   H61   S    
C28   C35   A    
C98   C104  A    
C16   C17   A    
C21   H47   S    
C21   N6    S    
C51   C61   S    
C64   H3    S    
H50   N7    S    
C25   N9    S    
Cr3   O15   S    
C3    C122  A    
Cr6   O3    S    
C72   C73   A    
C107  N8    S    
C41   I8    S    
C33   C113  S    
C68   C79   A    
C71   I6    S    
Cr4   O23   S    
C59   C60   A    
C93   C95   A    
C31   C47   S    
C106  C118  A    
C28   H26   S    
C9    C118  A    
C12   C94   S    
Cr3   O22   S    
C7    C12   A    
C27   H70   S    
C102  H16   S    
C58   O16   A    
C14   C19   A    
C76   C83   A    
Cr5   O7    S    
C81   C83   A    
C27   N2    S    
C17   C18   A    
C6    C7    A    
C76   C77   A    
Cr6   O10   S    
C48   C53   A    
C96   H20   S    
C22   N7    S    
C63   C67   A    
H54   N8    S    
C74   C75   A    
C62   C66   A    
C5    C120  A    
Cr4   O24   S    
C51   C52   A    
C64   C67   A    
C84   C88   A    
Cr4   O5    S    
C27   H71   S    
C84   C85   A    
C22   H52   S    
C91   C92   A    
C23   H57   S    
C43   H43   S    
C86   C87   A    
C22   H51   S    
Cr1   O4    S    
C32   O23   A    
C1    O13   A    
C20   C90   A    
C13   C24   A    
C60   C61   A    
Cr5   O25   S    
C77   H4    S    
C26   H64   S    
C65   H23   S    
C35   C39   S    
C43   C44   A    
C45   O15   A    
C23   H55   S    
C62   C63   A    
C92   H13   S    
C25   H60   S    
C70   O19   A    
C49   H44   S    
Cr2   O14   S    
C72   H6    S    
C99   C100  A    
C23   N8    S    
C16   H37   S    
C8    C12   A    
C21   H48   S    
C96   C97   A    
C55   C56   A    
C100  C102  A    
C50   C51   A    
C41   C47   A    
C82   O20   A    
C109  I10   S    
C113  C119  A    
C91   C97   A    
Cr2   O19   S    
Cr4   O11   S    
C58   O1    A    
Cr1   O22   S    
C75   N7    S    
C121  C122  A    
C113  C114  A    
Cr3   O16   S    
C7    H29   S    
C1    O4    A    
C8    C10   A    
C48   C49   A    
C4    H28   S    
C84   H9    S    
C98   C99   A    
C46   H35   S    
C2    C29   A    
C5    C116  S    
C26   N10   S    
C45   C106  S    
C52   H73   S    
C93   I12   S    
C11   C122  S    
C18   H40   S    
C42   C43   A    
C114  H22   S    
C13   N10   S    
C3    C4    A    
C26   H66   S    
C6    C11   A    
C52   C53   A    
C81   H8    S    
C29   C70   S    
C24   C57   S    
C99   H15   S    
Cr6   O9    S    
C54   C55   A    
C78   C88   S    
C1    C89   S    
C115  H27   S    
C117  H30   S    
C14   C15   A    
C107  C111  A    
C38   N5    A    
C39   N3    A    
C34   O8    A    
C17   C90   S    
C86   I9    S    
C55   H34   S    
C37   C106  A    
C80   C81   A    
C86   C89   A    
C23   H58   S    
C76   H5    S    
C56   C59   A    
C54   N6    S    
C32   C69   S    
Cr1   O1    S    
C54   C61   A    
C74   H11   S    
Cr5   O11   S    
C31   O26   A    
C108  C111  A    
Cr5   O26   S    
C82   C111  S    
C121  N9    S    
C117  C119  A    
C39   N4    A    
C62   H72   S    
C15   H32   S    
C46   C57   A    
C118  H1    S    
C98   I11   S    
C109  C110  A    
C64   C65   A    
C95   C104  S    
C68   I5    S    
Cr2   O13   S    
C26   H65   S    
C33   O6    A    
N4    N5    A    
C36   O5    A    
H59   N9    S    
C28   C37   A    
Cr6   O11   S    
C30   O25   A    
C56   C66   S    
C4    C5    A    
C85   H10   S    
C21   H49   S    
C92   C93   A    
C116  C117  A    
C69   C75   A    
C42   C47   A    
C112  N2    S    
C79   H38   S    
Cr2   O22   S    
C59   H56   S    
C94   O21   A    
C20   C46   A    
C97   H14   S    
C10   C11   A    
C2    H41   S    
C108  H21   S    
Cr2   O12   S    
C58   C67   S    
C40   C44   A    
H46   N6    S    
C60   H67   S    
C119  I13   S    
Cr6   O2    S    
C49   C50   A    
C31   O2    A    
C103  C104  A    
C9    C35   A    
C120  C121  A    
C40   C41   A    
C57   C68   A    
C71   C72   A    
C33   O7    A    
C34   O9    A    
H63   N10   S    
C73   C83   S    
Cr1   O18   S    
C70   O18   A    
C15   C16   A    
C103  H18   S    
C8    H31   S    
C20   H36   S    
