data_mof_unit_17488.cif
_audit_creation_date              2012-12-10T21:00:49-0500
_audit_creation_method            fapswitch 2.2
_symmetry_space_group_name_H-M    P1
_symmetry_Int_Tables_number       1
_space_group_crystal_system       triclinic
_cell_length_a                    18.127753
_cell_length_b                    18.160826
_cell_length_c                    18.374678
_cell_angle_alpha                 119.894433
_cell_angle_beta                  89.882832
_cell_angle_gamma                 120.041513
_cell_volume                      4285.91555835

loop_
_atom_site_label
_atom_site_type_symbol
_atom_type_description
_atom_site_fract_x
_atom_site_fract_y
_atom_site_fract_z
_atom_type_partial_charge
C1    C     C_R   0.106960 0.219841 0.609730 0.496794
C2    C     C_3   0.450589 0.897503 0.947438 0.063609
C3    C     C_3   0.141910 0.041933 0.945216 -0.318621
C4    C     C_3   0.925136 0.539628 0.829677 -0.300359
C5    C     C_3   0.933490 0.477007 0.740370 -0.397193
C6    C     C_3   0.065938 0.461477 0.171547 -0.268831
C7    C     C_3   0.107187 0.474970 0.253475 -0.451506
C8    C     C_3   0.901925 0.301934 0.329423 -0.258839
C9    C     C_3   0.930886 0.232265 0.318188 -0.453286
C10   C     C_3   0.097520 0.697605 0.669497 -0.259540
C11   C     C_3   0.070129 0.767885 0.678623 -0.453605
C12   C     C_3   0.309394 0.245964 0.314880 -0.319335
C13   C     C_3   0.445513 0.032059 0.018109 -0.111917
C14   C     C_3   0.688928 0.751195 0.687734 -0.315103
C15   C     C_3   0.554465 0.967966 0.981789 -0.111222
C16   C     C_3   0.416257 0.419453 0.450412 0.156436
C17   C     C_3   0.583243 0.580563 0.549376 0.155409
C18   C     C_3   0.495531 0.411276 0.460697 -0.130286
C19   C     C_3   0.503969 0.588711 0.538988 -0.128716
C20   C     C_3   0.550983 0.500205 0.449038 0.054002
C21   C     C_3   0.448655 0.499875 0.550718 0.055057
C22   C     C_3   0.470502 0.506469 0.436811 -0.140961
C23   C     C_R   0.894996 0.779600 0.389643 0.495277
C24   C     C_3   0.528958 0.493454 0.562806 -0.141972
C25   C     C_R   0.146758 0.184858 0.836412 -0.073574
C26   C     C_R   0.857980 0.824428 0.163890 -0.064736
C27   C     C_R   0.392935 0.781187 0.888295 0.497036
C28   C     C_R   0.607062 0.218818 0.111670 0.496496
C29   C     C_R   0.138656 0.147077 0.747305 -0.083008
C30   C     C_R   0.869373 0.861622 0.253257 -0.099056
C31   C     C_R   0.055255 0.094335 0.685426 0.063100
C32   C     C_R   0.950365 0.899762 0.309139 0.071035
C33   C     C_R   0.980625 0.081395 0.714175 -0.120812
C34   C     C_3   0.954347 0.406166 0.420802 0.013357
C35   C     C_R   0.018297 0.896733 0.273838 -0.115375
C36   C     C_R   0.988992 0.120406 0.803446 -0.111616
C37   C     C_R   0.006796 0.859403 0.184461 -0.119130
C38   C     C_R   0.072251 0.173190 0.865712 0.162747
C39   C     C_R   0.926681 0.823344 0.128836 0.174998
C40   C     C_R   0.010589 0.946453 0.532036 -0.010567
C41   C     C_R   0.004128 0.052977 0.462453 -0.020797
C42   C     C_R   0.961243 0.892272 0.442475 0.003098
C43   C     C_R   0.047284 0.106289 0.554138 -0.001097
C44   C     C_R   0.967386 0.947118 0.405935 -0.024412
C45   C     C_3   0.045337 0.593039 0.578453 0.010532
C46   C     C_R   0.043364 0.051126 0.589714 -0.020434
C47   C     C_R   0.658593 0.610020 0.808988 -0.158948
C48   C     C_R   0.335724 0.358927 0.175820 -0.154134
C49   C     C_R   0.597058 0.558345 0.840380 -0.085344
C50   C     C_R   0.394439 0.421661 0.150705 -0.087146
C51   C     C_R   0.110824 0.500738 0.889693 0.497047
C52   C     C_R   0.889021 0.499088 0.110169 0.498394
C53   C     C_R   0.596561 0.614711 0.926908 0.037418
C54   C     C_R   0.402315 0.376203 0.065881 0.036185
C55   C     C_R   0.656940 0.723556 0.980885 -0.082680
C56   C     C_3   0.447493 0.966482 0.924001 -0.123155
C57   C     C_R   0.351332 0.267429 0.006716 -0.083559
C58   C     C_R   0.720285 0.776321 0.950545 0.179275
C59   C     C_R   0.291227 0.203973 0.031198 0.170934
C60   C     C_R   0.720295 0.717977 0.863544 -0.080475
C61   C     C_R   0.284252 0.250731 0.116463 -0.065875
C62   C     C_R   0.593372 0.560225 0.024406 -0.162750
C63   C     C_R   0.406528 0.443152 0.978689 -0.164281
C64   C     C_R   0.549863 0.501180 0.057658 0.023194
C65   C     C_R   0.449942 0.500295 0.943821 0.022481
C66   C     C_R   0.454977 0.441475 0.034588 -0.034952
C67   C     C_3   0.552480 0.033534 0.075896 -0.123072
C68   C     C_R   0.544686 0.559079 0.966080 -0.034311
C69   C     C_R   0.183244 0.831925 0.011155 -0.112060
C70   C     C_R   0.814125 0.162800 0.980280 -0.119035
C71   C     C_R   0.149273 0.753250 0.024441 -0.096688
C72   C     C_R   0.849685 0.243294 0.969303 -0.096497
C73   C     C_R   0.065761 0.657613 0.966659 0.074351
C74   C     C_R   0.931336 0.339604 0.030655 0.065567
C75   C     C_R   0.392227 0.499961 0.607863 0.508292
C76   C     C_R   0.607705 0.500117 0.392109 0.507590
C77   C     C_R   0.015174 0.641333 0.894900 0.071022
C78   C     C_3   0.552056 0.038387 0.959084 -0.123401
C79   C     C_R   0.978969 0.355335 0.103912 0.072974
C80   C     C_R   0.049821 0.722322 0.883706 -0.108023
C81   C     C_R   0.942830 0.271632 0.112144 -0.095260
C82   C     C_R   0.133749 0.816363 0.940801 -0.122605
C83   C     C_R   0.860439 0.177111 0.051672 -0.128559
C84   C     C_R   0.979802 0.573111 0.036168 -0.171210
C85   C     C_R   0.019771 0.426320 0.963444 -0.167317
C86   C     C_R   0.945326 0.497571 0.053537 0.009704
C87   C     C_R   0.054217 0.501870 0.946043 0.016287
C88   C     C_R   0.965708 0.423138 0.016703 -0.041372
C89   C     C_3   0.447921 0.961638 0.040818 -0.124565
C90   C     C_R   0.033372 0.575853 0.982456 -0.036528
C91   C     C_R   0.394066 0.499203 0.887766 0.505085
C92   C     C_R   0.605876 0.500916 0.112364 0.505946
C93   C     C_R   0.109931 0.501237 0.608044 0.500180
C94   C     C_R   0.889899 0.498533 0.391856 0.502080
C95   C     C_3   0.058777 0.483445 0.460150 -0.120286
C96   C     C_3   0.940877 0.515639 0.539231 -0.121380
C97   C     C_3   0.049594 0.573026 0.487335 0.143426
C98   C     C_3   0.950034 0.425942 0.511791 0.142042
C99   C     C_3   0.946542 0.496704 0.447744 0.034351
C100  C     C_3   0.549390 0.102514 0.052466 0.063516
C101  C     C_3   0.053117 0.502514 0.551713 0.033031
C102  C     C_3   0.196708 0.709367 0.502246 -0.325095
C103  C     C_3   0.802580 0.290486 0.497283 -0.327438
C104  C     C_3   0.153168 0.315324 0.023243 -0.302741
C105  C     C_3   0.845367 0.683544 0.972775 -0.293068
C106  C     C_3   0.035295 0.896840 0.565659 -0.248996
C107  C     C_3   0.137744 0.950515 0.597331 -0.464997
C108  C     C_3   0.987576 0.104588 0.425348 -0.239157
C109  C     C_3   0.054848 0.138377 0.379027 -0.381735
C110  C     C_3   0.853943 0.942549 0.982891 -0.308074
H1    H     H_    0.210845 0.221535 0.881783 0.099326
H2    H     H_    0.238926 0.203417 0.136972 0.104098
H3    H     H_    0.762078 0.809945 0.726479 0.125392
H4    H     H_    0.653791 0.720631 0.725758 0.157832
H5    H     H_    0.662105 0.790092 0.678288 0.150864
H6    H     H_    0.661012 0.566084 0.743368 0.094647
H7    H     H_    0.328858 0.394072 0.240867 0.097082
H8    H     H_    0.552443 0.474242 0.798738 0.101380
H9    H     H_    0.432114 0.505374 0.196372 0.102039
H10   H     H_    0.658024 0.766828 0.048546 0.087563
H11   H     H_    0.356238 0.232309 0.940608 0.085904
H12   H     H_    0.108003 0.471487 0.429410 0.103948
H13   H     H_    0.891906 0.527748 0.570397 0.103956
H14   H     H_    0.666088 0.604953 0.041174 0.132605
H15   H     H_    0.796456 0.798728 0.122645 0.112975
H16   H     H_    0.333937 0.399525 0.962906 0.132320
H17   H     H_    0.160637 0.877363 0.930550 0.125090
H18   H     H_    0.832288 0.114722 0.060303 0.104704
H19   H     H_    0.248023 0.905128 0.055500 0.103335
H20   H     H_    0.750626 0.089106 0.933281 0.098290
H21   H     H_    0.188441 0.766383 0.079382 0.092092
H22   H     H_    0.813132 0.231068 0.913344 0.094247
H23   H     H_    0.011563 0.712464 0.830513 0.091960
H24   H     H_    0.977397 0.278086 0.165003 0.099353
H25   H     H_    0.965137 0.630874 0.064504 0.143984
H26   H     H_    0.197424 0.159513 0.726752 0.101002
H27   H     H_    0.034349 0.368477 0.935004 0.145676
H28   H     H_    0.595341 0.071101 0.925918 0.100553
H29   H     H_    0.404662 0.928936 0.074004 0.099586
H30   H     H_    0.403791 0.937850 0.860907 0.100537
H31   H     H_    0.596175 0.062177 0.138999 0.099682
H32   H     H_    0.400829 0.058993 0.033356 0.130225
H33   H     H_    0.599166 0.941062 0.966512 0.118411
H34   H     H_    0.492769 0.339058 0.427632 0.096977
H35   H     H_    0.506780 0.660960 0.572082 0.097325
H36   H     H_    0.446809 0.510485 0.384141 0.101355
H37   H     H_    0.815967 0.862479 0.279327 0.092000
H38   H     H_    0.551901 0.488655 0.615101 0.102664
H39   H     H_    0.075469 0.693766 0.478562 0.245544
H40   H     H_    0.226509 0.752748 0.471955 0.134603
H41   H     H_    0.218939 0.657417 0.484610 0.145248
H42   H     H_    0.221941 0.766221 0.575416 0.134360
H43   H     H_    0.922457 0.302061 0.516231 0.245830
H44   H     H_    0.772624 0.244094 0.524983 0.131098
H45   H     H_    0.775948 0.236444 0.423772 0.136654
H46   H     H_    0.781876 0.344324 0.519423 0.145834
H47   H     H_    0.018671 0.189304 0.968716 0.251696
H48   H     H_    0.915743 0.040777 0.667184 0.105069
H49   H     H_    0.148788 0.334772 0.089972 0.140871
H50   H     H_    0.150678 0.369373 0.012847 0.147008
H51   H     H_    0.218587 0.325667 0.022097 0.156349
H52   H     H_    0.976845 0.813632 0.025163 0.248151
H53   H     H_    0.839722 0.668775 0.906097 0.136596
H54   H     H_    0.779819 0.665130 0.982961 0.157306
H55   H     H_    0.859649 0.631962 0.975303 0.137663
H56   H     H_    0.175283 0.009167 0.582503 0.155216
H57   H     H_    0.162911 0.988590 0.669901 0.135929
H58   H     H_    0.153962 0.892600 0.563827 0.125603
H59   H     H_    0.081069 0.925736 0.316220 0.101354
H60   H     H_    0.007696 0.898206 0.620050 0.152541
H61   H     H_    0.007242 0.814704 0.513483 0.170795
H62   H     H_    0.121830 0.161113 0.409847 0.189943
H63   H     H_    0.029243 0.074637 0.307531 0.137481
H64   H     H_    0.063888 0.205879 0.383714 0.139227
H65   H     H_    0.917908 0.051499 0.378115 0.113355
H66   H     H_    0.987863 0.171432 0.477934 0.150635
H67   H     H_    0.765640 0.926627 0.057834 0.233752
H68   H     H_    0.902208 0.024614 0.040452 0.132678
H69   H     H_    0.821629 0.940760 0.930173 0.129091
H70   H     H_    0.930367 0.109293 0.824047 0.097535
H71   H     H_    0.893223 0.909204 0.958633 0.161295
H72   H     H_    0.259709 0.066909 0.916583 0.237018
H73   H     H_    0.107212 0.956761 0.898405 0.118732
H74   H     H_    0.121710 0.068327 0.911242 0.175401
H75   H     H_    0.119228 0.057184 0.004150 0.154175
H76   H     H_    0.959226 0.521926 0.710984 0.175060
H77   H     H_    0.979306 0.455894 0.747951 0.180731
H78   H     H_    0.865957 0.404273 0.694257 0.141027
H79   H     H_    0.895718 0.490991 0.855374 0.143909
H80   H     H_    0.876133 0.555426 0.818453 0.118369
H81   H     H_    0.060599 0.859387 0.158730 0.099331
H82   H     H_    0.058240 0.460955 0.289540 0.180735
H83   H     H_    0.127905 0.421520 0.234466 0.125052
H84   H     H_    0.168150 0.555851 0.299106 0.146324
H85   H     H_    0.117002 0.478303 0.137992 0.128020
H86   H     H_    0.052207 0.521466 0.195829 0.162850
H87   H     H_    0.003926 0.271381 0.326429 0.143357
H88   H     H_    0.917171 0.212833 0.367284 0.154816
H89   H     H_    0.892417 0.158831 0.250381 0.130042
H90   H     H_    0.828503 0.261518 0.318856 0.141922
H91   H     H_    0.914264 0.317081 0.277794 0.166345
H92   H     H_    0.768459 0.754543 0.837483 0.097849
H93   H     H_    0.084661 0.785515 0.628572 0.161591
H94   H     H_    0.997083 0.730277 0.670093 0.148674
H95   H     H_    0.109150 0.842183 0.745775 0.126356
H96   H     H_    0.083706 0.683241 0.721471 0.164792
H97   H     H_    0.171040 0.737092 0.680701 0.143828
H98   H     H_    0.282285 0.354778 0.392419 0.252253
H99   H     H_    0.236193 0.187927 0.276181 0.126011
H100  H     H_    0.334487 0.207468 0.327600 0.151637
H101  H     H_    0.345644 0.273083 0.275367 0.157366
H102  H     H_    0.717483 0.645381 0.606050 0.255256
N1    N     N_2   0.099513 0.649868 0.468597 -0.519043
N2    N     N_2   0.899703 0.347724 0.528947 -0.528568
N3    N     N_2   0.078858 0.209056 0.955995 -0.537689
N4    N     N_2   0.917215 0.791190 0.039242 -0.511931
N5    N     N_2   0.786188 0.885967 0.011055 -0.516186
N6    N     N_2   0.238750 0.093657 0.970478 -0.535393
N7    N     N_2   0.322990 0.332431 0.398154 -0.495217
N8    N     N_2   0.676253 0.667873 0.602414 -0.488013
O1    O     O_3   0.251620 0.500000 0.748430 -0.435450
O2    O     O_R   0.570330 0.268390 0.136490 -0.544030
O3    O     O_R   0.134680 0.268390 0.572240 -0.548119
O4    O     O_R   0.865320 0.731610 0.427760 -0.551495
O5    O     O_R   0.306670 0.731630 0.863510 -0.538958
O6    O     O_R   0.693330 0.268370 0.136490 -0.540345
O7    O     O_R   0.135450 0.439270 0.865360 -0.551621
O8    O     O_R   0.864550 0.560730 0.134640 -0.550454
O9    O     O_R   0.429670 0.560710 0.692610 -0.549142
O10   O     O_R   0.570330 0.439290 0.307390 -0.549330
O11   O     O_R   0.308540 0.439240 0.865360 -0.558392
O12   O     O_3   0.748380 0.500000 0.251570 -0.437761
O13   O     O_R   0.691460 0.560760 0.134640 -0.557118
O14   O     O_R   0.133580 0.439310 0.571150 -0.556197
O15   O     O_R   0.866420 0.560690 0.428850 -0.558115
O16   O     O_R   0.430770 0.560690 0.864590 -0.533458
O17   O     O_R   0.569230 0.439310 0.135410 -0.532671
O18   O     O_R   0.133580 0.560760 0.692610 -0.556585
O19   O     O_R   0.866420 0.439240 0.307390 -0.551059
O20   O     O_R   0.134680 0.560740 0.864590 -0.535546
O21   O     O_R   0.865320 0.439260 0.135410 -0.533403
O22   O     O_R   0.306670 0.439270 0.571150 -0.534088
O23   O     O_R   0.693330 0.560730 0.428850 -0.531638
O24   O     O_R   0.135450 0.268370 0.694460 -0.538014
O25   O     O_R   0.864550 0.731630 0.305540 -0.536716
O26   O     O_R   0.429670 0.731610 0.863510 -0.545712
Zn1   Zn    Zn3+2 0.207400 0.586780 0.791530 0.921294
Zn2   Zn    Zn3+2 0.792600 0.413220 0.208470 0.927660
Zn3   Zn    Zn3+2 0.208510 0.413230 0.792630 0.920003
Zn4   Zn    Zn3+2 0.791490 0.586770 0.207370 0.924348
Zn5   Zn    Zn3+2 0.383150 0.586740 0.791530 0.929710
Zn6   Zn    Zn3+2 0.616850 0.413260 0.208470 0.932187
Zn7   Zn    Zn3+2 0.207400 0.413250 0.618010 0.905078
Zn8   Zn    Zn3+2 0.792600 0.586750 0.381990 0.914381

loop_
_geom_bond_atom_site_label_1
_geom_bond_atom_site_label_2
_ccdc_geom_bond_type
O5    Zn1   S    
O25   Zn4   S    
C63   C65   A    
C84   H25   S    
C16   C21   S    
C41   C108  S    
O21   Zn2   S    
C106  H60   S    
C106  H61   S    
C36   H70   S    
C67   C89   S    
C83   H18   S    
C34   C98   S    
C17   C20   S    
C19   H35   S    
C6    H86   S    
C6    C79   S    
O4    Zn8   S    
C81   H24   S    
C47   C49   A    
H52   N4    S    
C9    H88   S    
C40   C46   A    
C50   C54   A    
C23   C42   S    
C84   C90   A    
C39   N4    S    
C18   C24   S    
C110  H69   S    
C8    H91   S    
C19   C21   S    
C84   C86   A    
C12   H99   S    
C56   H30   S    
C58   N5    S    
C109  H63   S    
C94   O15   A    
C85   C88   A    
C15   C78   S    
C108  H65   S    
C106  C107  S    
C110  H68   S    
C58   C60   A    
C14   H5    S    
C96   C99   S    
C3    H75   S    
C92   O13   A    
C70   H20   S    
C33   C36   A    
C56   C78   S    
C108  C109  S    
C20   C76   S    
C16   N7    S    
C69   C71   A    
C76   O10   A    
C75   O9    A    
C53   C68   S    
C73   C77   A    
H43   N2    S    
C62   C64   A    
C69   C82   A    
C103  H44   S    
C81   C83   A    
C47   C60   A    
C1    C43   S    
O1    Zn5   S    
C110  H71   S    
C9    H87   S    
C8    C9    S    
C89   H29   S    
C31   C46   S    
C96   C98   S    
O18   Zn1   S    
O20   Zn1   S    
C105  H53   S    
O17   Zn6   S    
C2    C27   S    
O12   Zn6   S    
C69   H19   S    
C7    H83   S    
C52   C86   S    
C3    H74   S    
C38   N3    S    
C12   N7    S    
C18   C20   S    
C109  H62   S    
C102  H41   S    
O26   Zn5   S    
C13   C56   S    
C13   C89   S    
C28   C100  S    
H98   N7    S    
C48   C50   A    
C98   N2    S    
C107  H56   S    
C105  N4    S    
C97   N1    S    
C41   C43   A    
C14   N8    S    
C42   C44   A    
C5    H76   S    
C104  H50   S    
O10   Zn6   S    
C78   H28   S    
C62   H14   S    
C6    H85   S    
C97   C99   S    
C52   O8    A    
O13   Zn4   S    
C72   H22   S    
C78   C100  S    
O8    Zn4   S    
C55   H10   S    
C53   C55   A    
C25   C29   A    
C47   H6    S    
C37   C39   A    
C107  H57   S    
C92   O17   A    
H47   N3    S    
C17   C24   S    
C59   C61   A    
O24   Zn3   S    
C85   C87   A    
C50   H9    S    
C32   C35   A    
C22   H36   S    
O9    Zn5   S    
C30   H37   S    
C19   C22   S    
O12   Zn8   S    
C34   C95   S    
C12   H101  S    
C72   C74   A    
C24   H38   S    
C27   O26   A    
C51   C87   S    
C104  H51   S    
C71   C73   A    
C25   H1    S    
C109  H64   S    
C27   O5    A    
C11   H93   S    
H102  N8    S    
C14   H4    S    
C57   H11   S    
C91   O16   A    
C80   H23   S    
C91   O11   A    
O19   Zn2   S    
O12   Zn2   S    
C26   H15   S    
C64   C66   A    
C23   O25   A    
C2    C89   S    
C10   H97   S    
C2    C15   S    
C1    O24   A    
C4    H80   S    
C25   C38   A    
C21   C24   S    
O3    Zn7   S    
C102  N1    S    
C40   C42   A    
C49   H8    S    
O14   Zn7   S    
C93   O18   A    
O1    Zn3   S    
C65   C68   A    
C15   C67   S    
C76   O23   A    
C10   C45   S    
C31   C33   A    
C34   C99   S    
C32   C44   S    
C105  H54   S    
C103  H46   S    
O1    Zn7   S    
C8    C34   S    
C13   H32   S    
C7    H84   S    
O6    Zn2   S    
C70   C83   A    
O23   Zn8   S    
C103  N2    S    
C51   O20   A    
C17   N8    S    
C45   C101  S    
C67   C100  S    
C102  H40   S    
C15   H33   S    
C95   H12   S    
C60   H92   S    
C37   H81   S    
C20   C22   S    
H72   N6    S    
C74   C79   A    
C110  N5    S    
C51   O7    A    
C35   H59   S    
C41   C44   A    
C7    H82   S    
C8    H90   S    
O12   Zn4   S    
C5    H77   S    
O16   Zn5   S    
C93   C101  S    
O11   Zn3   S    
O2    Zn6   S    
C85   H27   S    
C33   H48   S    
C40   C106  S    
C77   C80   A    
C103  H45   S    
C65   C91   S    
C107  H58   S    
C16   C22   S    
C96   H13   S    
C35   C37   A    
C4    H79   S    
C28   O2    A    
O15   Zn8   S    
H67   N5    S    
C4    C5    S    
C59   N6    S    
C73   C90   S    
C70   C72   A    
C95   C97   S    
C26   C30   A    
C6    C7    S    
C54   C66   S    
C62   C68   A    
C93   O14   A    
C14   H3    S    
O1    Zn1   S    
C21   C75   S    
C79   C81   A    
C98   C101  S    
O7    Zn3   S    
C1    O3    A    
C13   C100  S    
C36   C38   A    
C10   H96   S    
C12   H100  S    
C4    C77   S    
C29   C31   A    
C75   O22   A    
C2    C56   S    
C52   O21   A    
C30   C32   A    
C104  H49   S    
C45   C96   S    
C48   C61   A    
C55   C58   A    
C94   C99   S    
C3    N6    S    
C49   C53   A    
C108  H66   S    
C18   H34   S    
C17   C19   S    
C80   C82   A    
C105  H55   S    
C86   C88   A    
C11   H94   S    
C26   C39   A    
C43   C46   A    
H39   N1    S    
C82   H17   S    
C63   C66   A    
C63   H16   S    
C57   C59   A    
C10   C11   S    
C48   H7    S    
C71   H21   S    
C95   C101  S    
C94   O19   A    
C29   H26   S    
C23   O4    A    
C16   C18   S    
C28   O6    A    
C87   C90   A    
O22   Zn7   S    
C64   C92   S    
C45   C97   S    
C11   H95   S    
C5    H78   S    
C74   C88   S    
C61   H2    S    
C3    H73   S    
C104  N3    S    
C9    H89   S    
C102  H42   S    
C54   C57   A    
C67   H31   S    
