data_mof_unit_22742.cif
_audit_creation_date              2012-12-10T19:11:32-0500
_audit_creation_method            fapswitch 2.2
_symmetry_space_group_name_H-M    P1
_symmetry_Int_Tables_number       1
_space_group_crystal_system       triclinic
_cell_length_a                    11.325077
_cell_length_b                    10.119537
_cell_length_c                    10.495902
_cell_angle_alpha                 89.603604
_cell_angle_beta                  88.308408
_cell_angle_gamma                 91.27861
_cell_volume                      1202.01983626

loop_
_atom_site_label
_atom_site_type_symbol
_atom_type_description
_atom_site_fract_x
_atom_site_fract_y
_atom_site_fract_z
_atom_type_partial_charge
C1    C     C_R   0.254841 0.497967 0.506027 0.879666
C2    C     C_3   0.510232 0.501984 0.123510 -0.046826
C3    C     C_3   0.050861 0.598168 0.610375 0.444666
C4    C     C_3   0.042264 0.351239 0.538238 0.397755
C5    C     C_3   0.915641 0.568432 0.624995 -0.402842
C6    C     C_3   0.911929 0.363474 0.504999 -0.380587
C7    C     C_3   0.067822 0.538232 0.376286 -0.472266
C8    C     C_3   0.111061 0.494526 0.510306 -0.125288
C9    C     C_3   0.871992 0.503902 0.502353 -0.052886
C10   C     C_3   0.931963 0.565707 0.379302 -0.346424
C11   C     C_3   0.379725 0.078807 0.487445 0.172682
C12   C     C_3   0.378266 0.916327 0.501964 0.173211
C13   C     C_3   0.573597 0.079693 0.388911 0.122364
C14   C     C_3   0.556601 0.923219 0.378269 0.163554
C15   C     C_3   0.549754 0.076748 0.616366 0.155938
C16   C     C_3   0.567260 0.921988 0.605540 0.127822
C17   C     C_R   0.505880 0.500637 0.258850 0.893346
C18   C     C_R   0.739651 0.501747 0.498917 0.874883
C19   C     C_R   0.497979 0.499673 0.741739 0.905382
C20   C     C_3   0.407596 0.555860 0.050368 -0.176554
C21   C     C_3   0.513328 0.376650 0.043885 -0.153012
C22   C     C_3   0.409836 0.430142 0.969038 0.222781
C23   C     C_3   0.499405 0.499795 0.878022 -0.063681
C24   C     C_3   0.497755 0.626053 0.958333 -0.120022
C25   C     C_3   0.603429 0.447002 0.951720 -0.191051
C26   C     C_3   0.601121 0.572568 0.034820 -0.145523
H1    H     H_    0.914428 0.672661 0.372647 0.264291
H2    H     H_    0.892472 0.522271 0.292725 0.183682
H3    H     H_    0.552909 0.124509 0.296401 0.143127
H4    H     H_    0.499925 0.908971 0.295835 0.128107
H5    H     H_    0.489539 0.086521 0.699403 0.126553
H6    H     H_    0.539709 0.875629 0.697491 0.137789
H7    H     H_    0.327774 0.601037 0.094127 0.186298
H8    H     H_    0.521203 0.274204 0.080736 0.188725
H9    H     H_    0.490757 0.728493 0.921207 0.188172
H10   H     H_    0.683493 0.402448 0.907995 0.201965
H11   H     H_    0.679435 0.630144 0.066235 0.194057
H12   H     H_    0.893727 0.503465 0.708290 0.207542
H13   H     H_    0.857680 0.300857 0.571383 0.277144
H14   H     H_    0.863322 0.655689 0.649962 0.232560
H15   H     H_    0.890424 0.329604 0.407656 0.227871
H16   H     H_    0.115636 0.626886 0.340095 0.238916
H17   H     H_    0.087269 0.459221 0.306084 0.219197
N1    N     N_3   0.499750 0.138610 0.497240 -0.182671
N2    N     N_3   0.499750 0.861390 0.497240 -0.185346
O1    O     O_R   0.314910 0.616040 0.499970 -0.570060
O2    O     O_R   0.314910 0.383960 0.499970 -0.569803
O3    O     O_R   0.500080 0.616020 0.313900 -0.589680
O4    O     O_R   0.500080 0.383980 0.313900 -0.617186
O5    O     O_R   0.685320 0.616040 0.499930 -0.554325
O6    O     O_R   0.685320 0.383960 0.499930 -0.575913
O7    O     O_R   0.500150 0.616060 0.686000 -0.618799
O8    O     O_R   0.500150 0.383940 0.686000 -0.582825
Zn1   Zn    Zn3+2 0.500150 0.654960 0.499940 1.045600
Zn2   Zn    Zn3+2 0.500150 0.345040 0.499940 1.047788
I1    I     I_    0.252503 0.313928 0.960325 -0.136479
I2    I     I_    0.323650 0.159770 0.299660 -0.234366
I3    I     I_    0.277273 0.835559 0.340866 -0.234957
I4    I     I_    0.278107 0.155420 0.646877 -0.107171
I5    I     I_    0.308375 0.836348 0.687651 -0.179295
Br1   Br    Br    0.678345 0.173250 0.696453 -0.381365
Br2   Br    Br    0.732360 0.875194 0.610108 -0.316440
Br3   Br    Br    0.738627 0.130546 0.383996 -0.355658
Br4   Br    Br    0.691142 0.828640 0.304130 -0.385649
I6    I     I_    0.041466 0.806721 0.557742 -0.077043
I7    I     I_    0.059304 0.171040 0.431257 -0.082906
Br5   Br    Br    0.116384 0.592934 0.780286 -0.410691
Br6   Br    Br    0.032556 0.294505 0.718931 -0.347843

loop_
_geom_bond_atom_site_label_1
_geom_bond_atom_site_label_2
_ccdc_geom_bond_type
C10   H1    S    
C18   O6    A    
C7    C10   S    
C19   C23   S    
C23   C24   S    
C26   H11   S    
C15   H5    S    
C6    H13   S    
C7    H17   S    
C16   H6    S    
C1    C8    S    
C9    C10   S    
C13   Br3   S    
C17   O3    A    
C4    C8    S    
C14   Br4   S    
O1    Zn1   S    
C2    C21   S    
O8    Zn2   S    
C15   Br1   S    
C12   I3    S    
C11   N1    S    
C2    C26   S    
C3    I6    S    
C21   C22   S    
C2    C17   S    
C4    I7    S    
N1    Zn2   S    
C19   O8    A    
C5    C9    S    
O5    Zn1   S    
C17   O4    A    
C16   Br2   S    
C6    C9    S    
C11   I4    S    
C20   H7    S    
C13   H3    S    
C14   H4    S    
N2    Zn1   S    
C3    C8    S    
C14   N2    S    
O6    Zn2   S    
C23   C25   S    
C15   N1    S    
C1    O1    A    
C7    H16   S    
C24   H9    S    
C20   C22   S    
C16   N2    S    
C2    C20   S    
C15   C16   S    
C12   I5    S    
C9    C18   S    
C7    C8    S    
C5    H12   S    
C18   O5    A    
O2    Zn2   S    
C4    C6    S    
O7    Zn1   S    
C5    H14   S    
C10   H2    S    
C11   I2    S    
O3    Zn1   S    
C21   C25   S    
C22   C23   S    
C1    O2    A    
C22   I1    S    
C21   H8    S    
C25   H10   S    
C25   C26   S    
C13   C14   S    
C4    Br6   S    
C19   O7    A    
C6    H15   S    
C13   N1    S    
C3    Br5   S    
C20   C24   S    
C11   C12   S    
C24   C26   S    
C12   N2    S    
C3    C5    S    
O4    Zn2   S    
