data_mof_unit_51579.cif
_audit_creation_date              2012-12-11T16:47:42-0500
_audit_creation_method            fapswitch 2.2
_symmetry_space_group_name_H-M    P1
_symmetry_Int_Tables_number       1
_space_group_crystal_system       triclinic
_cell_length_a                    26.089107
_cell_length_b                    7.220236
_cell_length_c                    23.897263
_cell_angle_alpha                 88.9772
_cell_angle_beta                  101.398114
_cell_angle_gamma                 91.219121
_cell_volume                      4411.30886202

loop_
_atom_site_label
_atom_site_type_symbol
_atom_type_description
_atom_site_fract_x
_atom_site_fract_y
_atom_site_fract_z
_atom_type_partial_charge
O1    O     O_R   0.797620 0.601060 0.203310 -0.542578
O2    O     O_R   0.202380 0.398940 0.796690 -0.546979
O3    O     O_R   0.702380 0.101060 0.296690 -0.505237
O4    O     O_R   0.297620 0.898940 0.703310 -0.504592
O5    O     O_R   0.692070 0.267810 0.186600 -0.525943
O6    O     O_R   0.307930 0.732190 0.813400 -0.525059
O7    O     O_R   0.807930 0.767810 0.313400 -0.531105
O8    O     O_R   0.192070 0.232190 0.686600 -0.530717
C1    C     C_R   0.673937 0.439486 0.171539 0.716061
C2    C     C_R   0.326079 0.560522 0.828442 0.706756
C3    C     C_R   0.826071 0.940046 0.328466 0.691642
C4    C     C_R   0.173921 0.059956 0.671544 0.690018
O9    O     O_R   0.796590 0.271120 0.196480 -0.527566
O10   O     O_R   0.203410 0.728880 0.803520 -0.517868
O11   O     O_R   0.703410 0.771120 0.303520 -0.546141
O12   O     O_R   0.296590 0.228880 0.696480 -0.545024
O13   O     O_R   0.807640 0.104280 0.306650 -0.533842
O14   O     O_R   0.192360 0.895720 0.693350 -0.533961
O15   O     O_R   0.692360 0.604280 0.193350 -0.535188
O16   O     O_R   0.307640 0.395720 0.806650 -0.535773
C5    C     C_R   0.812027 0.442571 0.184447 0.734693
C6    C     C_R   0.187846 0.557399 0.815551 0.723952
C7    C     C_R   0.688388 0.938544 0.316515 0.722631
C8    C     C_R   0.311697 0.061412 0.683511 0.717348
O17   O     O_3   0.753500 0.435660 0.286130 -0.363999
O18   O     O_3   0.246500 0.564340 0.713870 -0.362637
O19   O     O_3   0.746500 0.935660 0.213870 -0.375362
O20   O     O_3   0.253500 0.064340 0.786130 -0.373874
V1    V     V_3+5 0.749350 0.159470 0.243300 1.536314
V2    V     V_3+5 0.250650 0.840530 0.756700 1.543183
V3    V     V_3+5 0.750650 0.659470 0.256700 1.496006
V4    V     V_3+5 0.249350 0.340530 0.743300 1.492257
C9    C     C_R   0.379453 0.210189 0.634616 -0.232058
C10   C     C_R   0.618806 0.793422 0.363249 -0.247975
C11   C     C_R   0.104393 0.427482 0.837534 -0.222716
C12   C     C_R   0.900333 0.524371 0.164950 -0.247788
H1    H     H_    0.375753 0.338541 0.656114 0.155280
H2    H     H_    0.620509 0.668075 0.339505 0.155933
H3    H     H_    0.096479 0.362693 0.796097 0.143424
H4    H     H_    0.913846 0.549778 0.210047 0.142068
C13   C     C_R   0.416314 0.202399 0.599342 -0.094203
C14   C     C_R   0.582360 0.801589 0.398983 -0.024946
C15   C     C_R   0.067741 0.405591 0.872960 -0.111359
C16   C     C_R   0.935418 0.548552 0.127775 -0.035906
H5    H     H_    0.439851 0.324337 0.593931 0.139852
H6    H     H_    0.557136 0.682640 0.402537 0.137152
H7    H     H_    0.031810 0.328159 0.857860 0.153129
H8    H     H_    0.975750 0.586699 0.144980 0.148112
C17   C     C_R   0.423369 0.037522 0.571929 0.093430
C18   C     C_R   0.578395 0.962126 0.429872 0.166629
C19   C     C_R   0.076524 0.488963 0.926601 0.079367
C20   C     C_R   0.919151 0.515703 0.069217 0.137212
C21   C     C_R   0.392425 0.881771 0.579197 -0.198896
C22   C     C_R   0.611453 0.114109 0.424847 -0.217375
C23   C     C_R   0.123570 0.589161 0.944999 -0.147181
C24   C     C_R   0.866577 0.464567 0.048243 -0.202603
H9    H     H_    0.397753 0.754992 0.557572 0.119079
H10   H     H_    0.608375 0.237813 0.448921 0.113478
H11   H     H_    0.130595 0.653086 0.986567 0.115538
H12   H     H_    0.853800 0.439186 0.003035 0.130783
C25   C     C_R   0.354813 0.887775 0.614090 0.367062
C26   C     C_R   0.648291 0.108207 0.389002 0.364158
C27   C     C_R   0.159978 0.617006 0.908790 0.361474
C28   C     C_R   0.831290 0.435430 0.085631 0.348895
C29   C     C_R   0.348730 0.053294 0.643212 -0.076276
C30   C     C_R   0.651727 0.946466 0.357107 -0.079201
C31   C     C_R   0.149959 0.537085 0.854285 -0.063398
C32   C     C_R   0.848654 0.462816 0.144557 -0.057252
C33   C     C_R   0.447808 0.007090 0.475779 -0.122214
C34   C     C_R   0.555201 0.990828 0.527125 -0.117471
C35   C     C_R   0.013174 0.659570 0.972188 -0.177268
C36   C     C_R   0.970875 0.335867 0.010479 -0.108028
C37   C     C_R   0.485979 0.984765 0.441602 0.325677
C38   C     C_R   0.517625 0.016128 0.561447 0.341412
C39   C     C_R   0.983736 0.666304 0.015935 0.363955
C40   C     C_R   0.013706 0.325686 0.982195 0.333671
C41   C     C_R   0.539231 0.973698 0.467279 -0.107553
C42   C     C_R   0.463624 0.024954 0.535804 -0.133789
C43   C     C_R   0.958420 0.506419 0.031367 -0.098473
C44   C     C_R   0.034559 0.490203 0.961229 -0.131132
C45   C     C_3   0.971963 0.852228 0.511942 -0.083421
C46   C     C_3   0.027988 0.147789 0.488118 -0.082073
C47   C     C_3   0.527727 0.357718 0.987560 -0.085407
C48   C     C_3   0.472376 0.642379 0.012328 -0.084284
C49   C     C_3   0.986318 0.023586 0.549543 0.381349
C50   C     C_3   0.013635 0.976432 0.450517 0.380886
C51   C     C_3   0.513776 0.532795 0.950525 0.383184
C52   C     C_3   0.486326 0.467302 0.049361 0.382238
H13   H     H_    0.946737 0.280459 0.495790 0.175308
H14   H     H_    0.053214 0.719558 0.504269 0.175256
H15   H     H_    0.553939 0.786852 0.005114 0.174871
H16   H     H_    0.446167 0.213240 0.994774 0.174549
C53   C     C_1   0.128316 0.049101 0.625589 -0.128672
C54   C     C_1   0.871659 0.950907 0.374441 -0.129189
C55   C     C_1   0.371720 0.550648 0.874441 -0.125855
C56   C     C_1   0.628333 0.449385 0.125500 -0.119231
C57   C     C_3   0.029276 0.845273 0.502837 -0.292460
C58   C     C_3   0.970675 0.154745 0.497222 -0.292502
C59   C     C_3   0.470374 0.341934 0.996603 -0.294291
C60   C     C_3   0.529729 0.658161 0.003285 -0.291582
C61   C     C_3   0.043123 0.018830 0.540958 0.010069
C62   C     C_3   0.956829 0.981188 0.459101 0.010076
C63   C     C_3   0.456929 0.519376 0.959050 0.009729
C64   C     C_3   0.543172 0.480719 0.040837 0.009627
C65   C     C_1   0.089989 0.036748 0.587417 0.112381
C66   C     C_1   0.909973 0.963266 0.412630 0.111401
C67   C     C_1   0.410056 0.538129 0.912606 0.114378
C68   C     C_1   0.590025 0.461936 0.087304 0.115920
O21   O     O_3   0.323463 0.734379 0.619516 -0.632716
H17   H     H_    0.332610 0.632220 0.596286 0.288573
O22   O     O_3   0.681556 0.257605 0.385392 -0.633042
H18   H     H_    0.673751 0.358407 0.409932 0.290149
O23   O     O_3   0.205483 0.719567 0.925937 -0.643458
H19   H     H_    0.206505 0.765446 0.965015 0.292349
O24   O     O_3   0.779980 0.380849 0.065637 -0.645666
H20   H     H_    0.774150 0.368021 0.023596 0.303749
C69   C     C_2   0.391308 0.005990 0.448790 0.784728
O25   O     O_2   0.362607 0.124327 0.460889 -0.539453
O26   O     O_R   0.371013 0.868647 0.409606 -0.644647
H21   H     H_    0.332154 0.882083 0.394237 0.312465
C70   C     C_2   0.611471 0.976781 0.554697 0.868731
O27   O     O_2   0.630107 0.076269 0.594792 -0.500276
O28   O     O_R   0.643137 0.849059 0.534991 -0.667442
H22   H     H_    0.680575 0.853368 0.556996 0.308823
C71   C     C_2   0.009428 0.813156 0.929403 0.902298
O29   O     O_2   0.967476 0.888273 0.913258 -0.492397
O30   O     O_R   0.051949 0.866171 0.904825 -0.667496
H23   H     H_    0.043121 0.967622 0.874792 0.298159
C72   C     C_2   0.939130 0.170330 0.019209 0.888640
O31   O     O_2   0.916471 0.083383 0.977977 -0.495562
O32   O     O_R   0.931573 0.122435 0.074080 -0.654260
H24   H     H_    0.905810 0.015255 0.074069 0.320437
O33   O     O_3   0.473047 0.979247 0.382618 -0.616882
H25   H     H_    0.439644 0.043232 0.369035 0.319588
O34   O     O_3   0.535340 0.022990 0.620035 -0.600169
H26   H     H_    0.505877 0.019650 0.640379 0.311192
O35   O     O_3   0.981336 0.824699 0.045771 -0.624367
H27   H     H_    0.011953 0.903882 0.041920 0.318296
O36   O     O_3   0.035164 0.155721 0.977986 -0.651148
H28   H     H_    0.070443 0.172336 0.969057 0.301278
O37   O     O_3   0.972319 0.047861 0.602431 -0.603915
H29   H     H_    0.933587 0.050793 0.594247 0.306159
O38   O     O_3   0.027635 0.952157 0.397631 -0.605989
H30   H     H_    0.066367 0.949221 0.405817 0.303515
O39   O     O_3   0.527876 0.566784 0.897752 -0.600792
H31   H     H_    0.566620 0.573574 0.905978 0.308062
O40   O     O_3   0.472226 0.433313 0.102134 -0.602211
H32   H     H_    0.433482 0.426519 0.093908 0.303888
C73   C     C_2   0.941527 0.687677 0.527548 0.794992
O41   O     O_2   0.958575 0.598255 0.570881 -0.529719
O42   O     O_R   0.893951 0.637252 0.492652 -0.667063
H33   H     H_    0.877067 0.524335 0.507837 0.296508
C74   C     C_2   0.058421 0.312348 0.472510 0.792632
O43   O     O_2   0.041371 0.401759 0.429175 -0.532404
O44   O     O_R   0.105993 0.362794 0.507407 -0.666107
H34   H     H_    0.122875 0.475717 0.492221 0.296455
C75   C     C_2   0.557822 0.199547 0.971439 0.799752
O45   O     O_2   0.540439 0.113550 0.928009 -0.527033
O46   O     O_R   0.605484 0.151218 0.005955 -0.663238
H35   H     H_    0.622154 0.042895 0.990402 0.298966
C76   C     C_2   0.442294 0.800579 0.028452 0.794689
O47   O     O_2   0.459676 0.886520 0.071893 -0.528543
O48   O     O_R   0.394649 0.849014 0.993922 -0.665341
H36   H     H_    0.377987 0.957351 0.009478 0.294887

loop_
_geom_bond_atom_site_label_1
_geom_bond_atom_site_label_2
_ccdc_geom_bond_type
O17   V3    S    
C59   C63   S    
O1    C5    A    
C75   O45   D    
C23   H11   S    
O19   V1    S    
O13   V1    S    
O3    C7    A    
O48   H36   S    
C10   C14   A    
C60   C64   S    
C36   C40   A    
O4    V2    S    
O15   V3    S    
C10   C30   A    
O39   H31   S    
C9    C29   A    
O34   H26   S    
O7    C3    A    
C18   C22   A    
C52   O40   S    
C28   C32   A    
C7    C30   S    
O9    V1    S    
C51   C60   S    
C36   C43   A    
C69   O26   S    
O16   V4    S    
O4    C8    A    
C45   C73   S    
C73   O41   D    
O24   H20   S    
O1    V3    S    
C17   C42   S    
O2    V4    S    
C14   H6    S    
C33   C69   S    
O3    V1    S    
C50   C57   S    
C19   C44   S    
C49   C58   S    
C52   C64   S    
C46   C74   S    
C21   C25   A    
C1    O15   A    
C3    O13   A    
C26   O22   S    
O40   H32   S    
C2    O16   A    
C23   C27   A    
C34   C38   A    
O42   H33   S    
C24   C28   A    
C33   C37   A    
O14   V2    S    
H15   C60   S    
C74   O44   S    
C20   C43   S    
C11   C15   A    
H14   C57   S    
O28   H22   S    
C53   C65   T    
C16   C20   A    
O11   C7    A    
C56   C68   T    
C25   O21   S    
O12   C8    A    
C28   O24   S    
C47   C59   S    
C34   C41   A    
C46   C58   S    
C33   C42   A    
O10   V2    S    
C13   C17   A    
C35   C44   A    
C76   O48   S    
C50   O38   S    
C76   O47   D    
O5    V1    S    
C45   C62   S    
C61   C65   S    
O36   H28   S    
C27   C31   A    
O7    V3    S    
C47   C64   S    
C26   C30   A    
O8    V4    S    
C48   C52   S    
C12   H4    S    
C39   O35   S    
C49   O37   S    
C21   H9    S    
O18   V4    S    
C22   C26   A    
C58   C62   S    
C9    H1    S    
C24   H12   S    
C48   C60   S    
C11   H3    S    
O5    C1    A    
O46   H35   S    
C47   C75   S    
C11   C31   A    
O8    C4    A    
C38   O34   S    
C36   C72   S    
O9    C5    A    
C1    C56   S    
C70   O27   D    
C55   C67   T    
C8    C29   S    
C14   C18   A    
C51   C63   S    
C3    C54   S    
O6    V2    S    
C37   O33   S    
C5    C32   S    
O33   H25   S    
C4    C53   S    
C12   C16   A    
O32   H24   S    
C50   C62   S    
C18   C41   S    
C64   C68   S    
C49   C61   S    
O23   H19   S    
C22   H10   S    
C40   O36   S    
C54   C66   T    
C13   H5    S    
C51   O39   S    
O22   H18   S    
C10   H2    S    
C40   C44   A    
C15   H7    S    
C47   C51   S    
O6    C2    A    
O26   H21   S    
C12   C32   A    
O11   V3    S    
O30   H23   S    
O12   V4    S    
O35   H27   S    
C69   O25   D    
H13   C58   S    
C9    C13   A    
O2    C6    A    
C73   O42   S    
O38   H30   S    
C72   O31   D    
C16   H8    S    
C46   C50   S    
O21   H17   S    
C35   C39   A    
C34   C70   S    
O10   C6    A    
C71   O29   D    
C45   C57   S    
C2    C55   S    
C15   C19   A    
C17   C21   A    
O20   V2    S    
C46   C61   S    
C62   C66   S    
C19   C23   A    
C45   C49   S    
C6    C31   S    
C70   O28   S    
C52   C59   S    
C27   O23   S    
C25   C29   A    
C75   O46   S    
C38   C42   A    
C4    O14   A    
O44   H34   S    
C71   O30   S    
C48   C63   S    
C37   C41   A    
C35   C71   S    
C63   C67   S    
C74   O43   D    
O37   H29   S    
C39   C43   A    
C57   C61   S    
C48   C76   S    
C20   C24   A    
H16   C59   S    
C72   O32   S    
