data_mof_unit_18583.cif
_audit_creation_date              2012-12-11T14:01:45-0500
_audit_creation_method            fapswitch 2.2
_symmetry_space_group_name_H-M    P1
_symmetry_Int_Tables_number       1
_space_group_crystal_system       triclinic
_cell_length_a                    19.028291
_cell_length_b                    10.968795
_cell_length_c                    18.75542
_cell_angle_alpha                 90.071021
_cell_angle_beta                  90.805337
_cell_angle_gamma                 89.916804
_cell_volume                      3914.18921126

loop_
_atom_site_label
_atom_site_type_symbol
_atom_type_description
_atom_site_fract_x
_atom_site_fract_y
_atom_site_fract_z
_atom_type_partial_charge
C1    C     C_R   0.272287 0.043637 0.853010 0.568378
C2    C     C_R   0.727717 0.043603 0.146994 0.565960
C3    C     C_R   0.772287 0.543639 0.853010 0.565682
C4    C     C_R   0.227719 0.543607 0.146996 0.565685
C5    C     C_R   0.477703 0.056908 0.071327 0.020630
C6    C     C_R   0.522391 0.056802 0.928777 0.020453
C7    C     C_R   0.977671 0.556889 0.071343 0.020649
C8    C     C_R   0.022358 0.556821 0.928793 0.019360
C9    C     C_R   0.987921 0.666298 0.034809 -0.125208
C10   C     C_R   0.012025 0.666262 0.965472 -0.125467
C11   C     C_R   0.487969 0.166309 0.034788 -0.125328
C12   C     C_R   0.512074 0.166253 0.965451 -0.125227
C13   C     C_2   0.249827 0.576531 0.919459 -0.129192
C14   C     C_2   0.750227 0.576368 0.080515 -0.128736
C15   C     C_2   0.749824 0.076516 0.919454 -0.128758
C16   C     C_2   0.250230 0.076364 0.080516 -0.128777
C17   C     C_2   0.253135 0.596129 0.080490 0.004556
C18   C     C_2   0.746852 0.596229 0.919585 0.004476
C19   C     C_2   0.753131 0.096118 0.080485 0.004516
C20   C     C_2   0.246855 0.096221 0.919588 0.004106
C21   C     C_2   0.293457 0.525540 0.038183 -0.147346
C22   C     C_2   0.706558 0.525730 0.961753 -0.147548
C23   C     C_2   0.793450 0.025522 0.038178 -0.147551
C24   C     C_2   0.206562 0.025717 0.961755 -0.147731
C25   C     C_2   0.304653 0.552033 0.962815 -0.172005
C26   C     C_2   0.695387 0.552130 0.037155 -0.171324
C27   C     C_2   0.804648 0.052011 0.962810 -0.171281
C28   C     C_2   0.195391 0.052110 0.037158 -0.171226
C29   C     C_2   0.501085 0.835523 0.578615 -0.111565
C30   C     C_2   0.499515 0.835496 0.421795 -0.111401
C31   C     C_2   0.000613 0.335348 0.578336 -0.107011
C32   C     C_2   0.999062 0.335811 0.421517 -0.111019
C33   C     C_2   0.490912 0.735522 0.462243 0.234499
C34   C     C_2   0.510398 0.735686 0.538173 0.235809
C35   C     C_2   0.989783 0.235928 0.461808 0.236796
C36   C     C_2   0.009374 0.235510 0.537714 0.238013
C37   C     C_2   0.270633 0.661131 0.563717 -0.086096
C38   C     C_2   0.746205 0.611959 0.430444 -0.078665
C39   C     C_2   0.753929 0.112034 0.569449 -0.078802
C40   C     C_2   0.246267 0.111717 0.430388 -0.080780
C41   C     C_2   0.258792 0.612670 0.411622 -0.104894
C42   C     C_2   0.742937 0.603232 0.585477 -0.099042
C43   C     C_2   0.757080 0.103614 0.414438 -0.099393
C44   C     C_2   0.242999 0.103312 0.585478 -0.098297
C45   C     C_R   0.471990 0.822205 0.853230 0.539680
C46   C     C_R   0.528072 0.822220 0.146725 0.538181
C47   C     C_R   0.971989 0.322207 0.853232 0.538808
C48   C     C_R   0.028072 0.322218 0.146726 0.538271
C49   C     C_2   0.222772 0.701184 0.444321 -0.154238
C50   C     C_2   0.781666 0.682412 0.549681 -0.166303
C51   C     C_2   0.718232 0.182711 0.450394 -0.166603
C52   C     C_2   0.282015 0.181909 0.549569 -0.159623
C53   C     C_2   0.237959 0.736903 0.518185 -0.160356
C54   C     C_2   0.770223 0.700865 0.474058 -0.139476
C55   C     C_2   0.729754 0.201051 0.526028 -0.139577
C56   C     C_2   0.270596 0.200390 0.473973 -0.138446
C57   C     C_R   0.261138 0.635332 0.851090 0.550111
C58   C     C_R   0.738890 0.635294 0.148920 0.541178
C59   C     C_R   0.761138 0.135330 0.851090 0.541451
C60   C     C_R   0.238890 0.135292 0.148919 0.541108
C61   C     C_R   0.270842 0.048136 0.649575 0.548889
C62   C     C_R   0.729175 0.048295 0.350388 0.555323
C63   C     C_R   0.770838 0.548127 0.649572 0.554834
C64   C     C_R   0.229163 0.549132 0.350347 0.554062
C65   C     C_R   0.472005 0.823956 0.649094 0.564234
C66   C     C_R   0.528119 0.824059 0.351044 0.571661
C67   C     C_R   0.971916 0.323921 0.649006 0.572974
C68   C     C_R   0.028018 0.324111 0.350948 0.571867
C69   C     C_R   0.275044 0.690714 0.638589 0.564866
C70   C     C_R   0.738717 0.641658 0.355923 0.549054
C71   C     C_R   0.761312 0.141553 0.644040 0.549162
C72   C     C_R   0.238735 0.141580 0.355895 0.549508
C73   C     C_R   0.497897 0.830723 0.074454 -0.001946
C74   C     C_R   0.502409 0.830722 0.925403 -0.002493
C75   C     C_R   0.997894 0.330715 0.074457 -0.001933
C76   C     C_R   0.002405 0.330731 0.925406 -0.002009
C77   C     C_R   0.493513 0.943862 0.037305 0.033464
C78   C     C_R   0.506680 0.943837 0.962683 0.033250
C79   C     C_R   0.993494 0.443854 0.037313 0.033547
C80   C     C_R   0.006659 0.443844 0.962692 0.033238
C81   C     C_R   0.502398 0.721298 0.963538 -0.160489
C82   C     C_R   0.498274 0.721297 0.036168 -0.160505
C83   C     C_R   0.002409 0.221303 0.963537 -0.160231
C84   C     C_R   0.998285 0.221292 0.036167 -0.160515
Cr1   Cr    Cr6+3 0.230530 0.836340 0.748870 1.033624
Cr2   Cr    Cr6+3 0.769470 0.836340 0.251130 1.035888
Cr3   Cr    Cr6+3 0.730530 0.336340 0.748870 1.036421
Cr4   Cr    Cr6+3 0.269470 0.336340 0.251130 1.035808
Cr5   Cr    Cr6+3 0.387420 0.989430 0.750820 1.014917
Cr6   Cr    Cr6+3 0.612580 0.989430 0.249180 1.019812
Cr7   Cr    Cr6+3 0.887420 0.489430 0.750820 1.021133
Cr8   Cr    Cr6+3 0.112580 0.489430 0.249180 1.020207
Cr9   Cr    Cr6+3 0.385640 0.677860 0.749230 1.060309
Cr10  Cr    Cr6+3 0.614360 0.677860 0.250770 1.063295
Cr11  Cr    Cr6+3 0.885640 0.177860 0.749230 1.063609
Cr12  Cr    Cr6+3 0.114360 0.177860 0.250770 1.062857
H1    H     H_    0.501371 0.633405 0.937071 0.140146
H2    H     H_    0.499521 0.633405 0.062509 0.139853
H3    H     H_    0.001394 0.133412 0.937066 0.140070
H4    H     H_    0.999545 0.133398 0.062504 0.139844
H5    H     H_    0.176164 0.740683 0.419407 0.171856
H6    H     H_    0.827140 0.726474 0.574072 0.171572
H7    H     H_    0.672597 0.226640 0.426154 0.171577
H8    H     H_    0.327705 0.225466 0.573855 0.174096
H9    H     H_    0.214650 0.820956 0.537589 0.148679
H10   H     H_    0.787223 0.788206 0.453054 0.165918
H11   H     H_    0.712635 0.288370 0.547209 0.166225
H12   H     H_    0.287872 0.287563 0.452969 0.168960
H13   H     H_    0.307858 0.578018 0.433540 0.160588
H14   H     H_    0.695281 0.564883 0.562193 0.164274
H15   H     H_    0.804866 0.065389 0.437598 0.164264
H16   H     H_    0.195148 0.065499 0.562297 0.161619
H17   H     H_    0.292828 0.574746 0.547021 0.127883
H18   H     H_    0.728663 0.523903 0.449585 0.099986
H19   H     H_    0.771576 0.023989 0.550126 0.099854
H20   H     H_    0.228432 0.023872 0.449558 0.097374
H21   H     H_    0.977189 0.752853 0.060416 0.106978
H22   H     H_    0.022673 0.752782 0.939975 0.107016
H23   H     H_    0.477247 0.252873 0.060390 0.107020
H24   H     H_    0.522732 0.252766 0.939949 0.107239
H25   H     H_    0.314724 0.439503 0.057448 0.139924
H26   H     H_    0.685330 0.439777 0.942355 0.140099
H27   H     H_    0.814717 0.939487 0.057445 0.139833
H28   H     H_    0.185333 0.939765 0.942354 0.139859
H29   H     H_    0.358335 0.554570 0.943931 0.154376
H30   H     H_    0.641709 0.554899 0.056051 0.154569
H31   H     H_    0.858331 0.054548 0.943927 0.154540
H32   H     H_    0.141713 0.054853 0.056058 0.154572
H33   H     H_    0.196667 0.571716 0.939612 0.116188
H34   H     H_    0.803386 0.571350 0.060341 0.116575
H35   H     H_    0.696663 0.071702 0.939606 0.116589
H36   H     H_    0.303389 0.071360 0.060341 0.116549
H37   H     H_    0.508938 0.924096 0.445464 0.062025
H38   H     H_    0.491400 0.924001 0.554956 0.062165
H39   H     H_    0.008855 0.424194 0.445322 0.063132
H40   H     H_    0.991048 0.423960 0.554795 0.062863
O1    O     O_R   0.215090 0.709860 0.828130 -0.531175
O2    O     O_R   0.784910 0.709860 0.171870 -0.534045
O3    O     O_R   0.715090 0.209860 0.828130 -0.533888
O4    O     O_R   0.284910 0.209860 0.171870 -0.534051
O5    O     O_R   0.445660 0.919250 0.676780 -0.514536
O6    O     O_R   0.554340 0.919250 0.323220 -0.512573
O7    O     O_R   0.945660 0.419250 0.676780 -0.511555
O8    O     O_R   0.054340 0.419250 0.323220 -0.512063
O9    O     O_R   0.456260 0.718170 0.670000 -0.445252
O10   O     O_R   0.543740 0.718170 0.330000 -0.436820
O11   O     O_R   0.956260 0.218170 0.670000 -0.438256
O12   O     O_R   0.043740 0.218170 0.330000 -0.437449
O13   O     O_R   0.320940 0.626760 0.674370 -0.486038
O14   O     O_R   0.679060 0.626760 0.325630 -0.481827
O15   O     O_R   0.820940 0.126760 0.674370 -0.482244
O16   O     O_R   0.179060 0.126760 0.325630 -0.482295
O17   O     O_3   0.334530 0.834540 0.749640 -0.279348
O18   O     O_3   0.665470 0.834540 0.250360 -0.258511
O19   O     O_3   0.834530 0.334540 0.749640 -0.258978
O20   O     O_3   0.165470 0.334540 0.250360 -0.258078
O21   O     O_R   0.236990 0.958390 0.823710 -0.504471
O22   O     O_R   0.763010 0.958390 0.176290 -0.505048
O23   O     O_R   0.736990 0.458390 0.823710 -0.505069
O24   O     O_R   0.263010 0.458390 0.176290 -0.505238
O25   O     O_R   0.332380 0.074750 0.830850 -0.507780
O26   O     O_R   0.667620 0.074750 0.169150 -0.510382
O27   O     O_R   0.832380 0.574750 0.830850 -0.510270
O28   O     O_R   0.167620 0.574750 0.169150 -0.510645
O29   O     O_R   0.445800 0.917770 0.825070 -0.499662
O30   O     O_R   0.554200 0.917770 0.174930 -0.501689
O31   O     O_R   0.945800 0.417770 0.825070 -0.501596
O32   O     O_R   0.054200 0.417770 0.174930 -0.501770
O33   O     O_R   0.456410 0.716580 0.829970 -0.522573
O34   O     O_R   0.543590 0.716580 0.170030 -0.523728
O35   O     O_R   0.956410 0.216580 0.829970 -0.523494
O36   O     O_R   0.043590 0.216580 0.170030 -0.523666
O37   O     O_R   0.321080 0.625290 0.822650 -0.490746
O38   O     O_R   0.678920 0.625290 0.177350 -0.496053
O39   O     O_R   0.821080 0.125290 0.822650 -0.496120
O40   O     O_R   0.178920 0.125290 0.177350 -0.496202
O41   O     O_R   0.214930 0.711450 0.668160 -0.495253
O42   O     O_R   0.785070 0.711450 0.331840 -0.510649
O43   O     O_R   0.714930 0.211450 0.668160 -0.510367
O44   O     O_R   0.285070 0.211450 0.331840 -0.510810
O45   O     O_R   0.236850 0.959870 0.675420 -0.504031
O46   O     O_R   0.763150 0.959870 0.324580 -0.488729
O47   O     O_R   0.736850 0.459870 0.675420 -0.488823
O48   O     O_R   0.263150 0.459870 0.324580 -0.487499
O49   O     O_R   0.332230 0.076350 0.670880 -0.510665
O50   O     O_R   0.667770 0.076350 0.329120 -0.512029
O51   O     O_R   0.832230 0.576350 0.670880 -0.511912
O52   O     O_R   0.167770 0.576350 0.329120 -0.511614
C85   C     C_3   0.442298 0.066371 0.142523 -0.366201
H41   H     H_    0.420059 0.978189 0.160193 0.123657
H42   H     H_    0.479449 0.103057 0.183326 0.157303
H43   H     H_    0.398225 0.131401 0.138140 0.141459
C86   C     C_3   0.557711 0.066087 0.857543 -0.365909
H44   H     H_    0.579935 0.977795 0.839723 0.124050
H45   H     H_    0.520491 0.102893 0.816837 0.158062
H46   H     H_    0.601791 0.130921 0.861932 0.141175
C87   C     C_3   0.942277 0.566329 0.142545 -0.366196
H47   H     H_    0.920053 0.478138 0.160217 0.123753
H48   H     H_    0.979428 0.603032 0.183343 0.157252
H49   H     H_    0.898194 0.631335 0.138170 0.141490
C88   C     C_3   0.057688 0.566133 0.857568 -0.363814
H50   H     H_    0.079918 0.477849 0.839744 0.126318
H51   H     H_    0.020471 0.602942 0.816860 0.158073
H52   H     H_    0.101765 0.630973 0.861970 0.141755
C89   C     C_3   0.227474 0.721847 0.059352 -0.385562
H53   H     H_    0.259190 0.762209 0.016163 0.143764
H54   H     H_    0.171477 0.717437 0.042062 0.139910
H55   H     H_    0.232032 0.784172 0.105887 0.135933
C90   C     C_3   0.772437 0.721850 0.940935 -0.385399
H56   H     H_    0.740704 0.762262 0.984203 0.144154
H57   H     H_    0.828441 0.717259 0.958201 0.139903
H58   H     H_    0.767823 0.784228 0.894509 0.136128
C91   C     C_3   0.727469 0.221833 0.059342 -0.385403
H59   H     H_    0.759188 0.262194 0.016154 0.144080
H60   H     H_    0.671474 0.217419 0.042049 0.139906
H61   H     H_    0.732023 0.284162 0.105875 0.136032
C92   C     C_3   0.272440 0.221840 0.940941 -0.385099
H62   H     H_    0.240707 0.262250 0.984210 0.144068
H63   H     H_    0.328444 0.217247 0.958207 0.139729
H64   H     H_    0.267826 0.284221 0.894517 0.138084
Cl1   Cl    Cl    0.460795 0.595450 0.425455 -0.547498
Cl2   Cl    Cl    0.541225 0.596208 0.575122 -0.542446
Cl3   Cl    Cl    0.958827 0.096658 0.424705 -0.543571
Cl4   Cl    Cl    0.039935 0.095553 0.574258 -0.539880

loop_
_geom_bond_atom_site_label_1
_geom_bond_atom_site_label_2
_ccdc_geom_bond_type
Cr10  O10   S    
C77   C78   A    
C38   C70   S    
C16   C28   D    
C37   C69   S    
C87   H49   S    
C9    H21   S    
C20   C92   S    
Cr1   O17   S    
Cr9   O13   S    
C35   C36   S    
C70   O14   A    
Cr2   O42   S    
C67   O7    A    
C2    O26   A    
C81   C82   A    
Cr2   O18   S    
C40   H20   S    
C89   H53   S    
C92   H64   S    
C31   C67   S    
C91   H61   S    
Cr9   O33   S    
C50   C54   S    
C75   C79   A    
Cr1   O21   S    
Cr6   O26   S    
Cr4   O20   S    
Cr7   O31   S    
C8    C88   S    
C47   C76   S    
C5    C11   A    
C59   O39   A    
C16   C60   S    
C38   H18   S    
Cr5   O5    S    
C75   C84   A    
Cr4   O48   S    
C15   H35   S    
C37   H17   S    
C87   H47   S    
C51   H7    S    
Cr12  O16   S    
C24   H28   S    
C90   H58   S    
C65   O5    A    
C3    C18   S    
C87   H48   S    
C26   H30   S    
C71   O43   A    
C85   H42   S    
Cr11  O39   S    
Cr4   O4    S    
C25   H29   S    
C69   O41   A    
C48   O36   A    
C27   H31   S    
C41   C49   D    
C71   O15   A    
C20   C24   D    
C72   O16   A    
C48   O32   A    
C17   C89   S    
C4    O28   A    
Cr9   O9    S    
C23   C27   S    
Cr6   O18   S    
C40   C72   S    
C9    C10   A    
C36   Cl4   S    
C92   H63   S    
C51   C55   S    
C68   O12   A    
C3    O27   A    
C62   O50   A    
C37   C53   D    
Cr8   O28   S    
C89   H54   S    
C29   H38   S    
C11   H23   S    
C12   H24   S    
Cr6   O30   S    
C3    O23   A    
C88   H51   S    
C48   C75   S    
Cr7   O27   S    
C58   O38   A    
C43   H15   S    
Cr12  O20   S    
Cr12  O12   S    
C76   C83   A    
Cr5   O25   S    
Cr4   O44   S    
Cr7   O7    S    
C91   H60   S    
C15   C27   D    
C14   C58   S    
C39   C55   D    
C63   O47   A    
C54   H10   S    
C52   C56   S    
C84   H4    S    
C32   C35   D    
C76   C80   A    
C18   C90   S    
Cr11  O11   S    
C90   H56   S    
C21   C25   S    
Cr12  O36   S    
C70   O42   A    
C23   H27   S    
C61   O45   A    
Cr6   O50   S    
C40   C56   D    
C92   H62   S    
C91   H59   S    
Cr3   O43   S    
C29   C34   D    
C17   C21   D    
C46   O34   A    
C55   H11   S    
C45   C74   S    
C19   C91   S    
C86   H45   S    
C7    C87   S    
C85   H43   S    
C19   C23   D    
Cr7   O19   S    
C10   H22   S    
C90   H57   S    
C35   Cl3   S    
C62   O46   A    
C47   O31   A    
Cr8   O32   S    
Cr5   O17   S    
C83   C84   A    
C38   C54   D    
C59   O3    A    
Cr10  O18   S    
C30   H37   S    
C61   O49   A    
C33   C34   S    
C57   O1    A    
Cr8   O20   S    
C64   O52   A    
C14   C26   D    
Cr2   O22   S    
Cr5   O29   S    
C30   C66   S    
C42   C50   D    
C57   O37   A    
C4    C17   S    
C44   H16   S    
C8    C10   A    
C41   H13   S    
C60   O4    A    
C68   O8    A    
C50   H6    S    
C39   H19   S    
C74   C78   A    
C60   O40   A    
C88   H52   S    
C29   C65   S    
Cr11  O15   S    
C72   O44   A    
C74   C81   A    
C5    C77   A    
C6    C12   A    
Cr1   O1    S    
C73   C82   A    
C7    C79   A    
C14   H34   S    
C89   H55   S    
Cr2   O46   S    
C7    C9    A    
Cr7   O51   S    
C52   H8    S    
C1    C20   S    
Cr1   O45   S    
C46   O30   A    
C30   C33   D    
C2    C19   S    
C18   C22   D    
Cr5   O49   S    
Cr10  O38   S    
C24   C28   S    
Cr3   O3    S    
C31   H40   S    
C13   C25   D    
C45   O33   A    
C44   C52   D    
Cr12  O40   S    
C32   H39   S    
C47   O35   A    
C11   C12   A    
Cr8   O52   S    
C16   H36   S    
C66   O6    A    
Cr3   O19   S    
C44   C61   S    
Cr6   O6    S    
C63   O51   A    
C88   H50   S    
C32   C68   S    
C69   O13   A    
C1    O21   A    
C42   H14   S    
C5    C85   S    
C28   H32   S    
Cr10  O34   S    
C86   H46   S    
C49   H5    S    
C58   O2    A    
C4    O24   A    
C45   O29   A    
C43   C51   D    
C49   C53   S    
C46   C73   S    
C65   O9    A    
Cr9   O37   S    
C81   H1    S    
Cr3   O23   S    
Cr9   O17   S    
Cr11  O19   S    
Cr4   O24   S    
C21   H25   S    
C85   H41   S    
Cr8   O8    S    
C15   C59   S    
C82   H2    S    
C66   O10   A    
C6    C78   A    
Cr2   O2    S    
C1    O25   A    
C79   C80   A    
C64   O48   A    
C53   H9    S    
Cr10  O14   S    
C13   C57   S    
C2    O22   A    
C73   C77   A    
Cr1   O41   S    
C86   H44   S    
C22   C26   S    
C67   O11   A    
C8    C80   A    
C56   H12   S    
C31   C36   D    
C22   H26   S    
C83   H3    S    
C41   C64   S    
Cr3   O47   S    
Cr11  O35   S    
C42   C63   S    
C6    C86   S    
C13   H33   S    
C34   Cl2   S    
C43   C62   S    
C39   C71   S    
C33   Cl1   S    
