data_mof_unit_9455.cif
_audit_creation_date              2012-12-10T19:56:40-0500
_audit_creation_method            fapswitch 2.2
_symmetry_space_group_name_H-M    P1
_symmetry_Int_Tables_number       1
_space_group_crystal_system       triclinic
_cell_length_a                    28.584228
_cell_length_b                    18.223395
_cell_length_c                    18.22523
_cell_angle_alpha                 90.052267
_cell_angle_beta                  130.446178
_cell_angle_gamma                 90.213112
_cell_volume                      7224.62387443

loop_
_atom_site_label
_atom_site_type_symbol
_atom_type_description
_atom_site_fract_x
_atom_site_fract_y
_atom_site_fract_z
_atom_type_partial_charge
C1    C     C_R   0.500205 0.999941 0.358924 0.924542
C2    C     C_R   0.220788 0.030783 0.279530 0.071895
C3    C     C_R   0.816903 0.447180 0.133869 -0.233006
C4    C     C_R   0.651884 0.879452 0.878787 0.275505
C5    C     C_R   0.347517 0.906191 0.108873 0.256300
C6    C     C_R   0.162373 0.458939 0.915790 0.261447
C7    C     C_R   0.845870 0.411621 0.104514 0.256093
C8    C     C_R   0.626228 0.811936 0.830189 -0.153991
C9    C     C_R   0.377789 0.840004 0.154523 -0.125414
C10   C     C_R   0.129547 0.392568 0.885316 -0.177076
C11   C     C_R   0.876993 0.345605 0.149174 -0.128362
C12   C     C_R   0.782234 0.948298 0.829805 0.419588
C13   C     C_R   0.279423 0.529450 0.719462 0.049098
C14   C     C_R   0.217625 0.951772 0.165424 0.380628
C15   C     C_R   0.281626 0.455091 0.835409 0.426366
C16   C     C_R   0.717629 0.452265 0.164842 0.379597
C17   C     C_3   0.792908 0.211185 0.777968 -0.761357
C18   C     C_3   0.210734 0.202198 0.221904 -0.698600
C19   C     C_3   0.287583 0.707914 0.762802 -0.753350
C20   C     C_3   0.709981 0.701529 0.223925 -0.702736
C21   C     C_3   0.614541 0.778859 0.580682 -0.685836
C22   C     C_3   0.287711 0.772178 0.279811 -0.616808
C23   C     C_3   0.097303 0.279265 0.644520 -0.713665
C24   C     C_R   0.720898 0.529661 0.280149 0.071916
C25   C     C_3   0.789513 0.272902 0.277417 -0.614436
C26   C     C_3   0.630566 0.853751 0.989080 -0.685922
C27   C     C_3   0.326782 0.889310 0.957287 -0.698797
C28   C     C_3   0.197961 0.471156 0.077831 -0.680234
C29   C     C_3   0.824000 0.396901 0.951743 -0.695173
C30   C     C_3   0.671026 0.143291 0.554886 -0.733577
C31   C     C_3   0.329752 0.136636 0.452502 -0.740270
C32   C     C_3   0.169857 0.629892 0.540094 -0.745198
C33   C     C_3   0.829907 0.635061 0.453908 -0.739909
C34   C     C_3   0.750770 0.048274 0.394415 -0.637961
C35   C     C_R   0.715686 0.035505 0.660292 0.202958
C36   C     C_3   0.149937 0.069113 0.539143 -0.729313
C37   C     C_3   0.260172 0.535947 0.397890 -0.653420
C38   C     C_3   0.661982 0.569475 0.554867 -0.749295
C39   C     C_R   0.284836 0.030779 0.342599 0.187770
C40   C     C_R   0.215264 0.528900 0.656247 0.203104
C41   C     C_R   0.784947 0.529821 0.343019 0.186293
C42   C     C_R   0.685953 0.997350 0.686627 -0.216872
C43   C     C_R   0.314280 0.996048 0.313854 -0.202897
C44   C     C_R   0.185648 0.498445 0.687272 -0.219292
C45   C     C_R   0.499860 0.999991 0.641144 0.925945
C46   C     C_R   0.814318 0.496042 0.313620 -0.201801
C47   C     C_R   0.718005 0.950645 0.767523 -0.188068
C48   C     C_R   0.281981 0.953499 0.228856 -0.137254
C49   C     C_R   0.217771 0.461591 0.775727 -0.174845
C50   C     C_R   0.781981 0.454286 0.228013 -0.137734
C51   C     C_R   0.805864 0.032519 0.614770 0.460728
C52   C     C_R   0.192001 0.031133 0.384316 0.399116
C53   C     C_R   0.308277 0.524147 0.614993 0.459622
C54   C     C_R   0.693323 0.528487 0.386441 0.392754
C55   C     C_R   0.820655 0.071394 0.565291 0.079638
C56   C     C_R   0.000164 0.499944 0.358880 0.923548
C57   C     C_R   0.172594 0.069784 0.427642 0.102220
C58   C     C_R   0.325705 0.561156 0.568012 0.081559
C59   C     C_R   0.675574 0.566907 0.432342 0.107667
C60   C     C_R   0.843195 0.143150 0.592739 -0.404152
C61   C     C_R   0.148802 0.140838 0.395445 -0.336933
C62   C     C_R   0.348637 0.632812 0.595114 -0.406917
C63   C     C_R   0.651059 0.637796 0.400377 -0.338333
C64   C     C_R   0.850666 0.178416 0.667832 0.459446
C65   C     C_R   0.144497 0.174802 0.322593 0.425711
C66   C     C_R   0.353624 0.669918 0.667007 0.462623
C67   C     C_R   0.999754 0.500016 0.641034 0.927095
C68   C     C_R   0.645117 0.671978 0.326100 0.427943
C69   C     C_R   0.833885 0.141740 0.716133 0.050876
C70   C     C_R   0.165303 0.137551 0.280263 0.039272
C71   C     C_R   0.333926 0.635270 0.712240 0.049262
C72   C     C_R   0.665358 0.635413 0.282554 0.041270
C73   C     C_R   0.620137 0.999699 0.622758 0.912177
C74   C     C_R   0.379941 0.999313 0.377480 0.907897
C75   C     C_R   0.120011 0.499914 0.622919 0.915103
C76   C     C_R   0.879958 0.499316 0.377248 0.907950
C77   C     C_R   0.809615 0.069105 0.687506 -0.117591
C78   C     C_R   0.812927 0.995077 0.810389 -0.235300
C79   C     C_R   0.190793 0.066347 0.313436 -0.081949
C80   C     C_R   0.309677 0.562543 0.684427 -0.118692
C81   C     C_R   0.691105 0.564279 0.314906 -0.079038
C82   C     C_1   0.500823 0.999796 0.283070 -0.165133
C83   C     C_1   0.499270 0.999912 0.717028 -0.160513
C84   C     C_1   0.000799 0.499807 0.283044 -0.165701
C85   C     C_1   0.999043 0.500066 0.716791 -0.157244
C86   C     C_1   0.501014 0.999708 0.218425 -0.142836
C87   C     C_1   0.499049 0.999789 0.781642 -0.138290
C88   C     C_1   0.001005 0.499719 0.218414 -0.141235
C89   C     C_R   0.187217 0.994415 0.188959 -0.230712
C90   C     C_1   0.998885 0.500018 0.781472 -0.129943
C91   C     C_R   0.999535 0.141308 0.999544 0.864470
C92   C     C_R   0.499300 0.641307 0.999290 0.870151
C93   C     C_R   0.879422 0.998754 0.878699 0.940885
C94   C     C_R   0.120639 0.998585 0.121174 0.971397
C95   C     C_R   0.379346 0.497813 0.878689 0.932231
C96   C     C_R   0.620649 0.498472 0.121196 0.972525
C97   C     C_R   0.000568 0.858751 0.000541 1.035844
C98   C     C_R   0.499986 0.358744 0.999964 1.022480
C99   C     C_R   0.500142 0.140876 0.000135 0.918366
C100  C     C_R   0.312649 0.494430 0.810545 -0.245649
C101  C     C_R   0.000158 0.640873 0.000131 0.916059
C102  C     C_R   0.500355 0.999760 0.141258 0.944253
C103  C     C_R   0.499654 0.999787 0.858752 0.938498
C104  C     C_R   0.000354 0.499763 0.141256 0.942673
C105  C     C_R   0.999630 0.499911 0.858725 0.941144
C106  C     C_R   0.499805 0.859115 0.999860 0.951280
C107  C     C_R   0.999809 0.359117 0.999934 0.961128
C108  C     C_1   0.999005 0.217797 0.999035 -0.104443
C109  C     C_1   0.498883 0.717801 0.998831 -0.102823
C110  C     C_R   0.629925 0.789677 0.760856 -0.199990
C111  C     C_R   0.687244 0.494135 0.189017 -0.231476
C112  C     C_R   0.375931 0.809505 0.222803 -0.247176
C113  C     C_R   0.125027 0.347772 0.818773 -0.194380
C114  C     C_R   0.876270 0.313676 0.218002 -0.241920
C115  C     C_1   0.499236 0.782646 0.999230 -0.087375
C116  C     C_1   0.999272 0.282646 0.999405 -0.066035
C117  C     C_1   0.000637 0.782231 0.000548 -0.080955
C118  C     C_1   0.500250 0.282238 0.000194 -0.087203
C119  C     C_1   0.500370 0.217390 0.000327 -0.146688
C120  C     C_1   0.000504 0.717384 0.000426 -0.146489
C121  C     C_R   0.659264 0.833890 0.738146 0.358314
C122  C     C_R   0.779788 0.034794 0.722611 0.036812
C123  C     C_R   0.343855 0.844340 0.247079 0.323871
C124  C     C_R   0.152579 0.368546 0.780048 0.355219
C125  C     C_R   0.844513 0.346867 0.243843 0.323028
C126  C     C_R   0.683941 0.902779 0.785200 0.118513
C127  C     C_R   0.315770 0.913060 0.204909 0.156143
C128  C     C_R   0.185092 0.436240 0.809761 0.085347
C129  C     C_R   0.815651 0.415481 0.202755 0.152325
C130  C     C_R   0.679133 0.925108 0.853715 -0.219291
C131  C     C_R   0.318163 0.943330 0.136590 -0.232690
C132  C     C_R   0.188826 0.480965 0.876129 -0.237373
H1    H     H_    0.604026 0.775341 0.846143 0.170535
H2    H     H_    0.399182 0.758091 0.256468 0.145778
H3    H     H_    0.172726 0.121839 0.576966 0.237087
H4    H     H_    0.355093 0.539836 0.492379 0.228918
H5    H     H_    0.258048 0.503772 0.344010 0.220815
H6    H     H_    0.252207 0.594740 0.376849 0.209343
H7    H     H_    0.223200 0.515852 0.397274 0.276994
H8    H     H_    0.726173 0.508551 0.561359 0.284750
H9    H     H_    0.668593 0.532563 0.609356 0.244635
H10   H     H_    0.612038 0.580882 0.499217 0.245247
H11   H     H_    0.688240 0.620955 0.591683 0.239488
H12   H     H_    0.101393 0.295573 0.799610 0.172891
H13   H     H_    0.900108 0.262381 0.250792 0.147484
H14   H     H_    0.699259 0.977022 0.890966 0.145065
H15   H     H_    0.295839 0.995284 0.103360 0.145959
H16   H     H_    0.213961 0.532422 0.898956 0.146377
H17   H     H_    0.793933 0.499002 0.101407 0.145958
H18   H     H_    0.865402 0.328307 0.783409 0.379687
H19   H     H_    0.131743 0.366952 0.251506 0.398505
H20   H     H_    0.372061 0.818994 0.786522 0.378421
H21   H     H_    0.403162 0.811910 0.137799 0.172275
H22   H     H_    0.629220 0.864232 0.253128 0.399153
H23   H     H_    0.869136 0.144412 0.857363 0.212249
H24   H     H_    0.809429 0.246430 0.840478 0.234280
H25   H     H_    0.761153 0.169411 0.768807 0.233315
H26   H     H_    0.767893 0.246389 0.713074 0.275179
H27   H     H_    0.118528 0.200531 0.156216 0.274328
H28   H     H_    0.197167 0.230034 0.156430 0.234081
H29   H     H_    0.245253 0.160283 0.242575 0.230044
H30   H     H_    0.231691 0.243519 0.280514 0.274618
H31   H     H_    0.364417 0.642408 0.850774 0.212119
H32   H     H_    0.107538 0.375172 0.913300 0.170813
H33   H     H_    0.301555 0.745206 0.822314 0.235152
H34   H     H_    0.254966 0.666730 0.752115 0.231295
H35   H     H_    0.264347 0.741130 0.696487 0.276599
H36   H     H_    0.617891 0.698989 0.158871 0.275389
H37   H     H_    0.696171 0.729543 0.158459 0.229899
H38   H     H_    0.744756 0.660053 0.244477 0.231141
H39   H     H_    0.730733 0.742784 0.282557 0.276832
H40   H     H_    0.700539 0.831796 0.674919 0.274603
H41   H     H_    0.608229 0.810369 0.522673 0.278261
H42   H     H_    0.571631 0.783731 0.569753 0.214224
H43   H     H_    0.902130 0.318725 0.131235 0.171095
H44   H     H_    0.621716 0.720360 0.573887 0.222097
H45   H     H_    0.382082 0.782026 0.368706 0.211055
H46   H     H_    0.292770 0.747360 0.340260 0.230087
H47   H     H_    0.279108 0.727611 0.230599 0.225304
H48   H     H_    0.247819 0.809550 0.241172 0.291823
H49   H     H_    0.182633 0.329127 0.707214 0.268653
H50   H     H_    0.087510 0.286344 0.575159 0.240558
H51   H     H_    0.056950 0.299949 0.634437 0.236473
H52   H     H_    0.103132 0.219901 0.661779 0.231409
H53   H     H_    0.883798 0.282568 0.364337 0.209900
H54   H     H_    0.855074 0.171523 0.554571 0.212248
H55   H     H_    0.795403 0.246842 0.338016 0.226398
H56   H     H_    0.780108 0.229275 0.226629 0.229743
H57   H     H_    0.749778 0.310376 0.240739 0.291233
H58   H     H_    0.651997 0.957136 0.964180 0.232856
H59   H     H_    0.642681 0.876946 0.055837 0.258144
H60   H     H_    0.652085 0.798790 0.007144 0.223998
H61   H     H_    0.579784 0.848856 0.932862 0.250344
H62   H     H_    0.330132 0.989174 0.015817 0.229825
H63   H     H_    0.327140 0.919952 0.904996 0.238011
H64   H     H_    0.279101 0.870140 0.919929 0.234020
H65   H     H_    0.133501 0.170970 0.427481 0.222663
H66   H     H_    0.357622 0.841461 0.982194 0.231398
H67   H     H_    0.183749 0.556879 0.990469 0.220411
H68   H     H_    0.199479 0.511004 0.125501 0.215134
H69   H     H_    0.245780 0.455596 0.112006 0.233931
H70   H     H_    0.172217 0.421954 0.070602 0.239331
H71   H     H_    0.826423 0.495712 0.011294 0.227846
H72   H     H_    0.823282 0.428622 0.899008 0.234456
H73   H     H_    0.776776 0.376343 0.915170 0.233787
H74   H     H_    0.855587 0.349988 0.975940 0.230295
H75   H     H_    0.809326 0.784605 0.975908 0.385008
H76   H     H_    0.362892 0.659631 0.559376 0.210490
H77   H     H_    0.190017 0.801807 0.001154 0.383286
H78   H     H_    0.301826 0.303642 0.989653 0.383685
H79   H     H_    0.690413 0.304042 0.999081 0.384789
H80   H     H_    0.642517 0.035004 0.511252 0.248582
H81   H     H_    0.631929 0.156711 0.478358 0.242042
H82   H     H_    0.712009 0.171995 0.574702 0.245885
H83   H     H_    0.660132 0.163480 0.599803 0.248464
H84   H     H_    0.358247 0.028295 0.491331 0.253797
H85   H     H_    0.363901 0.149590 0.530748 0.247019
H86   H     H_    0.347475 0.157600 0.417390 0.250244
H87   H     H_    0.636399 0.667621 0.433539 0.219002
H88   H     H_    0.286768 0.165290 0.423248 0.245048
H89   H     H_    0.141883 0.520711 0.508003 0.249399
H90   H     H_    0.133999 0.639496 0.461349 0.243211
H91   H     H_    0.212142 0.658022 0.564287 0.245954
H92   H     H_    0.154100 0.653965 0.576736 0.251601
H93   H     H_    0.858531 0.526674 0.491664 0.253775
H94   H     H_    0.864036 0.647628 0.532267 0.247057
H95   H     H_    0.847621 0.656559 0.418996 0.250989
H96   H     H_    0.786894 0.663526 0.424874 0.245288
H97   H     H_    0.792011 0.850622 0.515106 0.392799
H98   H     H_    0.611660 0.736399 0.727058 0.155363
H99   H     H_    0.195771 0.848411 0.471460 0.390920
H100  H     H_    0.299944 0.339918 0.525864 0.389705
H101  H     H_    0.697443 0.345118 0.472373 0.391888
H102  H     H_    0.845423 0.053791 0.482584 0.228475
H103  H     H_    0.746632 0.017703 0.337695 0.222477
H104  H     H_    0.741594 0.107299 0.374601 0.211047
H105  H     H_    0.715758 0.026376 0.397460 0.275529
H106  H     H_    0.222063 0.015246 0.559284 0.279114
H107  H     H_    0.154189 0.031160 0.590800 0.242924
H108  H     H_    0.100210 0.077681 0.477879 0.247663
N1    N     N_2   0.845043 0.176381 0.796469 -0.274160
N2    N     N_2   0.347921 0.936923 0.037378 -0.291304
N3    N     N_2   0.167973 0.504405 0.984806 -0.287895
N4    N     N_2   0.844985 0.443778 0.032339 -0.290204
N5    N     N_2   0.681048 0.064893 0.564990 -0.278679
N6    N     N_2   0.319570 0.058129 0.439137 -0.271191
N7    N     N_2   0.180500 0.551945 0.558214 -0.273813
N8    N     N_2   0.819792 0.556575 0.439846 -0.272614
N9    N     N_2   0.812037 0.039153 0.486151 -0.229680
N10   N     N_2   0.179245 0.036929 0.505376 -0.229306
N11   N     N_2   0.319890 0.526846 0.492292 -0.228037
N12   N     N_2   0.157099 0.168677 0.200686 -0.293397
N13   N     N_2   0.684275 0.533806 0.511810 -0.227314
N14   N     N_2   0.341582 0.672391 0.788388 -0.277168
N15   N     N_2   0.656614 0.667295 0.202865 -0.294452
N16   N     N_2   0.667928 0.806484 0.674182 -0.292082
N17   N     N_2   0.343182 0.812077 0.317662 -0.292742
N18   N     N_2   0.153476 0.318094 0.720788 -0.272879
N19   N     N_2   0.844803 0.312960 0.314654 -0.293934
N20   N     N_2   0.654195 0.901521 0.956290 -0.312108
O1    O     O_R   0.500010 0.939400 0.392680 -0.612853
O2    O     O_R   0.551740 0.000000 0.944400 -0.642146
O3    O     O_R   0.948260 0.500000 0.055600 -0.611099
O4    O     O_R   0.051740 0.500000 0.944400 -0.615505
O5    O     O_R   0.551720 0.892660 0.051710 -0.628374
O6    O     O_R   0.448280 0.892660 0.948290 -0.637620
O7    O     O_R   0.051720 0.392660 0.051710 -0.619259
O8    O     O_R   0.948280 0.392660 0.948290 -0.641014
O9    O     O_R   0.499990 0.060580 0.392690 -0.623681
O10   O     O_R   0.500010 0.060580 0.607310 -0.624564
O11   O     O_R   0.999990 0.560580 0.392690 -0.622896
O12   O     O_R   0.499990 0.939400 0.607320 -0.601205
O13   O     O_R   0.000010 0.560580 0.607310 -0.624222
O14   O     O_R   0.591620 0.939400 0.591620 -0.624261
O15   O     O_R   0.408380 0.939400 0.408380 -0.610451
O16   O     O_R   0.091620 0.439400 0.591620 -0.616167
O17   O     O_R   0.908380 0.439400 0.408380 -0.609732
O18   O     O_R   0.591600 0.060580 0.591620 -0.622937
O19   O     O_R   0.408400 0.060580 0.408380 -0.628753
O20   O     O_R   0.091600 0.560580 0.591620 -0.626491
O21   O     O_R   0.908400 0.560580 0.408380 -0.628756
O22   O     O_R   0.999970 0.107360 0.060570 -0.620344
O23   O     O_R   0.000010 0.439400 0.392680 -0.608364
O24   O     O_R   0.000030 0.107360 0.939430 -0.614407
O25   O     O_R   0.499970 0.607360 0.060570 -0.618443
O26   O     O_R   0.500030 0.607360 0.939430 -0.612268
O27   O     O_R   0.908370 0.000030 0.968970 -0.569905
O28   O     O_R   0.091630 0.000030 0.031030 -0.557106
O29   O     O_R   0.408370 0.500030 0.968970 -0.565396
O30   O     O_R   0.591630 0.500030 0.031030 -0.557341
O31   O     O_R   0.908380 0.000000 0.847800 -0.620692
O32   O     O_R   0.091620 0.000000 0.152200 -0.628629
O33   O     O_R   0.408380 0.500000 0.847800 -0.625792
O34   O     O_R   0.999990 0.439400 0.607320 -0.610619
O35   O     O_R   0.591620 0.500000 0.152200 -0.627446
O36   O     O_R   1.000000 0.892710 0.060610 -0.587659
O37   O     O_R   0.000000 0.892710 0.939390 -0.582371
O38   O     O_R   0.500000 0.392710 0.060610 -0.587321
O39   O     O_R   0.500000 0.392710 0.939390 -0.582405
O40   O     O_R   0.551710 0.107310 0.051740 -0.614762
O41   O     O_R   0.448290 0.107310 0.948260 -0.608982
O42   O     O_R   0.051710 0.607310 0.051740 -0.615938
O43   O     O_R   0.948290 0.607310 0.948260 -0.608594
O44   O     O_2   0.947745 0.264445 0.793488 -0.348510
O45   O     O_R   0.551700 0.999990 0.159040 -0.623943
O46   O     O_2   0.882901 0.299337 0.624391 -0.238454
O47   O     O_3   0.841810 0.324581 0.713138 -0.523132
O48   O     O_2   0.045513 0.258796 0.204675 -0.342973
O49   O     O_2   0.122475 0.301353 0.371046 -0.265431
O50   O     O_3   0.146559 0.316511 0.257219 -0.573075
O51   O     O_2   0.452308 0.753908 0.792256 -0.353352
O52   O     O_2   0.386262 0.790213 0.623455 -0.241450
O53   O     O_3   0.347918 0.816462 0.716012 -0.516881
O54   O     O_2   0.545121 0.754229 0.206783 -0.338608
O55   O     O_2   0.620563 0.797261 0.373371 -0.285271
O56   O     O_R   0.448300 0.999990 0.840960 -0.585881
O57   O     O_3   0.645866 0.814503 0.261347 -0.572442
O58   O     O_2   0.874022 0.850106 0.931812 -0.316257
O59   O     O_2   0.852200 0.922420 0.019933 -0.291944
O60   O     O_3   0.781235 0.813095 0.915619 -0.564901
O61   O     O_2   0.124852 0.855093 0.049887 -0.330368
O62   O     O_2   0.148515 0.939448 0.972940 -0.288122
O63   O     O_3   0.218270 0.827341 0.064186 -0.582962
O64   O     O_2   0.372663 0.356771 0.948384 -0.303654
O65   O     O_2   0.348255 0.438575 0.026355 -0.302272
O66   O     O_3   0.276283 0.328392 0.926230 -0.564041
O67   O     O_R   0.051700 0.499990 0.159040 -0.624939
O68   O     O_2   0.624899 0.355640 0.048482 -0.324282
O69   O     O_2   0.648535 0.440943 0.972276 -0.290924
O70   O     O_3   0.718423 0.328786 0.062713 -0.581597
O71   O     O_2   0.805356 0.896137 0.673741 -0.295196
O72   O     O_2   0.714337 0.933277 0.511961 -0.303209
O73   O     O_3   0.812792 0.899002 0.539949 -0.522136
O74   O     O_2   0.209321 0.895675 0.341160 -0.303273
O75   O     O_2   0.282988 0.937750 0.508879 -0.265492
O76   O     O_3   0.174657 0.895651 0.441342 -0.538652
O77   O     O_2   0.303221 0.389919 0.674089 -0.290438
O78   O     O_R   0.948300 0.499990 0.840960 -0.589404
O79   O     O_2   0.217637 0.424692 0.507393 -0.285878
O80   O     O_3   0.320893 0.388105 0.551922 -0.526420
O81   O     O_2   0.707902 0.393497 0.338551 -0.303649
O82   O     O_2   0.784064 0.433478 0.506840 -0.261329
O83   O     O_3   0.676299 0.392464 0.442921 -0.539703
O84   O     O_R   0.448260 0.000000 0.055600 -0.612047
S1    S     S_3+6 0.882548 0.268152 0.700370 0.049414
S2    S     S_3+6 0.216517 0.938054 0.418748 0.041141
S3    S     S_3+6 0.286036 0.429729 0.587486 0.049628
S4    S     S_3+6 0.717122 0.434971 0.418409 0.040169
S5    S     S_3+6 0.113248 0.264625 0.288526 0.002968
S6    S     S_3+6 0.386729 0.759062 0.700279 0.046747
S7    S     S_3+6 0.612603 0.761198 0.291598 -0.000128
S8    S     S_3+6 0.824043 0.883026 0.926925 0.030732
S9    S     S_3+6 0.175613 0.893061 0.060387 0.007003
S10   S     S_3+6 0.321688 0.394356 0.937153 0.032410
S11   S     S_3+6 0.675646 0.394058 0.059339 0.008496
S12   S     S_3+6 0.783249 0.938219 0.585592 0.042259
Zn1   Zn    Zn3+2 0.500000 0.919080 0.500000 0.961049
Zn2   Zn    Zn3+2 0.430940 0.999980 0.930930 0.996481
Zn3   Zn    Zn3+2 0.069060 0.499980 0.069070 0.961271
Zn4   Zn    Zn3+2 0.930940 0.499980 0.930930 0.994244
Zn5   Zn    Zn3+2 0.000000 0.419080 0.500000 0.961010
Zn6   Zn    Zn3+2 0.500000 0.080900 0.500000 0.963198
Zn7   Zn    Zn3+2 0.000000 0.580900 0.500000 0.964107
Zn8   Zn    Zn3+2 0.999980 0.000040 0.080910 1.086405
Zn9   Zn    Zn3+2 0.000020 0.000040 0.919090 1.095979
Zn10  Zn    Zn3+2 0.499980 0.500040 0.080910 1.090677
Zn11  Zn    Zn3+2 0.500020 0.500040 0.919090 1.093080
Zn12  Zn    Zn3+2 0.569060 0.999980 0.069070 0.956509

loop_
_geom_bond_atom_site_label_1
_geom_bond_atom_site_label_2
_ccdc_geom_bond_type
C20   H38   S    
C27   N2    S    
H101  O83   S    
C130  H14   S    
O27   Zn8   S    
O74   S2    D    
C20   N15   S    
C96   O30   A    
C92   C109  S    
C34   H103  S    
H84   N6    S    
C91   O22   A    
C63   H87   S    
C89   C94   S    
C35   C42   A    
C77   C122  S    
C110  H98   S    
C30   H83   S    
O35   Zn10  S    
H18   O47   S    
C42   C73   S    
C36   N10   S    
C55   N9    S    
C17   H24   S    
C99   O41   A    
C17   N1    S    
C4    N20   S    
C24   C41   A    
C27   H66   S    
C19   H35   S    
C12   C47   A    
C62   H76   S    
C32   H92   S    
C22   N17   S    
C85   C90   T    
C67   C85   S    
H58   N20   S    
C23   H50   S    
C6    C132  A    
C61   H65   S    
C92   O25   A    
C4    C130  A    
H89   N7    S    
C1    C82   S    
C37   N11   S    
O19   Zn6   S    
H31   N14   S    
C71   N14   S    
C6    C10   A    
O46   S1    D    
C68   C72   A    
C10   C113  A    
H97   O73   S    
C87   C103  S    
C21   H41   S    
O3    Zn4   S    
C125  C129  A    
C72   N15   S    
C36   H3    S    
C47   C126  S    
C31   H88   S    
O69   S11   D    
C102  O45   A    
H40   N16   S    
C106  O5    A    
C70   C79   A    
C3    C129  A    
C35   C122  A    
C84   C88   T    
C90   C105  S    
C112  H2    S    
C22   H47   S    
C33   H95   S    
C53   C58   A    
O57   S7    S    
C57   C61   A    
C106  C115  S    
C59   C63   A    
C113  H12   S    
O26   Zn11  S    
C60   C64   A    
O61   S9    D    
O47   S1    S    
C48   C127  S    
C113  C124  A    
H79   O70   S    
C51   C55   A    
C15   C49   A    
O76   S2    S    
O4    Zn3   S    
C127  C131  A    
O63   S9    S    
C99   C119  S    
C61   C65   A    
C27   H64   S    
C19   H33   S    
C54   C81   A    
C16   C111  A    
C30   H81   S    
C59   N13   S    
C97   O36   A    
C38   H11   S    
C69   C77   A    
C123  N17   S    
C23   H51   S    
C14   S9    S    
C56   O23   A    
C28   H69   S    
O62   S9    D    
O8    Zn4   S    
C110  C121  A    
C18   H29   S    
C1    O9    A    
O23   Zn5   S    
C15   S10   S    
C65   C70   A    
C29   H73   S    
C33   N8    S    
O75   S2    D    
C25   H55   S    
C29   N4    S    
C16   S11   S    
C131  H15   S    
C52   C79   A    
C17   H25   S    
C19   H34   S    
C31   H86   S    
C36   H107  S    
C9    H21   S    
C29   H72   S    
H106  N10   S    
C97   C117  S    
O30   Zn11  S    
C58   N11   S    
C45   C83   S    
O55   S7    D    
C98   O39   A    
C88   C104  S    
C98   C118  S    
C54   C59   A    
C45   O10   A    
C96   C111  S    
O1    Zn1   S    
O28   Zn9   S    
C62   C66   A    
O49   S5    D    
O48   S5    D    
C53   C80   A    
O41   Zn2   S    
C12   S8    S    
C14   C48   A    
H71   N4    S    
O59   S8    D    
H20   O53   S    
O14   Zn1   S    
C24   C81   S    
C5    C9    A    
C50   C129  S    
C8    C110  A    
H77   O63   S    
C39   N6    S    
C123  C127  A    
C73   O14   A    
C20   H39   S    
C64   C69   A    
C101  O42   A    
C37   H6    S    
C41   N8    S    
C38   H9    S    
H100  O80   S    
C35   N5    S    
C86   C102  S    
C70   N12   S    
C40   N7    S    
C49   C128  S    
C63   C68   A    
O43   Zn4   S    
C101  C120  S    
C114  H13   S    
O9    Zn6   S    
O84   Zn2   S    
H8    N13   S    
O24   Zn9   S    
O79   S3    D    
O42   Zn3   S    
C75   O20   A    
C66   S6    S    
C96   O35   A    
C25   H57   S    
C56   O11   A    
C69   N1    S    
C67   O34   A    
O71   S12   D    
C95   O29   A    
C107  C116  S    
O33   Zn11  S    
C68   S7    S    
C18   H28   S    
C25   N19   S    
C40   C44   A    
C26   N20   S    
H99   O76   S    
C107  O8    A    
O78   Zn4   S    
O7    Zn3   S    
O66   S10   S    
C58   C62   A    
C45   O12   A    
C83   C87   T    
C29   H74   S    
C15   C100  A    
H67   N3    S    
C76   O17   A    
C16   C50   A    
C3    C7    A    
O13   Zn7   S    
C126  C130  A    
C74   O15   A    
O73   S12   S    
C13   C40   A    
C2    C79   S    
C23   N18   S    
C7    N4    S    
C60   H54   S    
C31   N6    S    
O80   S3    S    
C5    N2    S    
C72   C81   A    
O31   Zn9   S    
C4    C8    A    
C124  C128  A    
O65   S10   D    
H93   N8    S    
C20   H37   S    
C13   C80   S    
C124  N18   S    
O37   Zn9   S    
C55   C60   A    
H102  N9    S    
C102  O84   A    
H22   O57   S    
C56   C84   S    
C106  O6    A    
C3    H17   S    
C32   N7    S    
C76   O21   A    
O6    Zn2   S    
C97   O37   A    
O60   S8    S    
C112  C123  A    
C22   H48   S    
C33   H94   S    
C117  C120  T    
C93   O27   A    
C26   H60   S    
C95   C100  S    
C94   O28   A    
H49   N18   S    
C82   C86   T    
C121  C126  A    
C43   C74   S    
C2    C89   A    
C7    C11   A    
C51   C77   A    
C14   C89   A    
C30   H82   S    
C66   C71   A    
O20   Zn7   S    
O40   Zn12  S    
C92   O26   A    
O53   S6    S    
C27   H63   S    
C32   H91   S    
O21   Zn7   S    
C125  N19   S    
O67   Zn3   S    
C91   C108  S    
H80   N5    S    
C53   S3    S    
C73   O18   A    
O72   S12   D    
C11   H43   S    
C28   H70   S    
C108  C116  T    
O34   Zn5   S    
O18   Zn6   S    
C18   H30   S    
C64   S1    S    
C105  O4    A    
C103  O2    A    
C34   N9    S    
O44   S1    D    
C104  O67   A    
O64   S10   D    
C52   C57   A    
C5    C131  A    
C38   N13   S    
C21   H42   S    
O82   S4    D    
C57   N10   S    
C26   H61   S    
H45   N17   S    
C31   H85   S    
O68   S11   D    
C44   C49   A    
C36   H108  S    
C54   S4    S    
C30   N5    S    
O58   S8    D    
C75   O16   A    
O32   Zn8   S    
O15   Zn1   S    
C22   H46   S    
C33   H96   S    
C34   H104  S    
C46   C76   S    
O52   S6    D    
C28   H68   S    
C95   O33   A    
H27   N12   S    
C78   C93   S    
O11   Zn7   S    
C51   S12   S    
C34   H105  S    
C11   C114  A    
C118  C119  T    
O50   S5    S    
C99   O40   A    
C2    C39   A    
H53   N19   S    
C18   N12   S    
C12   C78   A    
C41   C46   A    
H4    N11   S    
C104  O3    A    
C43   C48   A    
O36   Zn8   S    
O5    Zn12  S    
C37   H5    S    
O83   S4    S    
C38   H10   S    
C24   C111  A    
O39   Zn11  S    
O51   S6    D    
O56   Zn2   S    
C128  C132  A    
C71   C80   A    
O81   S4    D    
C74   O19   A    
C93   O31   A    
C132  H16   S    
C94   O32   A    
O25   Zn10  S    
O22   Zn8   S    
C114  C125  A    
C39   C43   A    
H36   N15   S    
C103  O56   A    
C67   O13   A    
C44   C75   S    
O54   S7    D    
C25   H56   S    
C19   N14   S    
C52   S2    S    
C21   H44   S    
C91   O24   A    
C17   H26   S    
O45   Zn12  S    
C1    O1    A    
C28   N3    S    
H78   O66   S    
C107  O7    A    
C6    N3    S    
C98   O38   A    
H23   N1    S    
C121  N16   S    
O16   Zn5   S    
C10   H32   S    
H62   N2    S    
C8    H1    S    
O2    Zn12  S    
C105  O78   A    
C32   H90   S    
O70   S11   S    
C26   H59   S    
C46   C50   A    
H75   O60   S    
C13   C100  A    
C65   S5    S    
O38   Zn10  S    
C23   H52   S    
C9    C112  A    
C21   N16   S    
C42   C47   A    
C78   C122  A    
C101  O43   A    
C109  C115  T    
O77   S3    D    
O12   Zn1   S    
O10   Zn6   S    
H19   O50   S    
C37   H7    S    
O29   Zn10  S    
O17   Zn5   S    
