data_mof_unit_33580.cif
_audit_creation_date              2012-12-11T18:04:55-0500
_audit_creation_method            fapswitch 2.2
_symmetry_space_group_name_H-M    P1
_symmetry_Int_Tables_number       1
_space_group_crystal_system       triclinic
_cell_length_a                    8.250948
_cell_length_b                    12.680491
_cell_length_c                    22.807001
_cell_angle_alpha                 96.57609
_cell_angle_beta                  89.058918
_cell_angle_gamma                 98.436925
_cell_volume                      2344.85337422

loop_
_atom_site_label
_atom_site_type_symbol
_atom_type_description
_atom_site_fract_x
_atom_site_fract_y
_atom_site_fract_z
_atom_type_partial_charge
Ba1   Ba    Ba6+2 0.856210 0.551220 0.472190 1.668827
Ba2   Ba    Ba6+2 0.333620 0.448870 0.527810 1.665837
C1    C     C_3   0.553215 0.911382 0.303913 0.192556
C2    C     C_R   0.081392 0.585590 0.942619 -0.027383
C3    C     C_R   0.037318 0.580531 0.882225 0.591294
C4    C     C_3   0.069536 0.789291 0.314284 0.694477
C5    C     C_R   0.996237 0.388072 0.874009 0.589901
C6    C     C_R   0.037678 0.390484 0.934184 -0.021973
C7    C     C_R   0.080365 0.489817 0.968686 -0.050834
C8    C     C_R   0.125190 0.684182 0.977822 -0.071759
C9    C     C_R   0.166957 0.687590 0.037421 -0.074154
C10   C     C_R   0.166191 0.592528 0.064033 -0.024876
C11   C     C_R   0.122343 0.493248 0.029473 -0.050606
C12   C     C_3   0.605212 0.821335 0.335211 0.340978
C13   C     C_R   0.037129 0.295372 0.960673 -0.074511
C14   C     C_R   0.077388 0.298721 0.020256 -0.068223
C15   C     C_R   0.120413 0.397287 0.055433 -0.029614
C16   C     C_3   0.041885 0.834143 0.256517 -0.301210
C17   C     C_R   0.162586 0.401887 0.115783 0.600443
C18   C     C_R   0.208381 0.594459 0.124282 0.588131
C19   C     C_2   0.799161 0.417911 0.767780 -0.090331
C20   C     C_3   0.764365 0.390309 0.702400 -0.070087
C21   C     C_1   0.007359 0.519954 0.685026 0.044270
C22   C     C_2   0.052634 0.529779 0.741616 -0.081082
C23   C     C_3   0.474341 0.268378 0.347522 0.272452
C24   C     C_2   0.943075 0.477015 0.786713 0.222441
C25   C     C_R   0.414457 0.548330 0.230075 -0.043368
C26   C     C_R   0.459680 0.552552 0.289635 0.019383
C27   C     C_R   0.190029 0.467995 0.313300 0.075032
C28   C     C_3   0.227003 0.781208 0.600007 0.286810
C29   C     C_R   0.142788 0.461113 0.253547 -0.031229
C30   C     C_R   0.254521 0.502967 0.211246 0.263524
C31   C     C_2   0.871591 0.459969 0.664022 -0.265093
C32   C     C_R   0.754563 0.181931 0.529830 -0.269389
C33   C     C_R   0.428880 0.812188 0.480690 -0.298467
C34   C     C_3   0.487668 0.230624 0.281861 0.165195
C35   C     C_R   0.400939 0.991596 0.463164 -0.104990
C36   C     C_R   0.337681 0.883592 0.460444 0.014065
C37   C     C_R   0.576216 0.849052 0.510085 0.063811
C38   C     C_R   0.638166 0.960449 0.517873 -0.055771
C39   C     C_R   0.549963 0.032124 0.492575 -0.070519
C40   C     C_3   0.234659 0.901571 0.615532 -0.352690
C41   C     C_R   0.612405 0.142394 0.497718 0.064660
C42   C     C_R   0.846257 0.112489 0.552418 -0.039183
C43   C     C_R   0.786809 0.002482 0.548081 -0.091025
C44   C     C_3   0.968255 0.224624 0.408077 0.273043
C45   C     C_3   0.965897 0.139358 0.685697 0.288385
C46   C     C_3   0.929203 0.103620 0.393902 -0.371203
C47   C     C_3   0.711887 0.685701 0.646010 0.293359
C48   C     C_3   0.732735 0.713458 0.712383 -0.358934
C49   C     C_3   0.006385 0.107727 0.745414 -0.293900
C50   C     C_3   0.494287 0.172433 0.684035 0.387603
C51   C     C_3   0.495003 0.098396 0.731926 -0.390500
C52   C     C_R   0.347292 0.513839 0.330538 -0.225690
H1    H     H_    0.693041 0.856777 0.371094 0.032072
H2    H     H_    0.826291 0.660833 0.627084 0.011647
H3    H     H_    0.609942 0.618470 0.637608 0.086860
H4    H     H_    0.503479 0.969377 0.337071 0.071112
H5    H     H_    0.840126 0.776690 0.722032 0.129622
H6    H     H_    0.751964 0.641397 0.733153 0.075822
H7    H     H_    0.621068 0.742943 0.731757 0.132951
H8    H     H_    0.492952 0.780045 0.355228 -0.101299
H9    H     H_    0.453898 0.878424 0.271618 0.046152
H10   H     H_    0.343939 0.273021 0.358758 0.007705
H11   H     H_    0.549161 0.348832 0.356995 0.035938
H12   H     H_    0.305043 0.927611 0.656931 0.114847
H13   H     H_    0.428557 0.145567 0.272399 0.082549
H14   H     H_    0.619125 0.234193 0.269668 0.124893
H15   H     H_    0.968305 0.771803 0.225694 0.137596
H16   H     H_    0.927569 0.220126 0.692216 0.023374
H17   H     H_    0.863610 0.078961 0.666602 -0.028507
H18   H     H_    0.108287 0.166104 0.766381 0.172930
H19   H     H_    0.896927 0.106585 0.774440 0.109339
H20   H     H_    0.043508 0.026423 0.739907 0.096093
H21   H     H_    0.621972 0.187728 0.667170 -0.123812
H22   H     H_    0.417082 0.130447 0.646656 0.083208
H23   H     H_    0.295567 0.945121 0.579980 0.078826
H24   H     H_    0.570929 0.140220 0.769761 0.125314
H25   H     H_    0.547787 0.025474 0.714284 0.075167
H26   H     H_    0.949445 0.761528 0.333096 0.111754
H27   H     H_    0.368266 0.074156 0.747428 0.128732
H28   H     H_    0.074946 0.223482 0.038690 0.125874
H29   H     H_    0.004930 0.217613 0.935377 0.120397
H30   H     H_    0.199876 0.765300 0.062684 0.122170
H31   H     H_    0.502002 0.581641 0.198783 0.083979
H32   H     H_    0.127282 0.759370 0.959373 0.123017
H33   H     H_    0.716877 0.378470 0.798845 0.097525
H34   H     H_    0.108838 0.922079 0.621891 0.130106
H35   H     H_    0.020386 0.424168 0.240126 0.092026
H36   H     H_    0.383267 0.519039 0.376334 0.057491
H37   H     H_    0.847294 0.445703 0.616954 0.074631
H38   H     H_    0.330022 0.042353 0.442748 0.119001
H39   H     H_    0.860136 0.951516 0.567144 0.098663
H40   H     H_    0.801951 0.266603 0.532667 0.054123
H41   H     H_    0.380644 0.727530 0.475912 0.071065
H42   H     H_    0.975921 0.904390 0.265419 0.124017
H43   H     H_    0.160800 0.860594 0.235363 0.117542
H44   H     H_    0.352376 0.762245 0.592057 0.008139
H45   H     H_    0.858113 0.257012 0.425680 0.010279
H46   H     H_    0.150336 0.756254 0.559811 0.054293
H47   H     H_    0.296201 0.270725 0.247719 0.317993
H48   H     H_    0.694791 0.925991 0.235818 0.327848
H49   H     H_    0.171003 0.574280 0.755369 0.112799
H50   H     H_    0.265710 0.729740 0.288172 0.282418
H51   H     H_    0.066446 0.242909 0.441715 0.085071
H52   H     H_    0.821083 0.083541 0.364458 0.176305
H53   H     H_    0.901337 0.065383 0.434711 0.087399
H54   H     H_    0.035562 0.071292 0.371918 0.149257
N1    N     N_R   0.993885 0.482362 0.848521 -0.423709
N2    N     N_R   0.206558 0.499733 0.149616 -0.431854
O1    O     O_2   0.890290 0.440320 0.360790 -0.454320
O2    O     O_2   0.180338 0.115696 0.539027 -0.486668
O3    O     O_3   0.105696 0.140981 0.649792 -0.581413
O4    O     O_3   0.130840 0.441440 0.431840 -0.499270
O5    O     O_3   0.574800 0.630800 0.528960 -0.490377
O6    O     O_2   0.344900 0.234690 0.472540 -0.472708
O7    O     O_3   0.532913 0.193149 0.378911 -0.675526
O8    O     O_2   0.463472 0.474456 0.708179 -0.484979
O9    O     O_3   0.428464 0.265349 0.707248 -0.560179
O10   O     O_2   0.035495 0.663568 0.860017 -0.595368
O11   O     O_2   0.963066 0.301504 0.844126 -0.623052
O12   O     O_3   0.677396 0.776406 0.621699 -0.642927
O13   O     O_2   0.162025 0.318592 0.137995 -0.577417
O14   O     O_2   0.245847 0.680610 0.154250 -0.607685
O15   O     O_3   0.672400 0.637930 0.395560 -0.486772
O16   O     O_2   0.802753 0.571427 0.291145 -0.468238
O17   O     O_3   0.017961 0.268305 0.356094 -0.636171
O18   O     O_3   0.681486 0.751857 0.294623 -0.640017
O19   O     O_2   0.844800 0.765340 0.527490 -0.474694
O20   O     O_3   0.090520 0.693800 0.424220 -0.455943
O21   O     O_2   0.999858 0.887284 0.455122 -0.506522
O22   O     O_3   0.415810 0.296355 0.247824 -0.745742
O23   O     O_3   0.154493 0.870748 0.353643 -0.673058
O24   O     O_3   0.686755 0.965827 0.275601 -0.735351
O25   O     O_3   0.156700 0.702164 0.303590 -0.739462
O26   O     O_2   0.299410 0.559720 0.639240 -0.456334
O27   O     O_3   0.058870 0.558650 0.568170 -0.501963
O28   O     O_3   0.517310 0.362160 0.604450 -0.467713
O29   O     O_3   0.160456 0.731070 0.648041 -0.631338
O30   O     O_3   0.614910 0.369290 0.471050 -0.475685
O31   O     O_3   0.099190 0.306290 0.575790 -0.463456
P1    P     P_3+3 0.057140 0.408270 0.369700 1.000735
P2    P     P_3+3 0.667360 0.749400 0.544670 0.969009
P3    P     P_3+3 0.140975 0.832998 0.425353 0.946261
P4    P     P_3+3 0.132580 0.591820 0.630310 0.989757
P5    P     P_3+3 0.054890 0.167542 0.579360 0.957897
P6    P     P_3+3 0.655991 0.623589 0.318098 0.955874
P7    P     P_3+3 0.528902 0.234590 0.454632 0.933943
P8    P     P_3+3 0.543929 0.377268 0.681146 0.980242

loop_
_geom_bond_atom_site_label_1
_geom_bond_atom_site_label_2
_ccdc_geom_bond_type
O9    P8    S    
C19   C24   D    
C19   H33   S    
H50   O25   S    
C16   H42   S    
C49   H20   S    
C44   H45   S    
C50   H21   S    
C43   H39   S    
O30   P7    S    
H48   O24   S    
C34   H13   S    
C12   O18   S    
C5    C6    A    
C42   C43   A    
Ba2   P4    S    
C21   P4    S    
C17   O13   D    
C35   C36   A    
C30   N2    S    
O7    P7    S    
C48   H5    S    
O4    P1    S    
O27   P4    S    
C51   H25   S    
Ba1   O15   S    
C52   H36   S    
C4    O23   S    
Ba1   O19   S    
C34   O22   S    
C46   H53   S    
C27   C52   A    
C47   O12   S    
C13   C14   A    
C12   H8    S    
C44   H51   S    
C28   H46   S    
C47   H3    S    
C51   H27   S    
Ba1   Ba2   S    
C25   H31   S    
C7    C11   A    
Ba1   P1    S    
O1    P1    D    
Ba2   O6    S    
C46   H52   S    
C6    C7    A    
C21   C31   D    
C42   P5    S    
C21   C22   D    
C41   P7    S    
C16   H43   S    
O20   P3    S    
O26   P4    D    
C1    H4    S    
C16   H15   S    
C12   H1    S    
C20   P8    S    
C19   C20   S    
C39   C41   A    
O12   P2    S    
C5    O11   D    
C44   C46   S    
O28   P8    S    
C38   C43   A    
C4    C16   S    
O5    P2    S    
C3    O10   D    
Ba2   O28   S    
C32   H40   S    
C44   O17   S    
C33   C36   A    
C32   C42   A    
Ba1   O20   S    
O15   P6    S    
C37   C38   A    
O6    P7    D    
C26   C52   A    
C14   C15   A    
C13   H29   S    
C29   H35   S    
Ba2   O26   S    
C5    N1    Am   
O17   P1    S    
O3    P5    S    
O8    P8    D    
C33   C37   A    
C50   O9    S    
C45   H16   S    
C4    O25   S    
Ba1   P2    S    
Ba2   O5    S    
C4    H26   S    
C29   C30   A    
C9    C10   A    
C10   C18   A    
C14   H28   S    
C23   H11   S    
C1    C12   S    
C24   N1    S    
C45   H17   S    
Ba1   O30   S    
O31   P5    S    
C18   N2    Am   
C38   C39   A    
C37   P2    S    
C6    C13   A    
C1    H9    S    
C40   H34   S    
Ba1   O4    S    
C2    C8    A    
Ba1   O27   S    
C50   C51   S    
C17   N2    Am   
C45   O3    S    
C20   C31   S    
O29   P4    S    
O23   P3    S    
C28   O29   S    
C35   H38   S    
C25   C30   A    
Ba2   O27   S    
C36   P3    S    
C32   C41   A    
C49   H19   S    
C22   C24   S    
C2    C3    A    
C50   H22   S    
C23   O7    S    
C45   C49   S    
O16   P6    D    
C34   H14   S    
O18   P6    S    
O19   P2    D    
C33   H41   S    
C9    H30   S    
C47   H2    S    
C28   H44   S    
C11   C15   A    
C1    O24   S    
C48   H6    S    
C22   H49   S    
C31   H37   S    
C51   H24   S    
Ba2   O30   S    
C27   C29   A    
Ba1   O1    S    
Ba2   O4    S    
C8    H32   S    
C46   H54   S    
C3    N1    Am   
C27   P1    S    
C15   C17   A    
O2    P5    D    
C35   C39   A    
C18   O14   D    
C8    C9    A    
C23   C34   S    
H47   O22   S    
C48   H7    S    
C10   C11   A    
C40   H23   S    
C47   C48   S    
C49   H18   S    
C25   C26   A    
C40   H12   S    
Ba2   O31   S    
C28   C40   S    
Ba1   O5    S    
C2    C7    A    
C23   H10   S    
O21   P3    D    
C26   P6    S    
