data_mof_unit_16593.cif
_audit_creation_date              2012-12-10T18:50:51-0500
_audit_creation_method            fapswitch 2.2
_symmetry_space_group_name_H-M    P1
_symmetry_Int_Tables_number       1
_space_group_crystal_system       triclinic
_cell_length_a                    10.631797
_cell_length_b                    9.852214
_cell_length_c                    15.771074
_cell_angle_alpha                 89.912141
_cell_angle_beta                  90.032476
_cell_angle_gamma                 89.963
_cell_volume                      1651.96602297

loop_
_atom_site_label
_atom_site_type_symbol
_atom_type_description
_atom_site_fract_x
_atom_site_fract_y
_atom_site_fract_z
_atom_type_partial_charge
C1    C     C_R   0.260338 0.500036 0.499988 0.848626
C2    C     C_R   0.933284 0.548524 0.571819 0.372535
C3    C     C_R   0.871577 0.499885 0.499982 -0.182147
C4    C     C_R   0.127427 0.500087 0.499960 -0.255958
C5    C     C_R   0.578907 0.071717 0.552114 -0.031179
C6    C     C_R   0.578905 0.927901 0.552119 -0.041616
C7    C     C_R   0.500006 0.500091 0.338425 0.900268
C8    C     C_R   0.421018 0.928283 0.447844 -0.022065
C9    C     C_R   0.421008 0.072109 0.447845 -0.033369
C10   C     C_R   0.739421 0.499960 0.499971 1.046864
C11   C     C_R   0.500175 0.499924 0.661607 0.905015
C12   C     C_3   0.627939 0.559499 0.952029 -0.172772
C13   C     C_3   0.377453 0.590700 0.048272 -0.077853
C14   C     C_3   0.485098 0.346998 0.049510 -0.213386
C15   C     C_3   0.478543 0.353558 0.949410 0.312035
C16   C     C_3   0.389504 0.597446 0.948557 0.093639
C17   C     C_1   0.499468 0.499984 0.750124 -0.108444
C18   C     C_3   0.491310 0.499951 0.083035 -0.036309
C19   C     C_3   0.498364 0.502601 0.916983 0.001505
C20   C     C_2   0.250706 0.533651 0.076823 0.377989
C21   C     C_2   0.376713 0.266441 0.088537 0.452749
C22   C     C_2   0.602156 0.267924 0.077193 0.386225
C23   C     C_3   0.617162 0.565381 0.051309 -0.459510
C24   C     C_2   0.378223 0.737556 0.080646 0.538794
C25   C     C_2   0.657482 0.699152 0.913804 0.477556
C26   C     C_2   0.737646 0.467527 0.927143 0.381334
C27   C     C_2   0.135675 0.384546 0.357059 0.475759
C28   C     C_2   0.135575 0.615532 0.642896 0.471139
C29   C     C_1   0.498921 0.500917 0.825193 0.047575
C30   C     C_1   0.494137 0.500381 0.174910 0.033092
C31   C     C_1   0.497145 0.500278 0.249950 -0.090149
C32   C     C_R   0.064326 0.445793 0.428960 -0.124095
C33   C     C_R   0.064299 0.554246 0.570976 -0.117993
C34   C     C_R   0.933289 0.451319 0.428136 0.384259
H1    H     H_    0.357877 0.874009 0.406134 0.156110
H2    H     H_    0.294639 0.334227 0.941438 0.380284
H3    H     H_    0.192939 0.472661 0.035117 0.143402
H4    H     H_    0.328015 0.303014 0.144373 0.086945
H5    H     H_    0.659039 0.302438 0.130048 0.084200
H6    H     H_    0.318630 0.812138 0.049520 0.108154
H7    H     H_    0.664170 0.709765 0.845419 0.107042
H8    H     H_    0.786993 0.407305 0.974254 0.107619
H9    H     H_    0.227732 0.423264 0.340015 0.059415
H10   H     H_    0.227755 0.576946 0.659933 0.042844
H11   H     H_    0.910886 0.432135 0.306302 0.369586
H12   H     H_    0.357841 0.126700 0.406149 0.151849
H13   H     H_    0.910962 0.567626 0.693657 0.386826
H14   H     H_    0.556767 0.292295 0.922583 0.190467
H15   H     H_    0.416283 0.703041 0.929858 0.118324
H16   H     H_    0.623373 0.670486 0.075458 0.286864
H17   H     H_    0.699477 0.516829 0.082456 0.153831
H18   H     H_    0.642050 0.125987 0.593822 0.150960
H19   H     H_    0.642049 0.873324 0.593827 0.163909
H20   H     H_    0.272725 0.619605 0.853207 0.366258
N1    N     N_R   0.499970 0.857200 0.499980 -0.097683
N2    N     N_R   0.499970 0.142800 0.499980 -0.094059
O1    O     O_R   0.316750 0.614620 0.499990 -0.618970
O2    O     O_3   0.369576 0.294084 0.914353 -0.669806
O3    O     O_2   0.213479 0.550621 0.149388 -0.577693
O4    O     O_2   0.349260 0.153787 0.061975 -0.467131
O5    O     O_2   0.629079 0.159251 0.044578 -0.466110
O6    O     O_2   0.439637 0.773489 0.142085 -0.528261
O7    O     O_2   0.675149 0.799897 0.957243 -0.512542
O8    O     O_2   0.770655 0.457183 0.853216 -0.557569
O9    O     O_2   0.094328 0.287197 0.318175 -0.529771
O10   O     O_2   0.093995 0.712747 0.681823 -0.526315
O11   O     O_3   0.862239 0.413444 0.358522 -0.737014
O12   O     O_R   0.316750 0.385380 0.499990 -0.620806
O13   O     O_3   0.862251 0.586360 0.641425 -0.730854
O14   O     O_R   0.499990 0.614720 0.377140 -0.597137
O15   O     O_R   0.499990 0.385280 0.377140 -0.621703
O16   O     O_R   0.683220 0.614710 0.500000 -0.603807
O17   O     O_R   0.683220 0.385290 0.500000 -0.600904
O18   O     O_R   0.499980 0.614620 0.622860 -0.621844
O19   O     O_R   0.499980 0.385380 0.622860 -0.606558
O20   O     O_3   0.274469 0.568710 0.907613 -0.770664
Zn1   Zn    Zn3+2 0.499980 0.653120 0.500000 1.001769
Zn2   Zn    Zn3+2 0.499980 0.346880 0.500000 1.000427

loop_
_geom_bond_atom_site_label_1
_geom_bond_atom_site_label_2
_ccdc_geom_bond_type
C17   C29   T    
C14   C18   S    
C5    N2    A    
C6    N1    A    
C7    O14   A    
C15   C19   S    
C12   C23   S    
C13   C18   S    
C14   C21   S    
H2    O2    S    
C7    O15   A    
C30   C31   T    
N1    Zn1   S    
C10   O17   A    
C1    O12   A    
N2    Zn2   S    
C25   O7    D    
C26   O8    D    
H13   O13   S    
C21   H4    S    
C8    C9    A    
O18   Zn1   S    
H11   O11   S    
O17   Zn2   S    
C5    H18   S    
C18   C30   S    
C2    O13   S    
C9    H12   S    
O14   Zn1   S    
C15   H14   S    
C8    N1    A    
O12   Zn2   S    
C7    C31   S    
C18   C23   S    
O1    Zn1   S    
C16   H15   S    
C21   O4    D    
C25   H7    S    
C23   H16   S    
C3    C34   A    
C28   H10   S    
C13   C24   S    
C12   C26   S    
C8    H1    S    
C32   C34   A    
C28   O10   D    
O16   Zn1   S    
C27   O9    D    
C1    O1    A    
C23   H17   S    
C9    N2    A    
C20   O3    D    
C4    C32   A    
H20   O20   S    
C2    C33   A    
C28   C33   S    
C15   O2    S    
C6    H19   S    
C19   C29   S    
C26   H8    S    
C4    C33   A    
C11   C17   S    
C24   O6    D    
C13   C20   S    
C27   C32   S    
C16   O20   S    
C11   O18   A    
C34   O11   S    
C12   C25   S    
C1    C4    S    
C14   C22   S    
C2    C3    A    
C3    C10   S    
C11   O19   A    
C22   O5    D    
C20   H3    S    
C5    C6    A    
C16   C19   S    
C22   H5    S    
C12   C19   S    
C24   H6    S    
O19   Zn2   S    
C27   H9    S    
C13   C16   S    
C14   C15   S    
O15   Zn2   S    
C10   O16   A    
