data_mof_unit_6737.cif
_audit_creation_date              2012-12-11T14:03:37-0500
_audit_creation_method            fapswitch 2.2
_symmetry_space_group_name_H-M    P1
_symmetry_Int_Tables_number       1
_space_group_crystal_system       triclinic
_cell_length_a                    6.979305
_cell_length_b                    11.395938
_cell_length_c                    18.891664
_cell_angle_alpha                 89.965441
_cell_angle_beta                  92.782703
_cell_angle_gamma                 89.942093
_cell_volume                      1500.78938251

loop_
_atom_site_label
_atom_site_type_symbol
_atom_type_description
_atom_site_fract_x
_atom_site_fract_y
_atom_site_fract_z
_atom_type_partial_charge
O1    O     O_R   0.330540 0.606360 0.598870 -0.540955
O2    O     O_R   0.669460 0.106360 0.401130 -0.541022
O3    O     O_R   0.026770 0.620470 0.750430 -0.543638
O4    O     O_R   0.973230 0.120470 0.249570 -0.546114
O5    O     O_R   0.856460 0.393640 0.750930 -0.525075
O6    O     O_R   0.143540 0.893640 0.249070 -0.531092
C1    C     C_R   0.198409 0.645764 0.775155 0.713001
C2    C     C_R   0.801566 0.145008 0.224383 0.710334
O7    O     O_R   0.000920 0.620350 0.599420 -0.551325
O8    O     O_R   0.999080 0.120350 0.400580 -0.550774
O9    O     O_R   0.830430 0.393520 0.598850 -0.540866
O10   O     O_R   0.169570 0.893520 0.401150 -0.539740
C3    C     C_R   0.166802 0.647790 0.574621 0.752387
C4    C     C_R   0.833129 0.147767 0.425370 0.753533
O11   O     O_R   0.356570 0.606480 0.750960 -0.541755
O12   O     O_R   0.643430 0.106480 0.249040 -0.539416
O13   O     O_3   0.176990 0.425580 0.674890 -0.362632
O14   O     O_3   0.823010 0.925580 0.325110 -0.362480
V1    V     V_3+5 0.902170 0.513810 0.674910 1.440702
V2    V     V_3+5 0.097830 0.013810 0.325090 1.436370
O15   O     O_R   0.500800 0.379530 0.599380 -0.550666
O16   O     O_R   0.499200 0.879530 0.400620 -0.551222
C5    C     C_R   0.666766 0.352104 0.574606 0.752293
C6    C     C_R   0.333304 0.852086 0.425405 0.753996
O17   O     O_R   0.526650 0.379650 0.750390 -0.531410
O18   O     O_R   0.473350 0.879650 0.249610 -0.528476
C7    C     C_R   0.699220 0.352253 0.773969 0.727825
C8    C     C_R   0.302525 0.854103 0.225110 0.728333
V3    V     V_3+5 0.402160 0.486190 0.674900 1.454355
V4    V     V_3+5 0.597840 0.986190 0.325100 1.455917
O19   O     O_3   0.677210 0.574420 0.674910 -0.382088
O20   O     O_3   0.322790 0.074420 0.325090 -0.382138
C9    C     C_R   0.764851 0.074123 0.875884 0.169881
C10   C     C_R   0.314114 0.576400 0.122185 0.169449
H1    H     H_    0.759805 0.126106 0.766544 0.104707
H2    H     H_    0.356923 0.627801 0.231003 0.106274
H3    H     H_    0.744951 0.938920 0.989995 0.153474
H4    H     H_    0.236323 0.441897 0.009914 0.153533
C11   C     C_R   0.720187 0.273138 0.834623 -0.026062
C12   C     C_R   0.291702 0.775544 0.164164 -0.030866
C13   C     C_R   0.807574 0.343271 0.179613 -0.217206
C14   C     C_R   0.233879 0.844210 0.818258 -0.219562
C15   C     C_R   0.828595 0.424304 0.126110 -0.004990
C16   C     C_R   0.279557 0.925468 0.870652 -0.003435
C17   C     C_R   0.829661 0.387140 0.056061 -0.232596
C18   C     C_R   0.310154 0.888687 0.940495 -0.232918
C19   C     C_R   0.779694 0.271051 0.036082 0.079485
C20   C     C_R   0.265599 0.773301 0.962135 0.079079
C21   C     C_R   0.770429 0.185538 0.091479 0.028692
C22   C     C_R   0.228813 0.687690 0.907590 0.028769
C23   C     C_R   0.752626 0.236108 0.962905 0.040717
C24   C     C_R   0.269065 0.738879 0.035734 0.041267
C25   C     C_R   0.756594 0.113736 0.946831 0.083390
C26   C     C_R   0.275488 0.616396 0.051866 0.086013
C27   C     C_R   0.750892 0.032004 0.001615 -0.251255
C28   C     C_R   0.241229 0.534816 0.997869 -0.251691
C29   C     C_R   0.751793 0.065413 0.072097 -0.111425
C30   C     C_R   0.211839 0.568040 0.927726 -0.108848
C31   C     C_R   0.716966 0.315924 0.904759 0.105790
C32   C     C_R   0.261513 0.819051 0.094365 0.105633
C33   C     C_R   0.752926 0.155347 0.820998 -0.166287
C34   C     C_R   0.327136 0.657393 0.176987 -0.164055
C35   C     C_R   0.787359 0.224409 0.163665 -0.094426
C36   C     C_R   0.216409 0.725826 0.835268 -0.094561
H5    H     H_    0.814593 0.372303 0.234400 0.107628
H6    H     H_    0.217504 0.872732 0.763457 0.107655
H7    H     H_    0.875877 0.450343 0.018521 0.150569
H8    H     H_    0.375519 0.951492 0.976208 0.150604
C37   C     C_2   0.831403 0.233467 0.484604 -0.344345
C38   C     C_2   0.168536 0.733523 0.515365 -0.343260
H9    H     H_    0.968257 0.269906 0.503529 0.150335
H10   H     H_    0.031665 0.770055 0.496368 0.150033
C39   C     C_2   0.668512 0.266384 0.515384 -0.343231
C40   C     C_2   0.331553 0.766343 0.484656 -0.343437
H11   H     H_    0.531660 0.229944 0.496459 0.149669
H12   H     H_    0.468423 0.729812 0.503653 0.149292
C41   C     C_3   0.786210 0.945937 0.856991 -0.785969
H13   H     H_    0.907795 0.906847 0.888373 0.223039
H14   H     H_    0.655710 0.896554 0.869033 0.216904
H15   H     H_    0.812153 0.933202 0.799955 0.208318
C42   C     C_3   0.342156 0.448026 0.140496 -0.786153
H16   H     H_    0.206364 0.399282 0.131760 0.216972
H17   H     H_    0.449372 0.408558 0.106454 0.221977
H18   H     H_    0.392679 0.435052 0.196623 0.208705
C43   C     C_3   0.657699 0.442983 0.914014 -0.776392
H19   H     H_    0.554426 0.472152 0.871583 0.213852
H20   H     H_    0.582096 0.455865 0.963406 0.220040
H21   H     H_    0.783581 0.501788 0.911097 0.198073
C44   C     C_3   0.208613 0.947864 0.086215 -0.779414
H22   H     H_    0.127672 0.980889 0.130759 0.214994
H23   H     H_    0.339804 0.002565 0.085506 0.197566
H24   H     H_    0.111722 0.963089 0.039139 0.221287
C45   C     C_1   0.849031 0.546612 0.143306 0.308925
N1    N     N_1   0.864156 0.644949 0.157351 -0.324642
C46   C     C_1   0.292468 0.047755 0.852699 0.309384
N2    N     N_1   0.300852 0.146089 0.838126 -0.325859
C47   C     C_1   0.751503 0.969070 0.121434 0.267847
N3    N     N_1   0.755807 0.889894 0.159646 -0.266550
C48   C     C_1   0.182257 0.471526 0.879173 0.265199
N4    N     N_1   0.163382 0.391938 0.841668 -0.271742

loop_
_geom_bond_atom_site_label_1
_geom_bond_atom_site_label_2
_ccdc_geom_bond_type
C45   N1    T    
C21   C35   A    
O11   V3    S    
C22   C36   A    
C46   N2    T    
O4    C2    A    
V1    O19   S    
C42   H16   S    
C21   C29   A    
C19   C21   A    
C41   H13   S    
O9    V1    S    
C40   H12   S    
C12   C32   A    
O3    C1    A    
C41   H15   S    
C3    C38   S    
C8    C12   S    
O12   V4    S    
C10   C34   A    
C12   C34   A    
C17   C19   A    
C37   H9    S    
O7    C3    A    
C24   C32   A    
O13   V1    S    
O5    C7    A    
O7    V1    S    
O6    C8    A    
C7    C11   S    
C38   C40   D    
O3    V1    S    
O14   V4    S    
C10   C42   S    
C44   H23   S    
C43   H20   S    
C29   C47   S    
C2    O12   A    
O17   V3    S    
C13   C15   A    
C14   C16   A    
C5    C39   S    
H2    C34   S    
C42   H17   S    
C24   C26   A    
C47   N3    T    
C18   C20   A    
C25   C27   A    
C9    C25   A    
C11   C33   A    
C26   C28   A    
C22   C30   A    
O8    C4    A    
O8    V2    S    
C19   C23   A    
C1    O11   A    
C16   C18   A    
C43   H19   S    
O15   V3    S    
C23   C25   A    
H3    C27   S    
O1    C3    A    
C31   C43   S    
C18   H8    S    
C48   N4    T    
C11   C31   A    
O10   V2    S    
O1    V3    S    
C41   H14   S    
H1    C33   S    
C44   H24   S    
C37   C39   D    
C20   C22   A    
C15   C17   A    
C10   C26   A    
O15   C5    A    
C4    C37   S    
O16   C6    A    
C23   C31   A    
C39   H11   S    
C14   C36   A    
C42   H18   S    
V2    O20   S    
C43   H21   S    
C32   C44   S    
O16   V4    S    
C30   C48   S    
C13   H5    S    
C6    C40   S    
O18   V4    S    
C17   H7    S    
O5    V1    S    
O17   C7    A    
O6    V2    S    
O10   C6    A    
O18   C8    A    
O2    V4    S    
C27   C29   A    
V3    O19   S    
C16   C46   S    
O13   V3    S    
V4    O20   S    
C9    C41   S    
O9    C5    A    
C15   C45   S    
C28   C30   A    
O14   V2    S    
O2    C4    A    
C1    C36   S    
C2    C35   S    
O4    V2    S    
C20   C24   A    
H4    C28   S    
C9    C33   A    
C14   H6    S    
C13   C35   A    
C38   H10   S    
C44   H22   S    
