data_mof_unit_38701.cif
_audit_creation_date              2012-12-10T18:46:21-0500
_audit_creation_method            fapswitch 2.2
_symmetry_space_group_name_H-M    P1
_symmetry_Int_Tables_number       1
_space_group_crystal_system       triclinic
_cell_length_a                    9.916347
_cell_length_b                    10.718674
_cell_length_c                    13.070457
_cell_angle_alpha                 90.998986
_cell_angle_beta                  69.433533
_cell_angle_gamma                 90.064146
_cell_volume                      1300.49968743

loop_
_atom_site_label
_atom_site_type_symbol
_atom_type_description
_atom_site_fract_x
_atom_site_fract_y
_atom_site_fract_z
_atom_type_partial_charge
C1    C     C_R   0.499287 0.739927 0.501769 0.904946
C2    C     C_R   0.438308 0.499344 0.982689 0.116098
C3    C     C_R   0.453793 0.451522 0.878164 0.074444
C4    C     C_R   0.546578 0.471665 0.026494 0.055026
C5    C     C_R   0.643554 0.371282 0.979591 0.147799
C6    C     C_R   0.646836 0.314530 0.882054 -0.226450
C7    C     C_R   0.555840 0.356472 0.830193 -0.186129
C8    C     C_R   0.560081 0.537653 0.116826 -0.076791
C9    C     C_R   0.719020 0.373940 0.135279 -0.167577
C10   C     C_R   0.366638 0.500258 0.823605 -0.111910
C11   C     C_R   0.621689 0.936203 0.503128 -0.190014
C12   C     C_R   0.419305 0.497652 0.704530 0.840221
C13   C     C_R   0.620831 0.063935 0.504967 -0.177278
C14   C     C_R   0.495959 0.127663 0.509455 -0.030825
C15   C     C_R   0.368961 0.063991 0.519803 -0.168513
C16   C     C_R   0.369676 0.936134 0.517910 -0.170860
C17   C     C_R   0.496989 0.872516 0.507213 -0.010743
C18   C     C_R   0.963931 0.434281 0.422041 -0.023532
C19   C     C_R   0.106976 0.431937 0.423233 -0.017446
C20   C     C_R   0.036301 0.567131 0.576681 -0.096404
C21   C     C_R   0.892836 0.566451 0.577091 -0.077738
C22   C     C_R   0.498670 0.260120 0.502805 0.862147
C23   C     C_R   0.580411 0.498982 0.295671 0.952448
C24   C     C_R   0.732657 0.325978 0.032953 -0.195375
C25   C     C_R   0.630948 0.477908 0.178439 -0.114380
C26   C     C_R   0.243652 0.570717 0.881566 -0.203191
C27   C     C_R   0.213413 0.599599 0.991604 -0.111310
C28   C     C_R   0.311323 0.566934 0.041493 -0.044464
H1    H     H_    0.174182 0.607079 0.840918 0.155184
H2    H     H_    0.285057 0.592850 0.126582 0.167298
H3    H     H_    0.117405 0.652445 0.037002 0.160502
N1    N     N_R   0.142790 0.500030 0.500030 -0.119346
N2    N     N_R   0.857180 0.499940 0.500010 -0.122869
O1    O     O_R   0.385370 0.683250 0.500010 -0.609030
O2    O     O_R   0.614700 0.683220 0.500010 -0.627927
O3    O     O_R   0.328400 0.499990 0.653620 -0.621869
O4    O     O_R   0.557730 0.499960 0.653620 -0.615563
O5    O     O_R   0.385300 0.316780 0.499990 -0.601863
O6    O     O_R   0.614630 0.316750 0.499990 -0.611918
O7    O     O_R   0.442270 0.500040 0.346380 -0.579843
O8    O     O_R   0.671600 0.500010 0.346380 -0.602510
Zn1   Zn    Zn3+2 0.346870 0.500020 0.500000 0.986013
Zn2   Zn    Zn3+2 0.653130 0.499980 0.500000 0.974540
H4    H     H_    0.770155 0.324954 0.183221 0.179483
H5    H     H_    0.718167 0.112035 0.501656 0.212033
H6    H     H_    0.269671 0.112320 0.528573 0.205909
H7    H     H_    0.271260 0.887647 0.524072 0.165684
C29   C     C_2   0.932639 0.367341 0.334110 0.950516
O9    O     O_2   0.960460 0.416657 0.245510 -0.634701
O10   O     O_R   0.885852 0.243934 0.348781 -0.818777
H8    H     H_    0.877925 0.204142 0.280277 0.326434
C30   C     C_2   0.215207 0.353004 0.341436 0.969041
O11   O     O_2   0.270231 0.388774 0.247700 -0.649102
O12   O     O_R   0.244044 0.233231 0.368605 -0.807887
H9    H     H_    0.317751 0.187146 0.305057 0.340529
H10   H     H_    0.061716 0.621089 0.638200 0.131376
H11   H     H_    0.810619 0.619983 0.638997 0.149594
H12   H     H_    0.720648 0.238262 0.845343 0.151191
H13   H     H_    0.803187 0.246594 0.000142 0.148679
C31   C     C_2   0.522371 0.673353 0.136522 0.857467
O13   O     O_2   0.494172 0.721259 0.227291 -0.627488
O14   O     O_R   0.525720 0.747834 0.048798 -0.810870
H14   H     H_    0.499692 0.838118 0.071511 0.348838
H15   H     H_    0.561712 0.310229 0.754405 0.160041
H16   H     H_    0.720142 0.887898 0.497244 0.169015

loop_
_geom_bond_atom_site_label_1
_geom_bond_atom_site_label_2
_ccdc_geom_bond_type
O4    Zn2   S    
C2    C4    A    
C9    C24   A    
C21   H11   S    
C6    C7    A    
C8    C31   S    
C12   O3    A    
O8    Zn2   S    
C6    H12   S    
C1    C17   S    
O1    Zn1   S    
C4    C8    A    
C20   H10   S    
C10   C26   A    
C28   H2    S    
O10   H8    S    
C23   O8    A    
C9    C25   A    
C3    C10   A    
C13   C14   A    
C30   O11   D    
C2    C28   A    
C13   H5    S    
C8    C25   A    
C11   C13   A    
C14   C22   S    
C26   C27   A    
O14   H14   S    
C5    C24   A    
C10   C12   S    
C24   H13   S    
C22   O6    A    
C16   H7    S    
C29   O10   S    
C29   O9    D    
C30   O12   S    
C1    O1    A    
C2    C3    A    
C3    C7    A    
C23   C25   S    
N1    Zn1   S    
C5    C6    A    
C18   N2    A    
C7    H15   S    
C21   N2    A    
C19   N1    A    
C27   H3    S    
C15   C16   A    
C22   O5    A    
O5    Zn1   S    
C11   H16   S    
C12   O4    A    
O2    Zn2   S    
C20   C21   A    
C1    O2    A    
C26   H1    S    
C31   O14   S    
C18   C19   A    
C20   N1    A    
C27   C28   A    
O7    Zn1   S    
C14   C15   A    
C31   O13   D    
C9    H4    S    
O6    Zn2   S    
C15   H6    S    
O12   H9    S    
C4    C5    A    
O3    Zn1   S    
C19   C30   S    
C11   C17   A    
C23   O7    A    
C18   C29   S    
C16   C17   A    
N2    Zn2   S    
