data_mof_unit_60537.cif
_audit_creation_date              2012-12-10T17:00:05-0500
_audit_creation_method            fapswitch 2.2
_symmetry_space_group_name_H-M    P1
_symmetry_Int_Tables_number       1
_space_group_crystal_system       triclinic
_cell_length_a                    13.043547
_cell_length_b                    13.089675
_cell_length_c                    16.086391
_cell_angle_alpha                 80.448308
_cell_angle_beta                  100.252191
_cell_angle_gamma                 90.766573
_cell_volume                      2664.83302069

loop_
_atom_site_label
_atom_site_type_symbol
_atom_type_description
_atom_site_fract_x
_atom_site_fract_y
_atom_site_fract_z
_atom_type_partial_charge
C1    C     C_R   0.461612 0.777499 0.469874 0.541186
C2    C     C_2   0.051378 0.553750 0.460963 0.280385
C3    C     C_2   0.891136 0.551417 0.527279 -0.048963
C4    C     C_R   0.535154 0.222258 0.530073 0.530869
C5    C     C_2   0.935957 0.553359 0.456098 -0.064392
C6    C     C_R   0.777716 0.534987 0.522492 0.447662
C7    C     C_R   0.221825 0.468201 0.476480 0.593739
C8    C     C_R   0.515751 0.487705 0.726948 0.537312
C9    C     C_R   0.484286 0.512298 0.272995 0.509092
C10   C     C_1   0.523493 0.481792 0.817529 0.057756
C11   C     C_2   0.539514 0.470588 0.985246 0.052446
C12   C     C_1   0.473879 0.519917 0.106934 0.022152
C13   C     C_2   0.469250 0.523079 0.015717 0.264930
C14   C     C_2   0.058414 0.360915 0.489050 0.230675
C15   C     C_2   0.627409 0.405601 0.039329 0.220169
C16   C     C_2   0.460288 0.885774 0.619151 0.242226
C17   C     C_2   0.346626 0.107075 0.484077 0.346272
C18   C     C_2   0.643938 0.056694 0.556433 0.239859
C19   C     C_2   0.872523 0.561088 0.368460 0.254533
C20   C     C_2   0.951575 0.560195 0.613618 0.245405
C21   C     C_1   0.530600 0.476720 0.893775 0.000914
C22   C     C_1   0.478121 0.516887 0.182705 0.060941
C23   C     C_2   0.539547 0.108876 0.534180 -0.031915
C24   C     C_2   0.450280 0.054704 0.516705 -0.058563
C25   C     C_2   0.444401 0.890920 0.459969 0.279867
C26   C     C_2   0.452918 0.939800 0.529164 0.030238
C27   C     C_2   0.107707 0.464034 0.473705 0.081042
H1    H     H_    0.347190 0.613845 0.991003 0.340200
H2    H     H_    0.912574 0.547379 0.668624 0.135773
H3    H     H_    0.976258 0.354574 0.492597 0.133569
H4    H     H_    0.679160 0.366391 0.008448 0.124670
H5    H     H_    0.493158 0.925986 0.671335 0.115896
H6    H     H_    0.339890 0.190067 0.462395 0.120385
H7    H     H_    0.425063 0.903664 0.336070 0.340238
H8    H     H_    0.652340 0.974545 0.555634 0.110008
H9    H     H_    0.790214 0.581183 0.356000 0.132605
H10   H     H_    0.048599 0.703951 0.441770 0.354116
O1    O     O_3   0.500000 0.500000 0.500000 -0.467546
O2    O     O_R   0.564890 0.556920 0.685230 -0.512713
O3    O     O_R   0.419250 0.562810 0.301190 -0.543790
O4    O     O_R   0.461010 0.422870 0.688230 -0.521933
O5    O     O_R   0.554850 0.457400 0.325340 -0.517641
O6    O     O_3   0.391256 0.580887 0.958214 -0.659341
O7    O     O_2   0.109522 0.281226 0.497383 -0.437893
O8    O     O_2   0.643768 0.394665 0.117420 -0.464820
O9    O     O_2   0.424611 0.799673 0.636188 -0.442458
O10   O     O_2   0.266819 0.056867 0.480026 -0.402813
O11   O     O_3   0.424159 0.949934 0.378883 -0.676874
O12   O     O_R   0.732880 0.470090 0.478000 -0.539358
O13   O     O_2   0.722406 0.105594 0.576052 -0.446805
O14   O     O_2   0.912810 0.547094 0.308207 -0.452149
O15   O     O_3   0.101515 0.647642 0.450564 -0.611354
O16   O     O_2   0.043500 0.582913 0.624792 -0.450714
O17   O     O_R   0.260330 0.535210 0.424090 -0.484424
O18   O     O_R   0.533020 0.732860 0.528350 -0.527841
O19   O     O_R   0.473780 0.261850 0.569570 -0.559123
O20   O     O_R   0.406490 0.723840 0.419860 -0.519039
O21   O     O_R   0.586720 0.281460 0.482230 -0.488200
O22   O     O_R   0.723810 0.584530 0.562340 -0.541763
O23   O     O_R   0.282980 0.410180 0.535580 -0.510431
Zn1   Zn    Zn3+2 0.592010 0.428480 0.447310 0.989509
Zn2   Zn    Zn3+2 0.579060 0.591980 0.567800 0.992149
Zn3   Zn    Zn3+2 0.430650 0.400450 0.572090 1.007772
Zn4   Zn    Zn3+2 0.398290 0.579090 0.412800 1.016297

loop_
_geom_bond_atom_site_label_1
_geom_bond_atom_site_label_2
_ccdc_geom_bond_type
C23   C24   D    
C15   H4    S    
C2    C27   D    
C5    C19   S    
C8    O2    A    
C1    O20   A    
C14   C27   S    
C16   H5    S    
C18   H8    S    
H1    O6    S    
O3    Zn4   S    
C20   H2    S    
C3    C6    S    
O1    Zn1   S    
O21   Zn1   S    
C1    O18   A    
O19   Zn3   S    
C3    C20   S    
C17   H6    S    
C8    O4    A    
C1    C25   S    
C11   C13   D    
O5    Zn1   S    
C9    O5    A    
C2    O15   S    
C14   H3    S    
O23   Zn3   S    
O17   Zn4   S    
C11   C15   S    
C8    C10   S    
C24   C26   S    
C4    C23   S    
C19   O14   D    
O1    Zn4   S    
C19   H9    S    
C10   C21   T    
C16   C26   S    
C9    C22   S    
C2    C5    S    
O12   Zn1   S    
C15   O8    D    
C16   O9    D    
C18   C23   S    
C17   C24   S    
O18   Zn2   S    
C12   C22   T    
C7    O23   A    
C13   O6    S    
C7    C27   S    
C12   C13   S    
C18   O13   D    
O20   Zn4   S    
C14   O7    D    
O1    Zn3   S    
C4    O21   A    
O2    Zn2   S    
H10   O15   S    
O4    Zn3   S    
O22   Zn2   S    
C3    C5    D    
C7    O17   A    
O1    Zn2   S    
C25   C26   D    
C25   O11   S    
C6    O22   A    
C11   C21   S    
C9    O3    A    
C4    O19   A    
C6    O12   A    
C17   O10   D    
C20   O16   D    
H7    O11   S    
