data_mof_unit_61978.cif
_audit_creation_date              2012-12-10T18:34:39-0500
_audit_creation_method            fapswitch 2.2
_symmetry_space_group_name_H-M    P1
_symmetry_Int_Tables_number       1
_space_group_crystal_system       triclinic
_cell_length_a                    21.711661
_cell_length_b                    21.711672
_cell_length_c                    55.773868
_cell_angle_alpha                 89.999674
_cell_angle_beta                  89.999724
_cell_angle_gamma                 90.000271
_cell_volume                      26291.6040578

loop_
_atom_site_label
_atom_site_type_symbol
_atom_type_description
_atom_site_fract_x
_atom_site_fract_y
_atom_site_fract_z
_atom_type_partial_charge
C1    C     C_R   0.499420 0.380902 0.499947 0.828041
C2    C     C_R   0.619098 0.499420 0.499947 0.828044
C3    C     C_R   0.500580 0.619098 0.499947 0.828046
C4    C     C_R   0.380902 0.500580 0.499947 0.828044
C5    C     C_R   0.999420 0.880902 0.999947 0.828024
C6    C     C_R   0.119098 0.999420 0.999947 0.828020
C7    C     C_R   0.000579 0.119098 0.999947 0.827993
C8    C     C_R   0.880902 0.000579 0.999947 0.827997
C9    C     C_R   0.216577 0.534693 0.516651 -0.176296
C10   C     C_R   0.465309 0.216577 0.516652 -0.176307
C11   C     C_R   0.783423 0.465306 0.516651 -0.176291
C12   C     C_R   0.534689 0.783423 0.516652 -0.176310
C13   C     C_R   0.716578 0.034700 0.016649 -0.176280
C14   C     C_R   0.965304 0.716577 0.016650 -0.176286
C15   C     C_R   0.283423 0.965306 0.016651 -0.176318
C16   C     C_R   0.034705 0.283421 0.016647 -0.176294
C17   C     C_R   0.185535 0.499627 0.499455 -0.053093
C18   C     C_R   0.500372 0.185535 0.499455 -0.053095
C19   C     C_R   0.814465 0.500372 0.499455 -0.053090
C20   C     C_R   0.499628 0.814465 0.499455 -0.053091
C21   C     C_R   0.685535 0.999628 0.999455 -0.053113
C22   C     C_R   0.000373 0.685535 0.999455 -0.053100
C23   C     C_R   0.314465 0.000372 0.999455 -0.053106
C24   C     C_R   0.999627 0.314464 0.999455 -0.053123
C25   C     C_R   0.218492 0.465830 0.482123 0.079287
C26   C     C_R   0.534166 0.218492 0.482122 0.079291
C27   C     C_R   0.781508 0.534170 0.482123 0.079291
C28   C     C_R   0.465836 0.781509 0.482121 0.079289
C29   C     C_R   0.718492 0.965826 0.982124 0.079296
C30   C     C_R   0.034173 0.718492 0.982124 0.079283
C31   C     C_R   0.281509 0.034168 0.982122 0.079276
C32   C     C_R   0.965818 0.281508 0.982126 0.079279
C33   C     C_R   0.282551 0.467773 0.482343 -0.127579
C34   C     C_R   0.532223 0.282551 0.482342 -0.127568
C35   C     C_R   0.717449 0.532226 0.482342 -0.127566
C36   C     C_R   0.467779 0.717449 0.482341 -0.127567
C37   C     C_R   0.782551 0.967767 0.982344 -0.127587
C38   C     C_R   0.032229 0.782552 0.982343 -0.127587
C39   C     C_R   0.217449 0.032225 0.982342 -0.127635
C40   C     C_R   0.967761 0.217448 0.982346 -0.127666
C41   C     C_R   0.313819 0.501582 0.499915 -0.075786
C42   C     C_R   0.498417 0.313819 0.499914 -0.075789
C43   C     C_R   0.686181 0.498417 0.499914 -0.075780
C44   C     C_R   0.501583 0.686181 0.499914 -0.075787
C45   C     C_R   0.813819 0.001581 0.999914 -0.075803
C46   C     C_R   0.998418 0.813819 0.999914 -0.075798
C47   C     C_R   0.186181 0.998417 0.999914 -0.075815
C48   C     C_R   0.001581 0.186181 0.999914 -0.075819
C49   C     C_R   0.280637 0.535982 0.517056 0.061243
C50   C     C_R   0.464019 0.280637 0.517057 0.061242
C51   C     C_R   0.719363 0.464017 0.517056 0.061240
C52   C     C_R   0.535979 0.719363 0.517057 0.061243
C53   C     C_R   0.780638 0.035991 0.017053 0.061235
C54   C     C_R   0.964014 0.780637 0.017055 0.061242
C55   C     C_R   0.219362 0.964016 0.017056 0.061255
C56   C     C_R   0.035995 0.219361 0.017052 0.061259
C57   C     C_R   0.165949 0.370923 0.466002 0.408697
C58   C     C_R   0.629068 0.165952 0.465995 0.408684
C59   C     C_R   0.834052 0.629077 0.466001 0.408694
C60   C     C_R   0.370934 0.834049 0.465995 0.408685
C61   C     C_R   0.665949 0.870923 0.965999 0.408692
C62   C     C_R   0.129082 0.665949 0.966004 0.408703
C63   C     C_R   0.334051 0.129071 0.965997 0.408697
C64   C     C_R   0.870908 0.334053 0.966009 0.408715
C65   C     C_R   0.134225 0.341060 0.447487 -0.176932
C66   C     C_R   0.658927 0.134232 0.447479 -0.176920
C67   C     C_R   0.865776 0.658941 0.447487 -0.176935
C68   C     C_R   0.341075 0.865769 0.447478 -0.176921
C69   C     C_R   0.634228 0.841064 0.947483 -0.176919
C70   C     C_R   0.158946 0.634222 0.947491 -0.176930
C71   C     C_R   0.365773 0.158930 0.947481 -0.176901
C72   C     C_R   0.841042 0.365782 0.947496 -0.176915
C73   C     C_R   0.124098 0.370989 0.425636 0.400950
C74   C     C_R   0.628991 0.124105 0.425629 0.400952
C75   C     C_R   0.875904 0.629013 0.425636 0.400951
C76   C     C_R   0.371010 0.875895 0.425628 0.400952
C77   C     C_R   0.624101 0.870999 0.925633 0.400957
C78   C     C_R   0.129019 0.624093 0.925639 0.400950
C79   C     C_R   0.375899 0.128996 0.925630 0.400949
C80   C     C_R   0.870966 0.375912 0.925644 0.400958
C81   C     C_R   0.146272 0.430716 0.422123 -0.177950
C82   C     C_R   0.569261 0.146275 0.422119 -0.177947
C83   C     C_R   0.853730 0.569285 0.422122 -0.177951
C84   C     C_R   0.430741 0.853726 0.422119 -0.177947
C85   C     C_R   0.646272 0.930728 0.922123 -0.177944
C86   C     C_R   0.069293 0.646267 0.922125 -0.177951
C87   C     C_R   0.353727 0.069267 0.922120 -0.177947
C88   C     C_R   0.930693 0.353738 0.922128 -0.177956
C89   C     C_R   1.000000 0.500000 0.453649 0.914544
C90   C     C_R   0.500000 1.000000 0.453649 0.914529
C91   C     C_R   0.500000 0.000000 0.953649 0.914533
C92   C     C_R   0.000000 0.500000 0.953649 0.914553
C93   C     C_R   0.177473 0.461049 0.440577 -0.245858
C94   C     C_R   0.538933 0.177471 0.440576 -0.245874
C95   C     C_R   0.822529 0.538952 0.440577 -0.245861
C96   C     C_R   0.461069 0.822530 0.440575 -0.245875
C97   C     C_R   0.677470 0.961057 0.940578 -0.245872
C98   C     C_R   0.038959 0.677470 0.940578 -0.245854
C99   C     C_R   0.322529 0.038938 0.940576 -0.245863
C100  C     C_R   0.961028 0.322533 0.940581 -0.245851
C101  C     C_R   0.187049 0.431741 0.462686 -0.025257
C102  C     C_R   0.568249 0.187049 0.462683 -0.025262
C103  C     C_R   0.812952 0.568260 0.462686 -0.025259
C104  C     C_R   0.431753 0.812952 0.462683 -0.025265
C105  C     C_R   0.687048 0.931742 0.962686 -0.025249
C106  C     C_R   0.068265 0.687049 0.962688 -0.025245
C107  C     C_R   0.312952 0.068252 0.962684 -0.025241
C108  C     C_R   0.931724 0.312952 0.962691 -0.025218
C109  C     C_R   0.036330 0.458842 0.338721 0.658742
C110  C     C_R   0.541104 0.036394 0.338721 0.658771
C111  C     C_R   0.963669 0.541160 0.338721 0.658741
C112  C     C_R   0.458898 0.963605 0.338721 0.658770
C113  C     C_R   0.536397 0.958899 0.838721 0.658770
C114  C     C_R   0.041172 0.536315 0.838721 0.658735
C115  C     C_R   0.463605 0.041102 0.838721 0.658770
C116  C     C_R   0.958828 0.463681 0.838721 0.658734
C117  C     C_R   0.532233 0.953152 0.737122 0.041381
C118  C     C_R   0.046921 0.532125 0.737122 0.041375
C119  C     C_R   0.467767 0.046848 0.737122 0.041381
C120  C     C_R   0.953080 0.467870 0.737122 0.041375
C121  C     C_R   0.032148 0.453095 0.237122 0.041376
C122  C     C_R   0.546850 0.032230 0.237121 0.041380
C123  C     C_R   0.967851 0.546907 0.237122 0.041376
C124  C     C_R   0.453150 0.967769 0.237122 0.041380
C125  C     C_R   0.500000 1.000000 0.724511 0.083772
C126  C     C_R   0.000001 0.499997 0.724512 0.083773
C127  C     C_R   0.999999 0.500001 0.224512 0.083772
C128  C     C_R   0.500000 0.999999 0.224511 0.083772
C129  C     C_R   0.439760 0.094567 0.723692 -0.173542
C130  C     C_R   0.905295 0.439976 0.723693 -0.173546
C131  C     C_R   0.560239 0.905433 0.723692 -0.173542
C132  C     C_R   0.094707 0.560019 0.723692 -0.173546
C133  C     C_R   0.939933 0.594678 0.223692 -0.173546
C134  C     C_R   0.405429 0.939765 0.223693 -0.173543
C135  C     C_R   0.060066 0.405324 0.223692 -0.173544
C136  C     C_R   0.594571 0.060234 0.223692 -0.173543
C137  C     C_R   0.441322 0.094866 0.698773 -0.099496
C138  C     C_R   0.904997 0.441541 0.698774 -0.099495
C139  C     C_R   0.558676 0.905133 0.698773 -0.099496
C140  C     C_R   0.095005 0.558454 0.698773 -0.099493
C141  C     C_R   0.941497 0.594976 0.198773 -0.099497
C142  C     C_R   0.405128 0.941328 0.198773 -0.099493
C143  C     C_R   0.058502 0.405026 0.198773 -0.099495
C144  C     C_R   0.594870 0.058671 0.198772 -0.099499
C145  C     C_R   0.470670 0.047616 0.686197 -0.039952
C146  C     C_R   0.952316 0.470778 0.686198 -0.039954
C147  C     C_R   0.529329 0.952383 0.686197 -0.039953
C148  C     C_R   0.047686 0.529216 0.686198 -0.039954
C149  C     C_R   0.970757 0.547671 0.186197 -0.039953
C150  C     C_R   0.452381 0.970672 0.186197 -0.039953
C151  C     C_R   0.029242 0.452331 0.186197 -0.039954
C152  C     C_R   0.547618 0.029326 0.186197 -0.039951
C153  C     C_R   0.499999 1.000000 0.698988 -0.039320
C154  C     C_R   0.000001 0.499997 0.698989 -0.039321
C155  C     C_R   0.999999 0.500001 0.198988 -0.039320
C156  C     C_R   0.499999 0.999999 0.198988 -0.039322
C157  C     C_R   0.528259 0.952933 0.660995 0.645440
C158  C     C_R   0.047133 0.528148 0.660995 0.645438
C159  C     C_R   0.471739 0.047066 0.660995 0.645440
C160  C     C_R   0.952869 0.471846 0.660995 0.645438
C161  C     C_R   0.028173 0.452883 0.160995 0.645438
C162  C     C_R   0.547067 0.028256 0.160995 0.645436
C163  C     C_R   0.971825 0.547119 0.160995 0.645439
C164  C     C_R   0.452931 0.971742 0.160995 0.645442
C165  C     C_R   0.118795 0.499875 0.499682 0.785878
C166  C     C_R   0.500124 0.118795 0.499683 0.785860
C167  C     C_R   0.881205 0.500124 0.499682 0.785878
C168  C     C_R   0.499875 0.881205 0.499683 0.785860
C169  C     C_R   0.618795 0.999876 0.999683 0.785864
C170  C     C_R   0.000124 0.618795 0.999683 0.785879
C171  C     C_R   0.381205 0.000124 0.999683 0.785864
C172  C     C_R   0.999875 0.381205 0.999683 0.785884
C173  C     C_R   0.035897 0.542961 0.389102 0.356043
C174  C     C_R   0.457028 0.035882 0.389102 0.356039
C175  C     C_R   0.964103 0.457040 0.389103 0.356042
C176  C     C_R   0.542974 0.964118 0.389102 0.356038
C177  C     C_R   0.535885 0.042972 0.889102 0.356042
C178  C     C_R   0.957041 0.535898 0.889103 0.356041
C179  C     C_R   0.464117 0.957029 0.889102 0.356038
C180  C     C_R   0.042957 0.464098 0.889103 0.356048
C181  C     C_R   0.035926 0.543339 0.414274 0.253971
C182  C     C_R   0.456652 0.035914 0.414274 0.253967
C183  C     C_R   0.964074 0.456662 0.414274 0.253972
C184  C     C_R   0.543350 0.964087 0.414274 0.253969
C185  C     C_R   0.535916 0.043348 0.914273 0.253965
C186  C     C_R   0.956663 0.535927 0.914274 0.253971
C187  C     C_R   0.464085 0.956653 0.914274 0.253969
C188  C     C_R   0.043336 0.464070 0.914274 0.253971
C189  C     C_R   1.000000 0.500000 0.427095 -0.359195
C190  C     C_R   0.500001 0.000000 0.427095 -0.359215
C191  C     C_R   0.500000 0.000000 0.927095 -0.359218
C192  C     C_R   1.000000 0.499999 0.927095 -0.359201
C193  C     C_R   0.034922 0.455121 0.262600 0.041795
C194  C     C_R   0.544821 0.034998 0.262600 0.041800
C195  C     C_R   0.965077 0.544881 0.262600 0.041795
C196  C     C_R   0.455179 0.965000 0.262600 0.041800
C197  C     C_R   0.535001 0.955181 0.762600 0.041801
C198  C     C_R   0.044895 0.534902 0.762600 0.041794
C199  C     C_R   0.464999 0.044819 0.762600 0.041800
C200  C     C_R   0.955106 0.465093 0.762600 0.041794
C201  C     C_R   1.000000 0.500001 0.376550 0.042206
C202  C     C_R   0.500001 0.000000 0.376550 0.042244
C203  C     C_R   0.500001 0.000000 0.876550 0.042244
C204  C     C_R   0.999999 0.499998 0.876550 0.042189
C205  C     C_R   0.553184 0.017474 0.610458 0.391584
C206  C     C_R   0.982628 0.553216 0.610459 0.391565
C207  C     C_R   0.446814 0.982525 0.610458 0.391586
C208  C     C_R   0.017374 0.446781 0.610459 0.391566
C209  C     C_R   0.053209 0.517398 0.110459 0.391568
C210  C     C_R   0.482529 0.053185 0.110458 0.391587
C211  C     C_R   0.946789 0.482604 0.110459 0.391570
C212  C     C_R   0.517469 0.946813 0.110458 0.391582
C213  C     C_R   1.000000 0.500001 0.275210 0.085707
C214  C     C_R   0.500000 0.999999 0.275210 0.085706
C215  C     C_R   0.500000 1.000000 0.775210 0.085707
C216  C     C_R   0.000000 0.499998 0.775210 0.085707
C217  C     C_R   0.553143 0.016996 0.585403 -0.226676
C218  C     C_R   0.983102 0.553174 0.585404 -0.226663
C219  C     C_R   0.446856 0.983003 0.585403 -0.226677
C220  C     C_R   0.016899 0.446824 0.585404 -0.226664
C221  C     C_R   0.053167 0.516922 0.085403 -0.226666
C222  C     C_R   0.483007 0.053144 0.085403 -0.226680
C223  C     C_R   0.946832 0.483079 0.085404 -0.226667
C224  C     C_R   0.516991 0.946855 0.085403 -0.226676
C225  C     C_R   0.499999 1.000000 0.572670 -0.170212
C226  C     C_R   0.000000 0.499999 0.572671 -0.170253
C227  C     C_R   1.000000 0.500000 0.072671 -0.170243
C228  C     C_R   0.499999 0.999999 0.072670 -0.170214
C229  C     C_R   0.499999 1.000000 0.623151 0.175122
C230  C     C_R   0.000001 0.499998 0.623152 0.175139
C231  C     C_R   0.999999 0.500001 0.123152 0.175138
C232  C     C_R   0.499999 0.999999 0.123151 0.175123
C233  C     C_R   0.353332 0.594367 0.574189 0.463524
C234  C     C_R   0.405634 0.353337 0.574188 0.463515
C235  C     C_R   0.646663 0.405631 0.574188 0.463518
C236  C     C_R   0.594347 0.646662 0.574191 0.463513
C237  C     C_R   0.853369 0.094440 0.074169 0.463504
C238  C     C_R   0.905617 0.853347 0.074183 0.463512
C239  C     C_R   0.146662 0.905614 0.074185 0.463531
C240  C     C_R   0.094446 0.146655 0.074172 0.463535
C241  C     C_R   0.071954 0.414007 0.276030 -0.172844
C242  C     C_R   0.585874 0.072097 0.276029 -0.172841
C243  C     C_R   0.928045 0.585995 0.276029 -0.172845
C244  C     C_R   0.414126 0.927901 0.276030 -0.172840
C245  C     C_R   0.572102 0.914129 0.776030 -0.172840
C246  C     C_R   0.086022 0.571920 0.776029 -0.172845
C247  C     C_R   0.427899 0.085871 0.776030 -0.172839
C248  C     C_R   0.913979 0.428076 0.776030 -0.172846
C249  C     C_R   0.072715 0.415406 0.300949 -0.099276
C250  C     C_R   0.584477 0.072854 0.300948 -0.099283
C251  C     C_R   0.927284 0.584596 0.300949 -0.099276
C252  C     C_R   0.415525 0.927145 0.300949 -0.099282
C253  C     C_R   0.572858 0.915527 0.800949 -0.099283
C254  C     C_R   0.084622 0.572683 0.800949 -0.099273
C255  C     C_R   0.427143 0.084473 0.800949 -0.099283
C256  C     C_R   0.915378 0.427313 0.800949 -0.099273
C257  C     C_R   0.036540 0.457657 0.313522 -0.049616
C258  C     C_R   0.542286 0.036608 0.313522 -0.049600
C259  C     C_R   0.963459 0.542345 0.313522 -0.049615
C260  C     C_R   0.457715 0.963391 0.313523 -0.049600
C261  C     C_R   0.536610 0.957716 0.813523 -0.049599
C262  C     C_R   0.042357 0.536523 0.813522 -0.049619
C263  C     C_R   0.463391 0.042284 0.813523 -0.049600
C264  C     C_R   0.957642 0.463473 0.813523 -0.049617
C265  C     C_R   0.000000 0.500000 0.546208 0.818943
C266  C     C_R   0.500000 1.000000 0.546208 0.818913
C267  C     C_R   0.500000 1.000000 0.046208 0.818914
C268  C     C_R   1.000000 0.500000 0.046208 0.818938
C269  C     C_R   1.000000 0.500001 0.300732 -0.038513
C270  C     C_R   0.500001 0.999999 0.300732 -0.038510
C271  C     C_R   0.500001 0.000000 0.800732 -0.038509
C272  C     C_R   1.000000 0.499998 0.800732 -0.038515
C273  C     C_R   0.320014 0.557862 0.558104 -0.231519
C274  C     C_R   0.442138 0.320018 0.558104 -0.231513
C275  C     C_R   0.679982 0.442136 0.558103 -0.231516
C276  C     C_R   0.557849 0.679983 0.558105 -0.231520
C277  C     C_R   0.820048 0.057912 0.058093 -0.231440
C278  C     C_R   0.942125 0.820026 0.058100 -0.231483
C279  C     C_R   0.179981 0.942124 0.058102 -0.231496
C280  C     C_R   0.057919 0.179969 0.058094 -0.231463
C281  C     C_R   0.311923 0.577109 0.534306 -0.032831
C282  C     C_R   0.422891 0.311923 0.534307 -0.032829
C283  C     C_R   0.688076 0.422889 0.534306 -0.032831
C284  C     C_R   0.577102 0.688077 0.534308 -0.032821
C285  C     C_R   0.811926 0.077140 0.034295 -0.032879
C286  C     C_R   0.922882 0.811924 0.034303 -0.032847
C287  C     C_R   0.188076 0.922883 0.034304 -0.032840
C288  C     C_R   0.077142 0.188074 0.034294 -0.032873
C289  C     C_R   0.336464 0.634010 0.526818 0.412789
C290  C     C_R   0.365989 0.336462 0.526818 0.412787
C291  C     C_R   0.663536 0.365988 0.526817 0.412785
C292  C     C_R   0.634004 0.663534 0.526822 0.412791
C293  C     C_R   0.836442 0.134043 0.026796 0.412770
C294  C     C_R   0.865980 0.836457 0.026812 0.412779
C295  C     C_R   0.163538 0.865983 0.026813 0.412788
C296  C     C_R   0.134041 0.163548 0.026796 0.412777
C297  C     C_R   0.369528 0.670439 0.543034 -0.217546
C298  C     C_R   0.329561 0.369527 0.543034 -0.217537
C299  C     C_R   0.630472 0.329558 0.543034 -0.217543
C300  C     C_R   0.670427 0.630467 0.543040 -0.217539
C301  C     C_R   0.869508 0.170495 0.043004 -0.217518
C302  C     C_R   0.829546 0.869523 0.043027 -0.217530
C303  C     C_R   0.130473 0.829549 0.043028 -0.217532
C304  C     C_R   0.170493 0.130489 0.043006 -0.217532
C305  C     C_R   0.378102 0.650581 0.566635 -0.203513
C306  C     C_R   0.349419 0.378105 0.566635 -0.203524
C307  C     C_R   0.621895 0.349416 0.566635 -0.203511
C308  C     C_R   0.650562 0.621890 0.566640 -0.203514
C309  C     C_R   0.878112 0.150657 0.066606 -0.203582
C310  C     C_R   0.849402 0.878109 0.066628 -0.203537
C311  C     C_R   0.121895 0.849402 0.066630 -0.203548
C312  C     C_R   0.150659 0.121902 0.066610 -0.203576
Cu1   Cu    Cu3+1 0.500000 0.500000 0.523850 1.030885
Cu2   Cu    Cu3+1 1.000000 1.000000 0.023850 1.030911
Cu3   Cu    Cu3+1 0.500000 0.500000 0.476050 1.057876
Cu4   Cu    Cu3+1 0.000000 1.000000 0.976050 1.057896
Cu5   Cu    Cu3+1 0.000050 0.561740 0.499930 1.102543
Cu6   Cu    Cu3+1 0.438260 0.000050 0.499930 1.102554
Cu7   Cu    Cu3+1 0.999950 0.438260 0.499930 1.102542
Cu8   Cu    Cu3+1 0.561740 0.999950 0.499930 1.102554
Cu9   Cu    Cu3+1 0.500050 0.061740 0.999930 1.102551
Cu10  Cu    Cu3+1 0.938260 0.500050 0.999930 1.102535
Cu11  Cu    Cu3+1 0.499950 0.938260 0.999930 1.102550
Cu12  Cu    Cu3+1 0.061740 0.499950 0.999930 1.102539
H1    H     H_    0.403942 0.678901 0.579041 0.198865
H2    H     H_    0.321099 0.403946 0.579040 0.198859
H3    H     H_    0.596055 0.321095 0.579040 0.198862
H4    H     H_    0.678878 0.596047 0.579046 0.198864
H5    H     H_    0.903953 0.178996 0.079005 0.198813
H6    H     H_    0.821078 0.903952 0.079031 0.198841
H7    H     H_    0.096055 0.821077 0.079034 0.198851
H8    H     H_    0.178999 0.096066 0.079010 0.198829
H9    H     H_    0.138934 0.453845 0.405168 0.205039
H10   H     H_    0.546127 0.138938 0.405166 0.205067
H11   H     H_    0.861067 0.546157 0.405168 0.205038
H12   H     H_    0.453875 0.861064 0.405165 0.205067
H13   H     H_    0.638934 0.953862 0.905169 0.205066
H14   H     H_    0.046166 0.638928 0.905170 0.205030
H15   H     H_    0.361064 0.046134 0.905167 0.205070
H16   H     H_    0.953818 0.361078 0.905174 0.205027
H17   H     H_    0.193852 0.507590 0.437715 0.226864
H18   H     H_    0.492389 0.193847 0.437717 0.226858
H19   H     H_    0.806150 0.492411 0.437715 0.226864
H20   H     H_    0.507613 0.806154 0.437716 0.226858
H21   H     H_    0.693847 0.007599 0.937719 0.226862
H22   H     H_    0.992418 0.693849 0.937715 0.226866
H23   H     H_    0.306152 0.992395 0.937716 0.226860
H24   H     H_    0.007568 0.306154 0.937717 0.226869
H25   H     H_    0.102215 0.380856 0.267821 0.153967
H26   H     H_    0.618975 0.102414 0.267821 0.153959
H27   H     H_    0.897784 0.619146 0.267821 0.153966
H28   H     H_    0.381025 0.897584 0.267822 0.153959
H29   H     H_    0.602420 0.881030 0.767821 0.153959
H30   H     H_    0.119185 0.602169 0.767820 0.153969
H31   H     H_    0.397581 0.118970 0.767821 0.153959
H32   H     H_    0.880815 0.397827 0.767821 0.153969
H33   H     H_    0.101899 0.382911 0.310345 0.203384
H34   H     H_    0.616925 0.102090 0.310345 0.203371
H35   H     H_    0.898100 0.617091 0.310345 0.203384
H36   H     H_    0.383077 0.897908 0.310346 0.203371
H37   H     H_    0.602096 0.883081 0.810345 0.203370
H38   H     H_    0.117128 0.601856 0.810345 0.203387
H39   H     H_    0.397906 0.116920 0.810345 0.203371
H40   H     H_    0.882872 0.398140 0.810345 0.203386
H41   H     H_    0.417299 0.133430 0.731900 0.155030
H42   H     H_    0.866378 0.417606 0.731902 0.155041
H43   H     H_    0.582700 0.866570 0.731900 0.155030
H44   H     H_    0.133623 0.582388 0.731901 0.155041
H45   H     H_    0.917545 0.633583 0.231901 0.155038
H46   H     H_    0.366564 0.917307 0.231901 0.155031
H47   H     H_    0.082455 0.366419 0.231901 0.155038
H48   H     H_    0.633435 0.082692 0.231900 0.155030
H49   H     H_    0.419160 0.132505 0.689379 0.202947
H50   H     H_    0.867305 0.419467 0.689380 0.202959
H51   H     H_    0.580839 0.867494 0.689379 0.202947
H52   H     H_    0.132697 0.580527 0.689379 0.202959
H53   H     H_    0.919404 0.632656 0.189379 0.202956
H54   H     H_    0.367488 0.919167 0.189380 0.202949
H55   H     H_    0.080594 0.367346 0.189379 0.202958
H56   H     H_    0.632510 0.080831 0.189378 0.202946
H57   H     H_    0.388812 0.714046 0.537334 0.202026
H58   H     H_    0.285952 0.388810 0.537334 0.202033
H59   H     H_    0.611188 0.285951 0.537333 0.202028
H60   H     H_    0.714035 0.611180 0.537340 0.202021
H61   H     H_    0.888773 0.214105 0.037296 0.202097
H62   H     H_    0.785938 0.888803 0.037324 0.202045
H63   H     H_    0.111191 0.785942 0.037326 0.202043
H64   H     H_    0.214100 0.111216 0.037299 0.202078
H65   H     H_    0.308097 0.442289 0.468898 0.193231
H66   H     H_    0.557706 0.308097 0.468896 0.193231
H67   H     H_    0.691904 0.557711 0.468898 0.193226
H68   H     H_    0.442298 0.691904 0.468895 0.193229
H69   H     H_    0.808097 0.942279 0.968900 0.193243
H70   H     H_    0.057716 0.808098 0.968899 0.193241
H71   H     H_    0.191904 0.057708 0.968897 0.193258
H72   H     H_    0.942269 0.191903 0.968903 0.193261
H73   H     H_    0.117302 0.294635 0.450105 0.213168
H74   H     H_    0.705354 0.117312 0.450094 0.213174
H75   H     H_    0.882700 0.705366 0.450105 0.213168
H76   H     H_    0.294647 0.882689 0.450093 0.213174
H77   H     H_    0.617306 0.794637 0.950099 0.213173
H78   H     H_    0.205371 0.617299 0.950110 0.213167
H79   H     H_    0.382694 0.205357 0.950096 0.213174
H80   H     H_    0.794618 0.382706 0.950116 0.213166
N1    N     N_R   1.000000 0.500001 0.350755 -0.421389
N2    N     N_R   0.500001 1.000000 0.350755 -0.421371
N3    N     N_R   0.500001 0.000000 0.850756 -0.421370
N4    N     N_R   1.000000 0.499998 0.850756 -0.421391
N5    N     N_R   0.499999 0.999999 0.648949 -0.439475
N6    N     N_R   0.000001 0.499997 0.648949 -0.439472
N7    N     N_R   0.999999 0.500001 0.148949 -0.439473
N8    N     N_R   0.499999 0.999999 0.148949 -0.439475
O1    O     O_R   0.500070 0.409750 0.520130 -0.589850
O2    O     O_R   0.590250 0.500070 0.520130 -0.589850
O3    O     O_R   0.499930 0.590250 0.520130 -0.589850
O4    O     O_R   0.409750 0.499930 0.520130 -0.589850
O5    O     O_R   0.000070 0.909750 0.020130 -0.589848
O6    O     O_R   0.090250 0.000070 0.020130 -0.589845
O7    O     O_R   0.999930 0.090250 0.020130 -0.589845
O8    O     O_R   0.909750 0.999930 0.020130 -0.589847
O9    O     O_R   0.500040 0.409770 0.479770 -0.569307
O10   O     O_R   0.590230 0.500040 0.479770 -0.569307
O11   O     O_R   0.499960 0.590230 0.479770 -0.569309
O12   O     O_R   0.409770 0.499960 0.479770 -0.569305
O13   O     O_R   0.000040 0.909770 0.979770 -0.569303
O14   O     O_R   0.090230 0.000040 0.979770 -0.569295
O15   O     O_R   0.999960 0.090230 0.979770 -0.569287
O16   O     O_R   0.909770 0.999960 0.979770 -0.569301
O17   O     O_R   0.090230 0.552130 0.499940 -0.556306
O18   O     O_R   0.447870 0.090230 0.499940 -0.556305
O19   O     O_R   0.909770 0.447870 0.499940 -0.556306
O20   O     O_R   0.552130 0.909770 0.499940 -0.556305
O21   O     O_R   0.590230 0.052130 0.999940 -0.556302
O22   O     O_R   0.947870 0.590230 0.999940 -0.556302
O23   O     O_R   0.409770 0.947870 0.999940 -0.556302
O24   O     O_R   0.052130 0.409770 0.999940 -0.556301
O25   O     O_R   0.090230 0.447750 0.499950 -0.565361
O26   O     O_R   0.552250 0.090230 0.499950 -0.565360
O27   O     O_R   0.909770 0.552250 0.499950 -0.565359
O28   O     O_R   0.447750 0.909770 0.499950 -0.565359
O29   O     O_R   0.590230 0.947750 0.999950 -0.565365
O30   O     O_R   0.052250 0.590230 0.999950 -0.565367
O31   O     O_R   0.409770 0.052250 0.999950 -0.565365
O32   O     O_R   0.947750 0.409770 0.999950 -0.565375
O33   O     O_2   0.072072 0.419206 0.351117 -0.464267
O34   O     O_2   0.580686 0.072195 0.351116 -0.464355
O35   O     O_2   0.927927 0.580796 0.351117 -0.464269
O36   O     O_2   0.419316 0.927804 0.351117 -0.464357
O37   O     O_2   0.572198 0.919318 0.851117 -0.464365
O38   O     O_2   0.080819 0.572044 0.851116 -0.464250
O39   O     O_2   0.427804 0.080683 0.851117 -0.464363
O40   O     O_2   0.919180 0.427953 0.851117 -0.464259
O41   O     O_R   0.000020 0.552130 0.465070 -0.542511
O42   O     O_R   0.447870 0.000020 0.465070 -0.542504
O43   O     O_R   0.999980 0.447870 0.465070 -0.542510
O44   O     O_R   0.552130 0.999980 0.465070 -0.542504
O45   O     O_R   0.500020 0.052130 0.965070 -0.542505
O46   O     O_R   0.947870 0.500020 0.965070 -0.542511
O47   O     O_R   0.499980 0.947870 0.965070 -0.542504
O48   O     O_R   0.052130 0.499980 0.965070 -0.542511
O49   O     O_2   0.555218 0.906842 0.648609 -0.482378
O50   O     O_2   0.093287 0.555001 0.648609 -0.482380
O51   O     O_2   0.444780 0.093157 0.648609 -0.482379
O52   O     O_2   0.906715 0.444994 0.648609 -0.482382
O53   O     O_2   0.055049 0.406743 0.148609 -0.482380
O54   O     O_2   0.593160 0.055213 0.148608 -0.482384
O55   O     O_2   0.944949 0.593259 0.148609 -0.482384
O56   O     O_2   0.406837 0.944785 0.148609 -0.482374
O57   O     O_R   0.000080 0.552140 0.534800 -0.577882
O58   O     O_R   0.447860 0.000080 0.534800 -0.577864
O59   O     O_R   0.999920 0.447860 0.534800 -0.577883
O60   O     O_R   0.552140 0.999920 0.534800 -0.577863
O61   O     O_R   0.500080 0.052140 0.034800 -0.577865
O62   O     O_R   0.947860 0.500080 0.034800 -0.577878
O63   O     O_R   0.499920 0.947860 0.034800 -0.577864
O64   O     O_R   0.052140 0.499920 0.034800 -0.577879
Cl1   Cl    Cl    0.083501 0.333658 0.402663 -0.431619
Cl2   Cl    Cl    0.666318 0.083517 0.402652 -0.431637
Cl3   Cl    Cl    0.916500 0.666344 0.402662 -0.431619
Cl4   Cl    Cl    0.333683 0.916484 0.402652 -0.431635
Cl5   Cl    Cl    0.583510 0.833672 0.902657 -0.431635
Cl6   Cl    Cl    0.166352 0.583493 0.902667 -0.431613
Cl7   Cl    Cl    0.416489 0.166324 0.902654 -0.431633
Cl8   Cl    Cl    0.833632 0.416515 0.902673 -0.431602
Cl9   Cl    Cl    0.081823 0.595725 0.372950 -0.419262
Cl10  Cl    Cl    0.404244 0.081782 0.372949 -0.419235
Cl11  Cl    Cl    0.918176 0.404277 0.372951 -0.419263
Cl12  Cl    Cl    0.595758 0.918218 0.372949 -0.419238
Cl13  Cl    Cl    0.581787 0.095754 0.872949 -0.419230
Cl14  Cl    Cl    0.904282 0.581829 0.872951 -0.419261
Cl15  Cl    Cl    0.418215 0.904246 0.872950 -0.419235
Cl16  Cl    Cl    0.095717 0.418167 0.872951 -0.419256
Cl17  Cl    Cl    0.084032 0.596559 0.429337 -0.455349
Cl18  Cl    Cl    0.403421 0.084008 0.429336 -0.455332
Cl19  Cl    Cl    0.915968 0.403442 0.429337 -0.455347
Cl20  Cl    Cl    0.596580 0.915992 0.429336 -0.455334
Cl21  Cl    Cl    0.584014 0.096576 0.929336 -0.455318
Cl22  Cl    Cl    0.903447 0.584036 0.929337 -0.455342
Cl23  Cl    Cl    0.415988 0.903424 0.929336 -0.455328
Cl24  Cl    Cl    0.096552 0.415961 0.929338 -0.455332
Cl25  Cl    Cl    0.620170 0.041061 0.625637 -0.501113
Cl26  Cl    Cl    0.959173 0.620248 0.625640 -0.501119
Cl27  Cl    Cl    0.379828 0.958938 0.625638 -0.501112
Cl28  Cl    Cl    0.040829 0.379748 0.625639 -0.501116
Cl29  Cl    Cl    0.120231 0.540883 0.125639 -0.501117
Cl30  Cl    Cl    0.458947 0.120173 0.125638 -0.501109
Cl31  Cl    Cl    0.879767 0.459119 0.125639 -0.501116
Cl32  Cl    Cl    0.541050 0.879825 0.125638 -0.501117
Cl33  Cl    Cl    0.364877 0.569125 0.603719 -0.461305
Cl34  Cl    Cl    0.430876 0.364887 0.603718 -0.461323
Cl35  Cl    Cl    0.635116 0.430871 0.603718 -0.461325
Cl36  Cl    Cl    0.569098 0.635115 0.603720 -0.461327
Cl37  Cl    Cl    0.864951 0.069224 0.103701 -0.461320
Cl38  Cl    Cl    0.930854 0.864905 0.103713 -0.461325
Cl39  Cl    Cl    0.135114 0.930847 0.103717 -0.461266
Cl40  Cl    Cl    0.069237 0.135095 0.103706 -0.461243
H81   H     H_    0.594460 0.030707 0.575914 0.213039
H82   H     H_    0.969469 0.594517 0.575916 0.213071
H83   H     H_    0.405539 0.969293 0.575915 0.213039
H84   H     H_    0.030532 0.405481 0.575916 0.213071
H85   H     H_    0.094504 0.530573 0.075916 0.213064
H86   H     H_    0.469299 0.094462 0.075914 0.213040
H87   H     H_    0.905495 0.469428 0.075916 0.213063
H88   H     H_    0.530699 0.905537 0.075915 0.213041
H89   H     H_    0.301512 0.514054 0.563958 0.169327
H90   H     H_    0.485947 0.301518 0.563959 0.169325
H91   H     H_    0.698483 0.485944 0.563958 0.169324
H92   H     H_    0.514040 0.698487 0.563958 0.169321
H93   H     H_    0.801567 0.014101 0.063955 0.169342
H94   H     H_    0.985935 0.801530 0.063957 0.169331
H95   H     H_    0.198482 0.985931 0.063959 0.169339
H96   H     H_    0.014112 0.198459 0.063956 0.169352
Cl41  Cl    Cl    0.325964 0.660533 0.497295 -0.562745
Cl42  Cl    Cl    0.339466 0.325957 0.497296 -0.562755
Cl43  Cl    Cl    0.674039 0.339465 0.497295 -0.562744
Cl44  Cl    Cl    0.660535 0.674036 0.497300 -0.562761
Cl45  Cl    Cl    0.825909 0.160539 0.997271 -0.562715
Cl46  Cl    Cl    0.839461 0.825943 0.997290 -0.562731
Cl47  Cl    Cl    0.174045 0.839467 0.997290 -0.562753
Cl48  Cl    Cl    0.160534 0.174064 0.997270 -0.562711
H97   H     H_    0.190798 0.561388 0.529677 0.163869
H98   H     H_    0.438615 0.190798 0.529678 0.163869
H99   H     H_    0.809200 0.438611 0.529677 0.163868
H100  H     H_    0.561381 0.809201 0.529679 0.163867
H101  H     H_    0.690801 0.061403 0.029673 0.163878
H102  H     H_    0.938605 0.690799 0.029675 0.163873
H103  H     H_    0.309200 0.938611 0.029677 0.163871
H104  H     H_    0.061410 0.309199 0.029670 0.163881
Cl49  Cl    Cl    0.177648 0.331466 0.493194 -0.496122
Cl50  Cl    Cl    0.668534 0.177650 0.493186 -0.496104
Cl51  Cl    Cl    0.822352 0.668534 0.493194 -0.496106
Cl52  Cl    Cl    0.331468 0.822349 0.493186 -0.496104
Cl53  Cl    Cl    0.677646 0.831460 0.993191 -0.496125
Cl54  Cl    Cl    0.168536 0.677650 0.993197 -0.496142
Cl55  Cl    Cl    0.322353 0.168534 0.993188 -0.496179
Cl56  Cl    Cl    0.831459 0.322354 0.993203 -0.496210

loop_
_geom_bond_atom_site_label_1
_geom_bond_atom_site_label_2
_ccdc_geom_bond_type
Cu10  Cu12  S    
C301  H61   S    
C312  H8    S    
C160  O52   S    
C65   H73   S    
C230  N6    S    
C34   C42   A    
C2    O2    A    
C198  C216  A    
C200  C248  A    
C239  C311  A    
C18   C166  S    
C240  C312  A    
C240  Cl40  S    
Cu10  O22   S    
C245  H29   S    
C252  H36   S    
Cu5   O57   S    
C82   C94   A    
C303  C311  A    
C212  C232  A    
C112  N2    A    
C188  Cl24  S    
C4    C41   S    
Cu6   O18   S    
C209  C221  A    
C30   C38   A    
C173  C201  A    
C88   H16   S    
C268  O62   A    
C168  O20   A    
C8    C45   S    
C235  C307  A    
C152  C156  A    
C125  C153  A    
C151  C161  A    
C274  C282  A    
C240  C280  A    
C151  C155  A    
C89   O41   A    
C205  C229  A    
C267  O61   A    
C63   Cl55  S    
C97   C105  A    
C15   C23   A    
C143  C151  A    
C235  Cl35  S    
C79   C87   A    
C232  N8    S    
C19   C167  S    
C122  C194  A    
C20   C168  S    
Cu2   O7    S    
C183  C189  A    
C73   C81   A    
C219  H83   S    
C99   H23   S    
C238  Cl38  S    
C86   C98   A    
C11   H99   S    
C100  C108  A    
C116  O40   S    
C59   Cl51  S    
C164  N8    A    
C157  N5    A    
C109  O33   S    
C207  C229  A    
C20   C28   A    
C27   C35   A    
C39   C47   A    
C91   C191  S    
C210  Cl30  S    
C8    O16   A    
C209  Cl29  S    
C236  C276  A    
C23   C31   A    
C237  C277  A    
C24   C32   A    
C14   H102  S    
C116  C264  A    
C33   H65   S    
C52   C284  S    
C28   C104  S    
C53   C285  S    
C146  C154  A    
C211  C223  A    
C12   C20   A    
C13   C21   A    
C121  C135  A    
Cu7   O19   S    
C216  C272  A    
C241  H25   S    
C22   C170  S    
C211  C231  A    
C70   H78   S    
C126  C154  A    
C35   H67   S    
C255  C263  A    
C256  C264  A    
C36   C44   A    
C132  C140  A    
C93   H17   S    
C130  C138  A    
C32   C40   A    
C252  C260  A    
C175  C183  A    
C280  H96   S    
C253  C261  A    
C304  C312  A    
Cu1   O1    S    
C183  Cl19  S    
C31   C107  S    
Cu8   O60   S    
C233  C305  A    
C21   C29   A    
C64   Cl56  S    
Cu5   O17   S    
C193  C213  A    
C62   C106  A    
C212  Cl32  S    
C176  C202  A    
C141  H53   S    
C5    C46   S    
C221  C227  A    
C98   C106  A    
C233  Cl33  S    
C289  C297  A    
C7    C48   S    
C114  C262  A    
C75   Cl3   S    
C80   C88   A    
Cu11  O23   S    
C16   H104  S    
C117  C131  A    
C299  C307  A    
C10   C18   A    
C62   Cl54  S    
C197  C245  A    
C287  C295  A    
C288  C296  A    
C149  C155  A    
C147  C153  A    
C39   H71   S    
C253  H37   S    
C128  C156  A    
C178  C186  A    
C218  H82   S    
C129  C137  A    
C284  C292  A    
C187  Cl23  S    
C303  H63   S    
Cu2   O6    S    
C163  O55   S    
C231  N7    S    
C185  Cl21  S    
C182  C190  A    
Cu2   O5    S    
C161  O53   S    
C218  C226  A    
C26   C102  S    
Cu3   O12   S    
C85   H13   S    
C57   C65   A    
C109  N1    A    
Cu9   O31   S    
C210  C222  A    
Cu10  O32   S    
C112  O36   S    
C69   C77   A    
C1    O9    A    
C75   C83   A    
C174  C182  A    
C71   C79   A    
C144  H56   S    
C236  Cl36  S    
C13   H101  S    
C205  C217  A    
C173  Cl9   S    
C217  H81   S    
C199  C215  A    
C167  O19   A    
Cu12  O48   S    
C110  C258  A    
C237  Cl37  S    
C145  C159  A    
C223  C227  A    
Cu1   Cu3   S    
C146  C160  A    
C136  H48   S    
C66   C74   A    
C69   H77   S    
C286  C294  A    
C115  O39   S    
Cu6   Cu8   S    
C59   C67   A    
C310  H6    S    
C113  O37   S    
C282  C290  A    
C295  Cl47  S    
C66   H74   S    
C35   C43   A    
C74   Cl2   S    
C301  C309  A    
C229  N5    S    
C165  O25   A    
C44   C52   A    
C1    O1    A    
C290  Cl42  S    
C257  C269  A    
C77   C85   A    
C305  H1    S    
Cu6   O58   S    
C29   C105  S    
C294  Cl46  S    
C181  C189  A    
C172  O32   A    
C89   O43   A    
C297  C305  A    
C95   C103  A    
C64   C108  A    
C299  H59   S    
C3    C44   S    
Cu5   O27   S    
C249  H33   S    
C6    C47   S    
C220  C226  A    
Cu4   O16   S    
C297  H57   S    
C28   C36   A    
C9    C49   A    
C5    O13   A    
C134  H46   S    
C148  C158  A    
C276  C284  A    
C201  N1    S    
C277  C285  A    
Cu12  O24   S    
C91   O47   A    
C131  H43   S    
C15   C55   A    
C78   Cl6   S    
C16   C56   A    
C111  O35   S    
C196  C214  A    
C10   H98   S    
C123  C127  A    
C67   H75   S    
C124  C196  A    
C55   C287  S    
C4    O12   A    
C247  H31   S    
C56   C288  S    
C76   Cl4   S    
C94   C102  A    
Cu3   O10   S    
C42   C50   A    
C58   C102  A    
C182  Cl18  S    
C243  H27   S    
C179  C203  A    
C205  Cl25  S    
Cu8   O44   S    
C184  C190  A    
C67   C75   A    
C293  C301  A    
Cu8   O26   S    
C118  C198  A    
C158  N6    A    
C61   C105  A    
C295  C303  A    
C90   C190  S    
C207  Cl27  S    
C296  C304  A    
C195  C243  A    
C296  Cl48  S    
C22   C30   A    
C206  Cl26  S    
C193  C241  A    
C167  O27   A    
C6    O6    A    
Cu7   O43   S    
C238  C278  A    
C279  C287  A    
C9    H97   S    
C68   C76   A    
C57   C101  A    
C109  C257  A    
C124  C134  A    
C188  C192  A    
C59   C103  A    
C14   C22   A    
C139  H51   S    
C144  C152  A    
C37   H69   S    
C112  C260  A    
Cu9   O61   S    
C100  H24   S    
C87   H15   S    
C138  C146  A    
C21   C169  S    
C111  N1    A    
C79   Cl7   S    
C200  C216  A    
C260  C270  A    
C24   C172  S    
C97   H21   S    
C166  O18   A    
C131  C139  A    
C226  C265  S    
C262  C272  A    
C278  H94   S    
C157  O49   S    
C254  C262  A    
C179  Cl15  S    
C150  C164  A    
C210  C232  A    
C130  H42   S    
C177  Cl13  S    
C72   H80   S    
C117  C125  A    
C268  O64   A    
C25   C33   A    
C23   C171  S    
C244  H28   S    
Cu7   O25   S    
C267  O63   A    
C235  C275  A    
C18   C26   A    
Cu2   O8    S    
C290  C298  A    
C76   C84   A    
C117  C197  A    
C289  Cl41  S    
C246  H30   S    
C11   C19   A    
C91   O45   A    
C291  Cl43  S    
C123  C133  A    
C119  C199  A    
C137  C145  A    
C70   C78   A    
C159  N5    A    
C164  O56   S    
C121  C127  A    
C212  C224  A    
C120  C126  A    
C179  C187  A    
Cu2   Cu4   S    
C224  C228  A    
C116  N4    A    
C177  C185  A    
C15   H103  S    
Cu5   Cu7   S    
C175  Cl11  S    
C180  C188  A    
C251  C259  A    
Cu3   O9    S    
C279  H95   S    
C300  H60   S    
Cu1   O3    S    
C110  N2    A    
C239  C279  A    
C177  C203  A    
C90   O42   A    
Cu8   O20   S    
C244  C252  A    
C248  H32   S    
C259  C269  A    
C251  H35   S    
C171  O31   A    
C124  C128  A    
C311  H7    S    
C169  O29   A    
C264  C272  A    
C12   H100  S    
C123  C195  A    
C4    O4    A    
C307  H3    S    
C74   C82   A    
C111  C259  A    
C263  C271  A    
C12   C52   A    
C185  C191  A    
C13   C53   A    
C98   H22   S    
C309  H5    S    
C242  C250  A    
C57   Cl49  S    
C180  Cl16  S    
C127  C155  A    
C176  C184  A    
C246  C254  A    
C129  H41   S    
C140  H52   S    
C80   Cl8   S    
C211  Cl31  S    
C96   H20   S    
C256  H40   S    
C280  C288  A    
C308  H4    S    
C228  C267  S    
C134  C142  A    
C174  Cl10  S    
C113  N3    A    
C166  O26   A    
C236  C308  A    
C114  N4    A    
C233  C273  A    
C273  C281  A    
C46   C54   A    
C132  H44   S    
C241  C249  A    
C242  H26   S    
Cu6   O42   S    
C88   C100  A    
C170  O22   A    
C119  C125  A    
C170  O30   A    
Cu9   O45   S    
C222  H86   S    
C292  C300  A    
C34   H66   S    
C93   C101  A    
C176  Cl12  S    
C274  H90   S    
Cu3   O11   S    
Cu5   O41   S    
C90   O44   A    
C237  C309  A    
C148  C154  A    
C2    O10   A    
C202  N2    S    
C278  C286  A    
C266  O58   A    
C142  H54   S    
C294  C302  A    
C249  C257  A    
C180  C204  A    
C92   O48   A    
C194  C214  A    
C133  H45   S    
C138  H50   S    
C54   C286  S    
C41   C49   A    
C99   C107  A    
C234  Cl34  S    
C133  C141  A    
C283  C291  A    
C142  C150  A    
C243  C251  A    
C306  H2    S    
C136  C144  A    
C17   C165  S    
C3    O3    A    
C43   C51   A    
C245  C253  A    
C198  C246  A    
C61   Cl53  S    
C27   C103  S    
C120  C200  A    
C163  N7    A    
C9    C17   A    
C122  C128  A    
C258  C270  A    
C195  C213  A    
Cu11  O47   S    
C298  H58   S    
Cu6   O28   S    
Cu10  O46   S    
C1    C42   S    
C234  C306  A    
C60   C68   A    
C72   C80   A    
C78   C86   A    
C8    O8    A    
C29   C37   A    
Cu11  O63   S    
C186  Cl22  S    
C89   C189  S    
C83   H11   S    
C162  O54   S    
C7    O7    A    
C152  C162  A    
C92   C192  S    
C203  N3    S    
C247  C255  A    
C208  C220  A    
C254  H38   S    
Cu1   O2    S    
C208  Cl28  S    
C37   C45   A    
C178  C204  A    
C206  C230  A    
C302  H62   S    
C171  O23   A    
C140  C148  A    
C38   H70   S    
C141  C149  A    
C265  O59   A    
Cu9   O21   S    
C139  C147  A    
C196  C244  A    
C120  C130  A    
Cu4   O13   S    
C137  H49   S    
C7    O15   A    
C227  C268  S    
C181  Cl17  S    
C115  N3    A    
C65   C73   A    
C84   C96   A    
C49   C281  S    
C40   C48   A    
C292  Cl44  S    
C114  O38   S    
C119  C129  A    
C26   C34   A    
C31   C39   A    
Cu9   Cu11  S    
C224  H88   S    
C206  C218  A    
C159  O51   S    
C149  C163  A    
C222  C228  A    
C291  C299  A    
C276  H92   S    
C187  C191  A    
C197  C215  A    
C85   C97   A    
C73   Cl1   S    
C145  C153  A    
C300  C308  A    
C64   C72   A    
Cu12  O30   S    
C16   C24   A    
C150  C156  A    
C30   C106  S    
C186  C192  A    
C62   C70   A    
C51   C283  S    
C60   Cl52  S    
C143  H55   S    
C25   C101  S    
C160  N6    A    
C40   H72   S    
C19   C27   A    
C214  C270  A    
C58   C66   A    
C68   H76   S    
C87   C99   A    
C250  H34   S    
C38   C46   A    
C3    O11   A    
C5    O5    A    
C82   H10   S    
C118  C132  A    
C33   C41   A    
C50   C282  S    
C273  H89   S    
Cu11  O29   S    
C261  C271  A    
C275  H91   S    
C184  Cl20  S    
C86   H14   S    
Cu4   O14   S    
C71   H79   S    
C161  N7    A    
C77   Cl5   S    
C265  O57   A    
C162  N8    A    
C81   C93   A    
C208  C230  A    
Cu12  O64   S    
C174  C202  A    
C2    C43   S    
C122  C136  A    
C302  C310  A    
C94   H18   S    
C213  C269  A    
C113  C261  A    
C83   C95   A    
C219  C225  A    
C115  C263  A    
C298  C306  A    
C121  C193  A    
C239  Cl39  S    
C14   C54   A    
Cu1   O4    S    
C58   Cl50  S    
C63   C107  A    
C147  C157  A    
C293  Cl45  S    
C225  C266  S    
C275  C283  A    
C47   C55   A    
C92   O46   A    
C175  C201  A    
C61   C69   A    
C48   C56   A    
C194  C242  A    
Cu4   O15   S    
C255  H39   S    
C63   C71   A    
C17   C25   A    
C277  H93   S    
C248  C256  A    
C199  C247  A    
C95   H19   S    
C84   H12   S    
C207  C219  A    
C234  C274  A    
C215  C271  A    
C172  O24   A    
C96   C104  A    
Cu10  O62   S    
C60   C104  A    
C266  O60   A    
C220  H84   S    
C217  C225  A    
C36   H68   S    
C169  O21   A    
C135  C143  A    
C110  O34   S    
C173  C181  A    
C168  O28   A    
C11   C51   A    
C209  C231  A    
C204  N4    S    
C45   C53   A    
C158  O50   S    
C81   H9    S    
C238  C310  A    
C32   C108  S    
C285  C293  A    
C178  Cl14  S    
C6    O14   A    
C304  H64   S    
C223  H87   S    
C118  C126  A    
Cu7   O59   S    
C165  O17   A    
C250  C258  A    
C135  H47   S    
C281  C289  A    
C221  H85   S    
C10   C50   A    
