data_mof_unit_63305.cif
_audit_creation_date              2013-03-05T16:18:46-0500
_audit_creation_method            fapswitch 2.2
_symmetry_space_group_name_H-M    P1
_symmetry_Int_Tables_number       1
_space_group_crystal_system       triclinic
_cell_length_a                    32.524824
_cell_length_b                    33.95847
_cell_length_c                    22.431501
_cell_angle_alpha                 90.037475
_cell_angle_beta                  89.374434
_cell_angle_gamma                 89.970366
_cell_volume                      24773.9562764

loop_
_atom_site_label
_atom_site_type_symbol
_atom_site_description
_atom_site_fract_x
_atom_site_fract_y
_atom_site_fract_z
_atom_type_partial_charge
O1    O     O_R   0.041070 0.458950 0.550320 -0.530963
O2    O     O_R   0.958930 0.541050 0.449680 -0.575762
O3    O     O_R   0.958930 0.541050 0.550320 -0.531117
O4    O     O_R   0.041070 0.458950 0.449680 -0.579542
O5    O     O_R   0.958930 0.458950 0.449680 -0.558110
O6    O     O_R   0.041070 0.541050 0.550320 -0.530003
O7    O     O_R   0.041070 0.541050 0.449680 -0.558602
O8    O     O_R   0.958930 0.458950 0.550320 -0.531948
O9    O     O_R   0.541070 0.958950 0.550320 -0.565896
O10   O     O_R   0.458930 0.041050 0.449680 -0.557465
O11   O     O_R   0.458930 0.041050 0.550320 -0.541755
O12   O     O_R   0.541070 0.958950 0.449680 -0.525677
O13   O     O_R   0.458930 0.958950 0.449680 -0.530837
O14   O     O_R   0.541070 0.041050 0.550320 -0.564859
O15   O     O_R   0.541070 0.041050 0.449680 -0.529780
O16   O     O_R   0.458930 0.958950 0.550320 -0.557524
C1    C     C_R   0.032423 0.515727 0.318279 0.421596
C2    C     C_R   0.964290 0.506890 0.680893 0.438248
C3    C     C_R   0.967473 0.484507 0.319185 0.422764
C4    C     C_R   0.035669 0.493256 0.679956 0.440617
C5    C     C_R   0.534756 0.011234 0.319380 0.438698
C6    C     C_R   0.466476 0.009983 0.685391 0.410623
C7    C     C_R   0.465931 0.988453 0.318993 0.438661
C8    C     C_R   0.535855 0.989202 0.678028 0.431585
C9    C     C_R   0.054216 0.444970 0.499759 0.902960
C10   C     C_R   0.946085 0.555154 0.500302 0.909335
C11   C     C_R   0.945062 0.446067 0.500163 0.896758
C12   C     C_R   0.054987 0.553842 0.499757 0.900560
C13   C     C_R   0.554927 0.946062 0.499864 0.903609
C14   C     C_R   0.446246 0.055724 0.499731 0.872788
C15   C     C_R   0.446314 0.944603 0.500019 0.890859
C16   C     C_R   0.553751 0.055165 0.499719 0.894075
Cu1   Cu    Cu3+1 1.000000 0.500000 0.559570 1.149421
Cu2   Cu    Cu3+1 0.000000 0.500000 0.440430 1.085595
Cu3   Cu    Cu3+1 0.500000 1.000000 0.559570 1.096643
Cu4   Cu    Cu3+1 0.500000 1.000000 0.440430 1.135650
N1    N     N_R   0.000000 0.500000 0.350920 -0.288179
N2    N     N_R   1.000000 0.500000 0.649080 -0.294419
N3    N     N_R   0.500000 0.000000 0.350920 -0.289257
N4    N     N_R   0.500000 1.000000 0.649080 -0.285078
C17   C     C_R   0.176482 0.702430 0.452768 0.654703
C18   C     C_R   0.817482 0.303603 0.448037 0.663419
C19   C     C_R   0.822592 0.701727 0.455418 0.651410
C20   C     C_R   0.174794 0.293877 0.468552 0.654579
C21   C     C_R   0.676176 0.202858 0.549136 0.663322
C22   C     C_R   0.324596 0.795260 0.544511 0.651993
C23   C     C_R   0.350347 0.227759 0.482373 0.679148
C24   C     C_R   0.674085 0.796219 0.546761 0.655250
N5    N     N_R   0.175689 0.675221 0.497461 -0.459949
N6    N     N_R   0.823036 0.325729 0.498045 -0.461865
N7    N     N_R   0.820722 0.673106 0.497978 -0.462987
N8    N     N_R   0.184321 0.331181 0.486344 -0.459399
N9    N     N_R   0.671450 0.179902 0.499788 -0.458595
N10   N     N_R   0.323176 0.824376 0.502739 -0.463641
N11   N     N_R   0.339968 0.189685 0.470449 -0.466706
N12   N     N_R   0.674068 0.823163 0.501704 -0.459383
C25   C     C_R   0.201881 0.677278 0.544453 0.659423
C26   C     C_R   0.800611 0.319521 0.548883 0.654645
C27   C     C_R   0.789743 0.671814 0.539376 0.664164
C28   C     C_R   0.223967 0.342421 0.496174 0.658727
C29   C     C_R   0.695903 0.184178 0.450445 0.659547
C30   C     C_R   0.292592 0.826195 0.461726 0.659954
C31   C     C_R   0.301122 0.179441 0.454178 0.639562
C32   C     C_R   0.700723 0.820560 0.454494 0.659723
C33   C     C_R   0.233034 0.706184 0.545822 -0.141067
C34   C     C_R   0.769124 0.290857 0.550352 -0.142362
C35   C     C_R   0.760265 0.702292 0.542507 -0.146304
C36   C     C_R   0.256571 0.315008 0.490297 -0.148951
C37   C     C_R   0.726218 0.213971 0.448084 -0.144805
C38   C     C_R   0.263155 0.795787 0.458049 -0.144659
C39   C     C_R   0.269286 0.207776 0.453896 -0.141522
C40   C     C_R   0.731547 0.791289 0.453178 -0.141604
C41   C     C_R   0.233484 0.735533 0.500903 -0.062082
C42   C     C_R   0.763162 0.267128 0.499109 -0.060525
C43   C     C_R   0.761045 0.731785 0.497794 -0.062871
C44   C     C_R   0.247177 0.275852 0.473235 -0.061413
C45   C     C_R   0.732288 0.237605 0.499399 -0.061407
C46   C     C_R   0.263374 0.765854 0.502072 -0.063356
C47   C     C_R   0.278900 0.247194 0.469191 -0.060185
C48   C     C_R   0.731321 0.762300 0.498642 -0.062110
C49   C     C_R   0.204065 0.734493 0.454744 -0.148065
C50   C     C_R   0.788068 0.272963 0.447559 -0.147873
C51   C     C_R   0.791670 0.730820 0.452348 -0.144556
C52   C     C_R   0.205987 0.265251 0.460775 -0.143618
C53   C     C_R   0.707461 0.231703 0.551006 -0.148248
C54   C     C_R   0.293568 0.766221 0.547191 -0.145641
C55   C     C_R   0.320165 0.257804 0.481206 -0.146112
C56   C     C_R   0.701429 0.763920 0.545063 -0.147386
C57   C     C_R   0.263023 0.707027 0.591143 0.244370
C58   C     C_R   0.743998 0.284891 0.601543 0.246174
C59   C     C_R   0.729903 0.703802 0.588218 0.245543
C60   C     C_R   0.298098 0.325632 0.500161 0.245085
C61   C     C_R   0.751063 0.220212 0.396677 0.246806
C62   C     C_R   0.233336 0.794801 0.412508 0.246062
C63   C     C_R   0.228272 0.197813 0.439586 0.248181
C64   C     C_R   0.761889 0.789758 0.407436 0.244857
C65   C     C_R   0.782129 0.248845 0.396813 0.248325
C66   C     C_R   0.203789 0.764752 0.411301 0.247574
C67   C     C_R   0.197135 0.226353 0.441997 0.249956
C68   C     C_R   0.791281 0.759531 0.406570 0.248608
C69   C     C_R   0.292632 0.737024 0.592266 0.248216
C70   C     C_R   0.714039 0.255205 0.602233 0.248184
C71   C     C_R   0.700473 0.734002 0.589044 0.248041
C72   C     C_R   0.329612 0.297563 0.494382 0.247875
O17   O     O_2   0.150998 0.697760 0.406264 -0.419844
O18   O     O_2   0.840019 0.312021 0.398863 -0.416253
O19   O     O_2   0.854933 0.702237 0.417274 -0.429123
O20   O     O_2   0.135048 0.284758 0.459056 -0.428412
O21   O     O_2   0.650085 0.197853 0.595651 -0.419497
O22   O     O_2   0.356554 0.794259 0.582294 -0.426172
O23   O     O_2   0.389405 0.235861 0.497733 -0.402332
O24   O     O_2   0.648093 0.801405 0.593371 -0.422125
O25   O     O_2   0.197190 0.651501 0.589735 -0.417955
O26   O     O_2   0.809260 0.341068 0.597686 -0.417378
O27   O     O_2   0.787666 0.640818 0.576847 -0.402443
O28   O     O_2   0.231401 0.380050 0.511956 -0.404992
O29   O     O_2   0.690916 0.159152 0.404383 -0.412822
O30   O     O_2   0.290816 0.857680 0.425222 -0.409465
O31   O     O_2   0.293562 0.141616 0.439585 -0.422098
O32   O     O_2   0.696835 0.846195 0.408998 -0.420036
C73   C     C_R   0.840814 0.396516 0.492471 0.290662
C74   C     C_R   0.158598 0.604365 0.487926 0.290653
C75   C     C_R   0.122985 0.357600 0.540179 0.295130
C76   C     C_R   0.881248 0.643802 0.546438 0.294149
C77   C     C_R   0.384039 0.854449 0.454458 0.295186
C78   C     C_R   0.603835 0.154105 0.467695 0.305971
C79   C     C_R   0.657759 0.894213 0.511185 0.291496
C80   C     C_R   0.368077 0.138005 0.535136 0.294391
C81   C     C_R   0.870900 0.426550 0.493533 0.250549
C82   C     C_R   0.128859 0.574023 0.489706 0.247352
C83   C     C_R   0.089995 0.384923 0.543118 0.225514
C84   C     C_R   0.912768 0.615210 0.547367 0.229191
C85   C     C_R   0.415056 0.883586 0.453326 0.230378
C86   C     C_R   0.575028 0.122955 0.467039 0.235018
C87   C     C_R   0.628426 0.924913 0.509485 0.252395
C88   C     C_R   0.392904 0.104285 0.542493 0.214739
C89   C     C_R   0.912711 0.416202 0.500451 -0.146354
C90   C     C_R   0.087047 0.583906 0.499086 -0.145896
C91   C     C_R   0.086542 0.414264 0.498392 -0.175918
C92   C     C_R   0.915017 0.586772 0.500963 -0.177081
C93   C     C_R   0.416247 0.912008 0.499946 -0.191325
C94   C     C_R   0.583219 0.087922 0.498811 -0.179940
C95   C     C_R   0.586659 0.915609 0.499818 -0.150303
C96   C     C_R   0.419403 0.091434 0.496041 -0.200309
C97   C     C_R   0.924191 0.376647 0.504821 -0.192286
C98   C     C_R   0.075202 0.623254 0.505131 -0.191435
C99   C     C_R   0.115365 0.415222 0.451447 -0.143567
C100  C     C_R   0.886337 0.587810 0.454754 -0.148647
C101  C     C_R   0.387468 0.909877 0.546877 -0.180909
C102  C     C_R   0.619497 0.084517 0.531321 -0.118176
C103  C     C_R   0.574410 0.876391 0.493980 -0.194243
C104  C     C_R   0.420458 0.113453 0.442675 -0.115975
H1    H     H_    0.956227 0.368563 0.508995 0.207581
H2    H     H_    0.043157 0.631078 0.510360 0.212481
H3    H     H_    0.113365 0.437125 0.416731 0.239894
H4    H     H_    0.887437 0.566421 0.419073 0.238355
H5    H     H_    0.387880 0.930820 0.583053 0.239196
H6    H     H_    0.626364 0.057873 0.555474 0.251686
H7    H     H_    0.542348 0.868904 0.489277 0.214061
H8    H     H_    0.440390 0.104914 0.405905 0.225325
C105  C     C_R   0.894626 0.347150 0.502891 -0.089414
C106  C     C_R   0.104428 0.652977 0.503638 -0.089732
C107  C     C_R   0.147630 0.388533 0.448836 -0.107490
C108  C     C_R   0.855371 0.615911 0.454355 -0.094874
C109  C     C_R   0.357067 0.881240 0.547396 -0.100920
C110  C     C_R   0.647846 0.115074 0.531994 -0.108922
C111  C     C_R   0.603222 0.846299 0.495471 -0.092299
C112  C     C_R   0.395713 0.146583 0.435250 -0.081733
H9    H     H_    0.903934 0.316634 0.506579 0.194000
H10   H     H_    0.094800 0.683294 0.509339 0.196404
H11   H     H_    0.169368 0.389877 0.411971 0.196342
H12   H     H_    0.833333 0.616022 0.418503 0.199721
H13   H     H_    0.334811 0.880502 0.583646 0.199146
H14   H     H_    0.676066 0.111665 0.556652 0.199667
H15   H     H_    0.593280 0.816094 0.489950 0.197216
H16   H     H_    0.396352 0.162254 0.393226 0.194964
C113  C     C_R   0.853072 0.356748 0.496982 0.168592
C114  C     C_R   0.146027 0.643906 0.495479 0.166332
C115  C     C_R   0.151844 0.359789 0.492729 0.169351
C116  C     C_R   0.852625 0.643891 0.499795 0.165786
C117  C     C_R   0.355008 0.853681 0.501425 0.168882
C118  C     C_R   0.640462 0.149738 0.500326 0.159332
C119  C     C_R   0.644798 0.854848 0.503587 0.165292
C120  C     C_R   0.369275 0.158800 0.480998 0.163467
C121  C     C_R   0.000021 0.500073 0.222956 0.198029
C122  C     C_R   0.999880 0.500170 0.776184 0.196887
C123  C     C_R   0.501833 0.998999 0.223492 0.193851
C124  C     C_R   0.505277 0.998705 0.777157 0.192080
C125  C     C_R   0.033665 0.513257 0.872585 0.628814
C126  C     C_R   0.963743 0.503822 0.126632 0.625945
C127  C     C_R   0.966031 0.487288 0.873671 0.628995
C128  C     C_R   0.036230 0.496537 0.125402 0.624899
C129  C     C_R   0.541536 0.004510 0.873696 0.633952
C130  C     C_R   0.467881 0.006384 0.126027 0.626825
C131  C     C_R   0.470976 0.987068 0.874056 0.619462
C132  C     C_R   0.538713 0.989975 0.127190 0.629955
N13   N     N_R   0.999847 0.500252 0.841910 -0.440152
N14   N     N_R   0.999999 0.500144 0.157230 -0.439454
N15   N     N_R   0.506227 0.996483 0.842721 -0.440490
N16   N     N_R   0.502849 0.998434 0.157807 -0.439289
C133  C     C_R   0.963315 0.492334 0.936652 -0.122551
C134  C     C_R   0.037391 0.502142 0.062464 -0.120542
C135  C     C_R   0.036445 0.508181 0.935451 -0.122326
C136  C     C_R   0.962513 0.498269 0.063719 -0.121381
C137  C     C_R   0.468281 0.992802 0.936702 -0.119992
C138  C     C_R   0.541482 0.994706 0.064140 -0.122528
C139  C     C_R   0.542952 0.999545 0.936844 -0.123203
C140  C     C_R   0.466723 0.000226 0.063327 -0.120704
C141  C     C_R   0.999899 0.500240 0.967854 -0.077553
C142  C     C_R   0.999934 0.500214 0.031289 -0.078249
C143  C     C_R   0.505260 0.996556 0.968552 -0.077845
C144  C     C_R   0.504504 0.997173 0.031949 -0.077908
C145  C     C_R   0.925806 0.488763 0.969348 0.257049
C146  C     C_R   0.074488 0.508538 0.029778 0.255549
C147  C     C_R   0.073988 0.511741 0.966885 0.256677
C148  C     C_R   0.925378 0.491914 0.032269 0.255510
C149  C     C_R   0.430204 0.994094 0.968344 0.255726
C150  C     C_R   0.579530 0.995980 0.032324 0.256451
C151  C     C_R   0.580259 0.998637 0.969304 0.256565
C152  C     C_R   0.429430 0.998007 0.031093 0.256530
O33   O     O_2   0.063586 0.532653 0.842878 -0.441678
O34   O     O_2   0.929415 0.514616 0.156477 -0.448632
O35   O     O_2   0.936052 0.467957 0.844901 -0.441353
O36   O     O_2   0.070600 0.485781 0.154064 -0.452202
O37   O     O_2   0.574423 0.018919 0.844071 -0.445671
O38   O     O_2   0.435017 0.021934 0.154470 -0.450238
O39   O     O_2   0.439262 0.970661 0.844997 -0.444233
O40   O     O_2   0.570917 0.975325 0.157161 -0.441803
C153  C     C_R   0.031199 0.518350 0.255524 -0.216662
C154  C     C_R   0.964446 0.509401 0.743642 -0.195212
C155  C     C_R   0.968797 0.481823 0.256405 -0.218921
C156  C     C_R   0.035372 0.490868 0.742700 -0.198220
C157  C     C_R   0.534878 0.013394 0.256659 -0.207174
C158  C     C_R   0.470966 0.013385 0.747903 -0.212092
C159  C     C_R   0.467711 0.985266 0.256237 -0.201900
C160  C     C_R   0.537597 0.985659 0.740735 -0.208073
H17   H     H_    0.055883 0.533512 0.232381 0.230013
H18   H     H_    0.936279 0.517562 0.766609 0.227551
H19   H     H_    0.944064 0.466774 0.233956 0.230087
H20   H     H_    0.063500 0.482778 0.764921 0.226594
H21   H     H_    0.561798 0.025096 0.234133 0.228337
H22   H     H_    0.446085 0.025208 0.774786 0.233250
H23   H     H_    0.441508 0.973237 0.233181 0.232388
H24   H     H_    0.565147 0.973800 0.760529 0.230590
N17   N     N_R   0.069519 0.527902 0.346096 0.156182
O41   O     O_R   0.084883 0.562430 0.334222 -0.300511
O42   O     O_R   0.092672 0.501587 0.370960 -0.310754
N18   N     N_R   0.925681 0.509807 0.651574 0.162531
O43   O     O_R   0.906261 0.477499 0.638738 -0.257968
O44   O     O_R   0.904583 0.542191 0.656611 -0.257368
N19   N     N_R   0.930031 0.473002 0.347925 0.157059
O45   O     O_R   0.914041 0.438749 0.336382 -0.300121
O46   O     O_R   0.907311 0.499700 0.373519 -0.305677
N20   N     N_R   0.074394 0.490414 0.649680 0.162475
O47   O     O_R   0.093840 0.522748 0.636522 -0.258686
O48   O     O_R   0.095530 0.458068 0.654182 -0.263622
N21   N     N_R   0.572610 0.019013 0.348697 0.164169
O49   O     O_R   0.594021 0.989508 0.368281 -0.255046
O50   O     O_R   0.590972 0.052572 0.339865 -0.262676
N22   N     N_R   0.425244 0.014343 0.663552 0.173271
O51   O     O_R   0.396469 0.027226 0.699446 -0.232382
O52   O     O_R   0.413437 0.995412 0.616804 -0.314007
N23   N     N_R   0.427213 0.980824 0.347712 0.154998
O53   O     O_R   0.408337 0.009295 0.375388 -0.299499
O54   O     O_R   0.405799 0.950349 0.331645 -0.264117
N24   N     N_R   0.573367 0.982495 0.646250 0.160272
O55   O     O_R   0.595661 0.012700 0.631361 -0.308402
O56   O     O_R   0.591091 0.948255 0.650511 -0.306988
N25   N     N_R   0.264580 0.677016 0.636013 0.195815
O57   O     O_R   0.278606 0.642216 0.622460 -0.181762
O58   O     O_R   0.257280 0.685875 0.691561 -0.206881
N26   N     N_R   0.748070 0.309077 0.653556 0.195045
O59   O     O_R   0.732658 0.344440 0.654056 -0.184241
O60   O     O_R   0.761856 0.293980 0.702739 -0.208950
N27   N     N_R   0.728893 0.675265 0.635299 0.195880
O61   O     O_R   0.698184 0.650884 0.639888 -0.201630
O62   O     O_R   0.755587 0.677270 0.677974 -0.184496
N28   N     N_R   0.309175 0.365189 0.515346 0.194497
O63   O     O_R   0.326982 0.387589 0.475779 -0.210878
O64   O     O_R   0.307127 0.376657 0.570650 -0.181278
N29   N     N_R   0.744993 0.197934 0.343173 0.195145
O65   O     O_R   0.714359 0.206363 0.308604 -0.191665
O66   O     O_R   0.772994 0.173196 0.324982 -0.205409
N30   N     N_R   0.233053 0.823697 0.365923 0.195573
O67   O     O_R   0.260486 0.822061 0.323338 -0.184207
O68   O     O_R   0.202398 0.848121 0.361678 -0.205693
N31   N     N_R   0.217422 0.158635 0.422023 0.194633
O69   O     O_R   0.210449 0.150898 0.366245 -0.216202
O70   O     O_R   0.208599 0.132447 0.462484 -0.189583
N32   N     N_R   0.763976 0.819243 0.361771 0.195633
O71   O     O_R   0.756695 0.809863 0.306648 -0.209005
O72   O     O_R   0.778539 0.853959 0.374045 -0.186528
N33   N     N_R   0.807610 0.252778 0.344596 0.195004
O73   O     O_R   0.792006 0.265724 0.295178 -0.196109
O74   O     O_R   0.844711 0.238430 0.344334 -0.220425
N34   N     N_R   0.173134 0.765946 0.365859 0.195074
O75   O     O_R   0.183709 0.761745 0.310115 -0.196357
O76   O     O_R   0.135649 0.776189 0.379541 -0.225421
N35   N     N_R   0.156521 0.215131 0.424511 0.194813
O77   O     O_R   0.142773 0.225816 0.372727 -0.224799
O78   O     O_R   0.135466 0.190323 0.456750 -0.195818
N36   N     N_R   0.820204 0.758157 0.357882 0.194919
O79   O     O_R   0.816452 0.731444 0.316695 -0.227326
O80   O     O_R   0.846950 0.786288 0.350801 -0.197921
N37   N     N_R   0.321225 0.737643 0.640484 0.195033
O81   O     O_R   0.347811 0.709302 0.646265 -0.195192
O82   O     O_R   0.317241 0.763792 0.682575 -0.225811
N38   N     N_R   0.690680 0.249248 0.656045 0.195121
O83   O     O_R   0.664776 0.275995 0.674225 -0.192944
O84   O     O_R   0.699436 0.219835 0.690819 -0.219998
N39   N     N_R   0.669245 0.733318 0.634672 0.194764
O85   O     O_R   0.631854 0.723279 0.621340 -0.223850
O86   O     O_R   0.679149 0.737817 0.690297 -0.197564
N40   N     N_R   0.371325 0.310278 0.501433 0.194441
O87   O     O_R   0.395676 0.312386 0.455143 -0.214743
O88   O     O_R   0.383560 0.323908 0.552466 -0.187098
N41   N     N_R   0.797904 0.406299 0.489026 0.170928
O89   O     O_R   0.773892 0.387170 0.453157 -0.266042
O90   O     O_R   0.782265 0.433224 0.523803 -0.190814
N42   N     N_R   0.201464 0.595156 0.480276 0.173386
O91   O     O_R   0.224209 0.615307 0.443253 -0.264978
O92   O     O_R   0.218437 0.568025 0.512746 -0.179378
N43   N     N_R   0.126333 0.326729 0.583629 0.173739
O93   O     O_R   0.094785 0.304551 0.596095 -0.209163
O94   O     O_R   0.161648 0.318710 0.607482 -0.262133
N44   N     N_R   0.879678 0.674384 0.590432 0.158176
O95   O     O_R   0.885717 0.710768 0.574512 -0.274326
O96   O     O_R   0.864736 0.666959 0.643258 -0.187076
N45   N     N_R   0.383311 0.824015 0.410236 0.158836
O97   O     O_R   0.391110 0.787847 0.425476 -0.270385
O98   O     O_R   0.367274 0.831019 0.358438 -0.188252
N46   N     N_R   0.596122 0.189775 0.435057 0.174792
O99   O     O_R   0.605296 0.223884 0.457758 -0.268296
O100  O     O_R   0.580405 0.188331 0.382005 -0.191141
N47   N     N_R   0.700616 0.902889 0.518929 0.173069
O101  O     O_R   0.722584 0.882309 0.555719 -0.268182
O102  O     O_R   0.718348 0.930091 0.486938 -0.191264
N48   N     N_R   0.340456 0.150418 0.581951 0.159773
O103  O     O_R   0.340778 0.186697 0.600573 -0.269375
O104  O     O_R   0.313496 0.126066 0.604114 -0.195982
N49   N     N_R   0.859093 0.467021 0.485544 0.163944
O105  O     O_R   0.873485 0.494353 0.520149 -0.304231
O106  O     O_R   0.833333 0.476673 0.444023 -0.211600
N50   N     N_R   0.140971 0.533728 0.480349 0.164471
O107  O     O_R   0.127370 0.506093 0.515471 -0.304390
O108  O     O_R   0.166287 0.524555 0.437208 -0.207892
N51   N     N_R   0.059936 0.382195 0.590421 0.170762
O109  O     O_R   0.071401 0.377507 0.645358 -0.208518
O110  O     O_R   0.020931 0.381551 0.578279 -0.356735
N52   N     N_R   0.943856 0.617077 0.592441 0.160646
O111  O     O_R   0.933839 0.621663 0.648298 -0.206157
O112  O     O_R   0.982551 0.616912 0.577360 -0.373384
N53   N     N_R   0.446617 0.882334 0.407772 0.159428
O113  O     O_R   0.437559 0.874729 0.352630 -0.205250
O114  O     O_R   0.485101 0.885132 0.422097 -0.376045
N54   N     N_R   0.536141 0.128348 0.438681 0.124316
O115  O     O_R   0.528273 0.110156 0.389070 -0.290947
O116  O     O_R   0.511150 0.155627 0.457726 -0.292255
N55   N     N_R   0.640823 0.964975 0.519560 0.159003
O117  O     O_R   0.628344 0.992938 0.484583 -0.319676
O118  O     O_R   0.665227 0.973603 0.563253 -0.212954
N56   N     N_R   0.389221 0.082629 0.596339 0.168023
O119  O     O_R   0.359969 0.056623 0.600324 -0.198355
O120  O     O_R   0.403738 0.098159 0.644783 -0.249671
Br1   Br    Br    0.873393 0.484509 0.929445 -0.175154
Br2   Br    Br    0.126133 0.518093 0.069695 -0.194018
Br3   Br    Br    0.126353 0.516044 0.925214 -0.182047
Br4   Br    Br    0.873780 0.482331 0.073910 -0.188196
Br5   Br    Br    0.378159 0.995850 0.927018 -0.188393
Br6   Br    Br    0.631533 0.999155 0.073527 -0.179007
Br7   Br    Br    0.633277 0.996191 0.929080 -0.186166
Br8   Br    Br    0.376520 0.995090 0.071573 -0.186132

loop_
_geom_bond_atom_site_label_1
_geom_bond_atom_site_label_2
_geom_bond_distance
_ccdc_geom_bond_type
C132  O40   1.346045 S    
C72   N40   1.434346 S    
C5    N21   1.426839 S    
C44   C47   1.420099 A    
C47   C55   1.418444 A    
O15   C16   1.292029 A    
C125  C135  1.424632 A    
O16   C15   1.299408 A    
C33   C57   1.416806 A    
C75   N43   1.436778 S    
C17   O17   1.348744 S    
C135  C147  1.421864 A    
N30   O67   1.301129 A    
C64   N32   1.433990 S    
C37   C61   1.416961 A    
O16   Cu3   1.943769 S    
C21   O21   1.348601 S    
C39   C63   1.416557 A    
C137  C143  1.411389 A    
C30   C38   1.411530 A    
N20   O48   1.300056 A    
C3    N1    1.385379 A    
C6    C158  1.416059 A    
Cu3   Cu4   2.672487 S    
N26   O59   1.301074 A    
N31   O70   1.300984 A    
C154  H18   1.082009 S    
N44   O95   1.300750 A    
C128  N14   1.376487 A    
C99   H3    1.079680 S    
C16   C94   1.468707 S    
C57   C69   1.402606 A    
O2    Cu2   1.939658 S    
C95   C103  1.396783 A    
N17   O41   1.301373 A    
C77   N45   1.432440 S    
C17   N5    1.363882 A    
N53   O114  1.299188 A    
N18   O44   1.300160 A    
C73   N41   1.437374 S    
C110  H14   1.083000 S    
N43   O93   1.301214 A    
N19   O45   1.301402 A    
C2    C154  1.410165 A    
C25   C33   1.411658 A    
N47   O102  1.301247 A    
N40   O87   1.301066 A    
C129  N15   1.376009 A    
O7    C12   1.290763 A    
O10   C14   1.291497 A    
C98   H2    1.080578 S    
C7    N23   1.432067 S    
C140  C144  1.413163 A    
O2    C10   1.296962 A    
C134  C146  1.421873 A    
C18   O18   1.348588 S    
C159  H23   1.081833 S    
C123  C157  1.401821 A    
C83   N51   1.437997 S    
N34   O75   1.300968 A    
C31   C39   1.413209 A    
C51   C68   1.416592 A    
N25   O58   1.300941 A    
C130  N16   1.375575 A    
C153  H17   1.082049 S    
C82   C90   1.414046 A    
C127  O35   1.346094 S    
C130  C140  1.422685 A    
C50   C65   1.416900 A    
C125  N13   1.376567 A    
N23   O54   1.300689 A    
C38   C62   1.416685 A    
C5    N3    1.381043 A    
O3    C10   1.293629 A    
C59   C71   1.402476 A    
C25   O25   1.348772 S    
C122  C154  1.406283 A    
Cu1   N2    2.007844 S    
C32   O32   1.348775 S    
O6    Cu1   1.940844 S    
C131  O39   1.346890 S    
C123  N16   1.473533 S    
C29   C37   1.413707 A    
O11   Cu3   1.942970 S    
Cu3   N4    2.007844 S    
C2    N2    1.376354 A    
C129  O37   1.345598 S    
C48   C56   1.417874 A    
C152  Br8   1.939566 S    
C126  C136  1.424650 A    
C97   C105  1.389871 A    
C23   O23   1.348351 S    
C59   N27   1.433946 S    
C36   C60   1.417869 A    
C85   N53   1.441067 S    
C63   C67   1.401969 A    
C132  C138  1.425393 A    
N52   O111  1.300433 A    
C67   N35   1.433767 S    
C60   C72   1.404249 A    
N47   O101  1.301201 A    
C40   C64   1.416744 A    
C138  C144  1.412036 A    
C122  C156  1.406022 A    
C78   C86   1.413638 A    
N55   O117  1.299831 A    
C79   N47   1.437218 S    
C127  C133  1.424795 A    
O14   C16   1.295731 A    
C103  H7    1.079777 S    
C13   C95   1.460659 S    
C74   N42   1.437101 S    
O12   C13   1.293599 A    
C19   C51   1.411694 A    
C37   C45   1.418445 A    
C110  C118  1.397299 A    
C43   C51   1.417819 A    
C39   C47   1.417553 A    
O4    C9    1.296571 A    
O3    Cu1   1.942970 S    
C137  C149  1.421343 A    
C150  Br6   1.939291 S    
C103  C111  1.386818 A    
C69   N37   1.434252 S    
N56   O119  1.300870 A    
C102  C110  1.388657 A    
N5    C25   1.364311 A    
C76   C84   1.411950 A    
N21   O49   1.299357 A    
C58   C70   1.402391 A    
N8    C28   1.365174 A    
C27   C35   1.411656 A    
O5    C11   1.291084 A    
N9    C29   1.363748 A    
O6    C12   1.292151 A    
N37   O82   1.301103 A    
C42   C45   1.419294 A    
N11   C31   1.364131 A    
N11   C120  1.438352 S    
N12   C32   1.364045 A    
C122  N13   1.474327 S    
C105  H9    1.082906 S    
C20   N8    1.364717 A    
C87   C95   1.413865 A    
C45   C53   1.418573 A    
C139  C143  1.414333 A    
N45   O98   1.300810 A    
C133  C141  1.412806 A    
N38   O84   1.301047 A    
C131  N15   1.376179 A    
N49   O106  1.301545 A    
N36   O80   1.300991 A    
C147  Br3   1.939479 S    
C100  C108  1.387186 A    
C130  O38   1.346294 S    
C101  C109  1.387197 A    
N46   O99   1.301120 A    
C75   C115  1.413427 A    
C73   C113  1.411895 A    
C6    N22   1.440360 S    
N43   O94   1.301150 A    
C23   C55   1.415947 A    
C15   C93   1.477404 S    
N33   O73   1.300915 A    
C8    C160  1.413561 A    
C31   O31   1.348723 S    
C1    N17   1.425717 S    
N54   O116  1.300958 A    
C141  C142  1.422956 A    
N10   C117  1.436528 S    
C81   C89   1.414586 A    
C87   N55   1.437570 S    
N24   O56   1.301576 A    
C158  H22   1.080926 S    
C145  Br1   1.939469 S    
C24   O24   1.348752 S    
C18   N6    1.363421 A    
N48   O104  1.300657 A    
N39   O86   1.300974 A    
C107  C115  1.394625 A    
C28   O28   1.348395 S    
C35   C43   1.417913 A    
C61   C65   1.402676 A    
O15   Cu4   1.943765 S    
C111  H15   1.083037 S    
C112  H16   1.082813 S    
C78   N46   1.439084 S    
Cu4   N3    2.007844 S    
N22   O51   1.303164 A    
C86   N54   1.433638 S    
C4    N20   1.427584 S    
C36   C44   1.417809 A    
C70   N38   1.433752 S    
C136  C148  1.421879 A    
N30   O68   1.300929 A    
N8    C115  1.440676 S    
C96   C104  1.411948 A    
C99   C107  1.387003 A    
N9    C118  1.437379 S    
C3    N19   1.426533 S    
C90   C98   1.396532 A    
C63   N31   1.432707 S    
C64   C68   1.402322 A    
C149  Br5   1.939716 S    
C105  C113  1.397830 A    
C106  C114  1.397530 A    
C108  H12   1.083109 S    
N50   O107  1.300309 A    
N26   O60   1.300888 A    
C26   O26   1.348643 S    
N28   O63   1.300729 A    
C135  C141  1.412678 A    
N44   O96   1.300716 A    
C53   C70   1.416865 A    
C129  C139  1.427834 A    
Cu2   N1    2.007844 S    
N27   O61   1.300917 A    
C44   C52   1.418130 A    
N53   O113  1.300423 A    
N23   O53   1.298988 A    
C34   C58   1.416841 A    
C149  C152  1.413684 A    
C98   C106  1.387031 A    
C11   C89   1.461738 S    
C65   N33   1.433792 S    
C89   C97   1.397753 A    
C9    C91   1.480464 S    
C79   C87   1.413633 A    
C10   C92   1.473993 S    
C80   C88   1.411625 A    
C49   C66   1.416714 A    
C62   C66   1.402521 A    
N40   O88   1.300949 A    
C148  Br4   1.939473 S    
C14   C96   1.496727 S    
N32   O71   1.300928 A    
C41   C49   1.417907 A    
N41   O90   1.301236 A    
C60   N28   1.432768 S    
C5    C157  1.408853 A    
O11   C14   1.310348 A    
C80   C120  1.405376 A    
C24   C56   1.411962 A    
C107  H11   1.083094 S    
C108  C116  1.395133 A    
C8    N24   1.424469 S    
N34   O76   1.301103 A    
C23   N11   1.363493 A    
N25   O57   1.301143 A    
C42   C50   1.418658 A    
C104  C112  1.394077 A    
C29   O29   1.348625 S    
N6    C26   1.363534 A    
N6    C113  1.437057 S    
C12   C90   1.459671 S    
C128  O36   1.346120 S    
N51   O109  1.301241 A    
C1    C153  1.411559 A    
N10   C30   1.363678 A    
C77   C117  1.407315 A    
N42   O92   1.301252 A    
N35   O77   1.300996 A    
C82   N50   1.438373 S    
N20   O47   1.299956 A    
C86   C94   1.413928 A    
C34   C42   1.418461 A    
C143  C144  1.422168 A    
C106  H10   1.083027 S    
C17   C49   1.412128 A    
C22   N10   1.363743 A    
C35   C59   1.416654 A    
C19   O19   1.348799 S    
N52   O112  1.299640 A    
C133  C145  1.421855 A    
N17   O42   1.298397 A    
O7    Cu2   1.943765 S    
N29   O66   1.300903 A    
C124  C158  1.392955 A    
N18   O43   1.299913 A    
C126  N14   1.376553 A    
N5    C114  1.437167 S    
C145  C148  1.415315 A    
C74   C114  1.412959 A    
C102  H6    1.079404 S    
C75   C83   1.419132 A    
C52   C67   1.416852 A    
O13   C15   1.292892 A    
C66   N34   1.434223 S    
C73   C81   1.414167 A    
C20   C52   1.414064 A    
N12   C119  1.436602 S    
C84   C92   1.420712 A    
C121  C153  1.401223 A    
C85   C93   1.423476 A    
C94   C102  1.398650 A    
C126  O34   1.346132 S    
C88   C96   1.413658 A    
C19   N7    1.363742 A    
N56   O120  1.300991 A    
C84   N52   1.439100 S    
C30   O30   1.348727 S    
O1    Cu1   1.939658 S    
C55   C72   1.416542 A    
C2    N18   1.427325 S    
C28   C36   1.415716 A    
C40   C48   1.417873 A    
N37   O81   1.300980 A    
O9    Cu3   1.939658 S    
O8    C11   1.292802 A    
O10   Cu4   1.939658 S    
C100  H4    1.080742 S    
C80   N48   1.437329 S    
C101  H5    1.078884 S    
C88   N56   1.418484 S    
C140  C152  1.420895 A    
N39   O85   1.301099 A    
C104  H8    1.082798 S    
C4    C156  1.409765 A    
C38   C46   1.417705 A    
C79   C119  1.412661 A    
N45   O97   1.300692 A    
C18   C50   1.413938 A    
C132  N16   1.377233 A    
C92   C100  1.402462 A    
C61   N29   1.433807 S    
C93   C101  1.402935 A    
N49   O105  1.300212 A    
C138  C150  1.422470 A    
C91   C99   1.402604 A    
C57   N25   1.434089 S    
N27   O62   1.301128 A    
C151  Br7   1.939149 S    
C125  O33   1.346129 S    
N19   O46   1.298832 A    
C109  H13   1.083056 S    
C33   C41   1.417666 A    
C155  H19   1.082023 S    
C26   C34   1.413382 A    
C111  C119  1.397052 A    
N31   O69   1.300672 A    
C112  C120  1.394422 A    
C41   C46   1.416904 A    
C121  N14   1.474356 S    
O12   Cu4   1.942971 S    
C43   C48   1.416778 A    
C124  C160  1.396080 A    
O9    C13   1.289813 A    
C97   H1    1.082470 S    
C46   C54   1.417957 A    
O1    C9    1.297305 A    
C134  C142  1.412837 A    
C146  Br2   1.939473 S    
C20   O20   1.348632 S    
C121  C155  1.401094 A    
O4    Cu2   1.942971 S    
C83   C91   1.419720 A    
O13   Cu4   1.940848 S    
N22   O52   1.291725 A    
O14   Cu3   1.940844 S    
C146  C147  1.415309 A    
C124  N15   1.473353 S    
N29   O65   1.301081 A    
N21   O50   1.301188 A    
C21   C53   1.413708 A    
C71   N39   1.434258 S    
N51   O110  1.300660 A    
C4    N2    1.376780 A    
C131  C137  1.420291 A    
C6    N4    1.395381 A    
O5    Cu2   1.940848 S    
Cu1   Cu2   2.672487 S    
N55   O118  1.301278 A    
C1    N1    1.384776 A    
N35   O78   1.300867 A    
C157  H21   1.082043 S    
N50   O108  1.301329 A    
C81   N49   1.438633 S    
N28   O64   1.301005 A    
C78   C118  1.412779 A    
N7    C27   1.363518 A    
N7    C116  1.436145 S    
C56   C71   1.416712 A    
N38   O83   1.300899 A    
C62   N30   1.434038 S    
C77   C85   1.413466 A    
C24   N12   1.363775 A    
N36   O79   1.301103 A    
C58   N26   1.433732 S    
C127  N13   1.376535 A    
C139  C151  1.422236 A    
C109  C117  1.394275 A    
N42   O91   1.301196 A    
C160  H24   1.082050 S    
C22   O22   1.348727 S    
C7    C159  1.412354 A    
N33   O74   1.301049 A    
C150  C151  1.416517 A    
C7    N3    1.382715 A    
N54   O115  1.300407 A    
C8    N4    1.390133 A    
N32   O72   1.301136 A    
O8    Cu1   1.943769 S    
C32   C40   1.411481 A    
C68   N36   1.434336 S    
N41   O89   1.301088 A    
C76   C116  1.408055 A    
N24   O55   1.298192 A    
C21   N9    1.363575 A    
C76   N44   1.432663 S    
N46   O100  1.301221 A    
C27   O27   1.348680 S    
N48   O103  1.300727 A    
C136  C142  1.412714 A    
C156  H20   1.082025 S    
C128  C134  1.424786 A    
C54   C69   1.416664 A    
C3    C155  1.411322 A    
C74   C82   1.413880 A    
C123  C159  1.404229 A    
C22   C54   1.412192 A    
