data_mof_unit_55525.cif
_audit_creation_date              2012-12-10T17:05:19-0500
_audit_creation_method            fapswitch 2.2
_symmetry_space_group_name_H-M    P1
_symmetry_Int_Tables_number       1
_space_group_crystal_system       triclinic
_cell_length_a                    10.055517
_cell_length_b                    10.742551
_cell_length_c                    15.387809
_cell_angle_alpha                 89.913247
_cell_angle_beta                  67.405767
_cell_angle_gamma                 89.777532
_cell_volume                      1534.63160292

loop_
_atom_site_label
_atom_site_type_symbol
_atom_type_description
_atom_site_fract_x
_atom_site_fract_y
_atom_site_fract_z
_atom_type_partial_charge
C1    C     C_R   0.498340 0.737213 0.502696 0.945631
C2    C     C_R   0.432476 0.566503 0.906413 0.039118
C3    C     C_R   0.299753 0.628466 0.956559 0.007071
C4    C     C_R   0.541716 0.561417 0.942932 0.080707
C5    C     C_R   0.506652 0.594245 0.037681 -0.009639
C6    C     C_R   0.376787 0.659332 0.086083 -0.315208
C7    C     C_R   0.275977 0.680699 0.045509 0.439608
C8    C     C_R   0.685231 0.525389 0.887617 -0.210457
C9    C     C_R   0.785471 0.506318 0.928212 -0.251608
C10   C     C_R   0.743384 0.516471 0.025309 0.168458
C11   C     C_R   0.602960 0.559963 0.080895 0.135331
C12   C     C_R   0.409579 0.502216 0.676481 0.865157
C13   C     C_R   0.837639 0.479019 0.068089 -0.151846
C14   C     C_R   0.790128 0.476030 0.165956 -0.101596
C15   C     C_R   0.558086 0.556396 0.178739 -0.252192
C16   C     C_2   0.605859 0.066685 0.509847 -0.159207
C17   C     C_2   0.506077 0.131048 0.491244 -0.320988
C18   C     C_2   0.609722 0.932715 0.504510 -0.147791
C19   C     C_2   0.491760 0.868627 0.513201 -0.320604
C20   C     C_2   0.111131 0.449080 0.434731 -0.141545
C21   C     C_2   0.967243 0.468108 0.427656 -0.136930
C22   C     C_R   0.501200 0.262751 0.498458 0.930331
C23   C     C_R   0.590578 0.501650 0.323640 0.873571
C24   C     C_R   0.355730 0.526399 0.777662 -0.052410
C25   C     C_R   0.648776 0.511814 0.221246 -0.070976
C26   C     C_R   0.196259 0.636802 0.915319 -0.123646
C27   C     C_R   0.225701 0.588633 0.825505 -0.238438
C28   C     C_R   0.452029 0.508196 0.821442 -0.203335
H1    H     H_    0.945919 0.447582 0.026028 0.145131
H2    H     H_    0.688279 0.112457 0.527632 0.171486
H3    H     H_    0.427721 0.088336 0.468215 0.153229
H4    H     H_    0.711541 0.886939 0.493446 0.178561
H5    H     H_    0.386850 0.911414 0.530594 0.156191
H6    H     H_    0.188569 0.390063 0.382177 0.163640
H7    H     H_    0.958880 0.450967 0.360507 0.170343
H8    H     H_    0.856964 0.492020 0.564473 0.181180
H9    H     H_    0.448975 0.580692 0.223439 0.161414
H10   H     H_    0.862151 0.442661 0.198221 0.155903
H11   H     H_    0.893776 0.477028 0.884150 0.143180
H12   H     H_    0.093975 0.683139 0.950286 0.210967
H13   H     H_    0.149700 0.604270 0.792372 0.155323
H14   H     H_    0.545173 0.450215 0.786130 0.145672
H15   H     H_    0.355270 0.699492 0.154333 0.209400
H16   H     H_    0.723553 0.514081 0.812223 0.144650
N1    N     N_2   0.148330 0.498670 0.499030 -0.141137
N2    N     N_2   0.852680 0.498640 0.499000 -0.189214
O1    O     O_R   0.386950 0.680940 0.500010 -0.613539
O2    O     O_R   0.613110 0.680900 0.499990 -0.596825
O3    O     O_R   0.322330 0.500030 0.632270 -0.616812
O4    O     O_R   0.548480 0.499990 0.632240 -0.617613
O5    O     O_R   0.386890 0.319100 0.500010 -0.613066
O6    O     O_R   0.613050 0.319060 0.499990 -0.611201
O7    O     O_R   0.451520 0.500010 0.367760 -0.619924
O8    O     O_R   0.677670 0.499970 0.367730 -0.603494
Zn1   Zn    Zn3+2 0.349000 0.500030 0.500020 0.945854
Zn2   Zn    Zn3+2 0.651000 0.499970 0.499980 0.954044
S1    S     S_3+6 0.123314 0.774142 0.108293 -0.007557
O9    O     O_2   0.113841 0.879519 0.046541 -0.295787
O10   O     O_2   0.989693 0.696435 0.135440 -0.336543
O11   O     O_3   0.135162 0.832987 0.206338 -0.576354
H17   H     H_    0.040665 0.873325 0.240774 0.383465
C29   C     C_R   0.075634 0.607697 0.547072 0.285952
C30   C     C_R   0.020093 0.610632 0.645735 -0.203506
C31   C     C_R   0.953461 0.718394 0.694022 -0.169834
C32   C     C_R   0.943492 0.824378 0.644024 -0.094715
C33   C     C_R   0.001226 0.823149 0.545639 -0.176347
C34   C     C_R   0.068344 0.715706 0.497107 -0.122210
H18   H     H_    0.026876 0.528811 0.685002 0.130636
H19   H     H_    0.909756 0.719821 0.770192 0.154583
H20   H     H_    0.891757 0.907672 0.681506 0.138183
H21   H     H_    0.994569 0.905624 0.506995 0.138489
H22   H     H_    0.114581 0.716293 0.420888 0.151635

loop_
_geom_bond_atom_site_label_1
_geom_bond_atom_site_label_2
_ccdc_geom_bond_type
C2    C4    A    
C10   C13   A    
C1    O2    A    
H8    N2    S    
C29   C30   A    
C21   H7    S    
C14   H10   S    
C23   O8    A    
C24   C28   A    
C9    C10   A    
C12   C24   S    
C3    C7    A    
C33   H21   S    
C24   C27   A    
C4    C8    A    
C20   H6    S    
C31   C32   A    
O7    Zn1   S    
C2    C3    A    
C26   C27   A    
O1    Zn1   S    
C32   C33   A    
O3    Zn1   S    
C13   C14   A    
C26   H12   S    
S1    O9    D    
C16   C17   D    
C29   C34   A    
O11   H17   S    
C4    C5    A    
C23   O7    A    
C22   O6    A    
C7    S1    S    
C5    C11   A    
C6    C7    A    
O5    Zn1   S    
C6    H15   S    
C23   C25   S    
C14   C25   A    
C1    O1    A    
C5    C6    A    
C17   H3    S    
O8    Zn2   S    
C22   O5    A    
C12   O3    A    
S1    O10   D    
C10   C11   A    
C16   H2    S    
C30   C31   A    
O6    Zn2   S    
N1    C29   S    
C9    H11   S    
C34   H22   S    
C18   H4    S    
C20   C21   S    
N1    Zn1   S    
C15   C25   A    
C16   C18   S    
C21   N2    D    
C19   H5    S    
C20   N1    D    
C13   H1    S    
C33   C34   A    
O2    Zn2   S    
C18   C19   D    
C27   H13   S    
C30   H18   S    
C15   H9    S    
S1    O11   S    
C2    C28   A    
C28   H14   S    
C32   H20   S    
C31   H19   S    
C1    C19   S    
C11   C15   A    
C12   O4    A    
C3    C26   A    
O4    Zn2   S    
C17   C22   S    
C8    C9    A    
C8    H16   S    
N2    Zn2   S    
