data_mof_unit_8307.cif
_audit_creation_date              2012-12-10T20:53:01-0500
_audit_creation_method            fapswitch 2.2
_symmetry_space_group_name_H-M    P1
_symmetry_Int_Tables_number       1
_space_group_crystal_system       triclinic
_cell_length_a                    18.969418
_cell_length_b                    18.904585
_cell_length_c                    19.008391
_cell_angle_alpha                 58.512333
_cell_angle_beta                  58.578717
_cell_angle_gamma                 58.482961
_cell_volume                      4657.39112133

loop_
_atom_site_label
_atom_site_type_symbol
_atom_type_description
_atom_site_fract_x
_atom_site_fract_y
_atom_site_fract_z
_atom_type_partial_charge
C1    C     C_R   0.390992 0.104846 0.115441 0.790493
C2    C     C_R   0.608944 0.895087 0.884689 0.783314
C3    C     C_R   0.116495 0.104407 0.390847 0.782736
C4    C     C_R   0.886530 0.893642 0.608936 0.780699
C5    C     C_R   0.105324 0.391578 0.114949 0.795904
C6    C     C_R   0.894010 0.608518 0.885979 0.793753
C7    C     C_R   0.168420 0.636407 0.174871 -0.320339
C8    C     C_R   0.841078 0.360953 0.820789 -0.310545
C9    C     C_R   0.640009 0.174170 0.165838 -0.328816
C10   C     C_R   0.371114 0.821945 0.838134 -0.281400
C11   C     C_R   0.176392 0.161833 0.636609 -0.308875
C12   C     C_R   0.823628 0.838057 0.360382 -0.294625
C13   C     C_R   0.143473 0.587628 0.264202 -0.154599
C14   C     C_R   0.863920 0.410839 0.732280 -0.155111
C15   C     C_R   0.588409 0.262986 0.141247 -0.159042
C16   C     C_R   0.411347 0.731200 0.863659 -0.183435
C17   C     C_R   0.264945 0.135015 0.586086 -0.132816
C18   C     C_R   0.735142 0.859087 0.411693 -0.165468
C19   C     C_R   0.056016 0.591224 0.311828 0.124229
C20   C     C_R   0.950457 0.408976 0.683872 0.093998
C21   C     C_R   0.591308 0.310231 0.054135 0.130385
C22   C     C_R   0.413533 0.683563 0.948550 0.089679
C23   C     C_R   0.311469 0.046172 0.592346 0.125720
C24   C     C_R   0.685051 0.945544 0.411596 0.095374
C25   C     C_R   0.992913 0.649084 0.270769 -0.345278
C26   C     C_R   0.015442 0.351070 0.722539 -0.288118
C27   C     C_R   0.650554 0.269278 0.991103 -0.343266
C28   C     C_R   0.367046 0.725043 0.010294 -0.272840
C29   C     C_R   0.270421 0.983489 0.658227 -0.358369
C30   C     C_R   0.722486 0.011273 0.357282 -0.293869
C31   C     C_R   0.015897 0.705714 0.183431 0.147416
C32   C     C_R   0.994186 0.296324 0.810720 0.174753
C33   C     C_R   0.710352 0.183062 0.013296 0.158623
C34   C     C_R   0.324413 0.816676 0.985506 0.178502
C35   C     C_R   0.185699 0.009314 0.718931 0.121678
C36   C     C_R   0.810151 0.992027 0.301612 0.155757
C37   C     C_R   0.105806 0.692205 0.131849 0.539237
C38   C     C_R   0.904848 0.305895 0.862558 0.504426
C39   C     C_R   0.698772 0.131520 0.103228 0.554127
C40   C     C_R   0.334265 0.867537 0.896090 0.532423
C41   C     C_R   0.133674 0.099614 0.699520 0.515465
C42   C     C_R   0.863372 0.903452 0.306388 0.509348
C43   C     C_R   0.973040 0.592125 0.463506 -0.271990
C44   C     C_R   0.029473 0.409645 0.533527 -0.277766
C45   C     C_R   0.592346 0.462248 0.970504 -0.277005
C46   C     C_R   0.410567 0.533832 0.028951 -0.283045
C47   C     C_R   0.464796 0.959286 0.590214 -0.282478
C48   C     C_R   0.534688 0.025326 0.409807 -0.278506
C49   C     C_R   0.945987 0.552142 0.554773 -0.061898
C50   C     C_R   0.056236 0.449155 0.442887 -0.061986
C51   C     C_R   0.553116 0.553759 0.944688 -0.059844
C52   C     C_R   0.449257 0.442716 0.055441 -0.062136
C53   C     C_R   0.555377 0.939352 0.551917 -0.060993
C54   C     C_R   0.443423 0.051559 0.448822 -0.062619
C55   C     C_R   0.975424 0.458841 0.589635 0.040609
C56   C     C_R   0.028334 0.542565 0.407069 0.040229
C57   C     C_R   0.460547 0.589058 0.974169 0.045413
C58   C     C_R   0.542518 0.405981 0.026267 0.044683
C59   C     C_R   0.590525 0.970246 0.459571 0.044730
C60   C     C_R   0.407307 0.017664 0.541905 0.044433
C61   C     C_R   0.110847 0.390818 0.389123 0.786244
C62   C     C_R   0.889796 0.609360 0.610336 0.785010
C63   C     C_R   0.390655 0.389294 0.110715 0.791353
C64   C     C_R   0.609768 0.609912 0.889432 0.793093
C65   C     C_R   0.389383 0.109900 0.390584 0.775374
C66   C     C_R   0.610313 0.887893 0.609564 0.778187
C67   C     C_R   0.114208 0.992288 0.329423 -0.107055
C68   C     C_R   0.911028 0.987472 0.675947 -0.110618
C69   C     C_R   0.992633 0.329930 0.115200 -0.101494
C70   C     C_R   0.004485 0.670977 0.889815 -0.100405
C71   C     C_R   0.322129 0.015781 0.089943 -0.115178
C72   C     C_R   0.672688 0.000455 0.897330 -0.101110
C73   C     C_R   0.086985 0.981985 0.282000 -0.177151
C74   C     C_R   0.946341 0.991491 0.721070 -0.178041
C75   C     C_R   0.984456 0.279700 0.089113 -0.160577
C76   C     C_R   0.016304 0.719785 0.914667 -0.159526
C77   C     C_R   0.272827 0.037085 0.043768 -0.171129
C78   C     C_R   0.716325 0.015964 0.924767 -0.175040
C79   C     C_R   0.006448 0.972096 0.320002 -0.159386
C80   C     C_R   0.025892 0.004564 0.678009 -0.168113
C81   C     C_R   0.973781 0.316269 0.009225 -0.165274
C82   C     C_R   0.025660 0.683599 0.995309 -0.184349
C83   C     C_R   0.315334 0.034749 0.959604 -0.118058
C84   C     C_R   0.676480 0.025807 0.005463 -0.176360
C85   C     C_R   0.957643 0.960851 0.408292 -0.162598
C86   C     C_R   0.068475 0.019002 0.589043 -0.142991
C87   C     C_R   0.960270 0.405574 0.959943 -0.163934
C88   C     C_R   0.034965 0.595198 0.046368 -0.144863
C89   C     C_R   0.407668 0.999076 0.926227 -0.104231
C90   C     C_R   0.589892 0.030415 0.054901 -0.133857
C91   C     C_R   0.984689 0.969679 0.458777 0.081505
C92   C     C_R   0.033468 0.015696 0.541692 0.082166
C93   C     C_R   0.969928 0.457761 0.984528 0.084395
C94   C     C_R   0.025398 0.543466 0.020967 0.082657
C95   C     C_R   0.457705 0.984608 0.969874 0.049230
C96   C     C_R   0.541690 0.021732 0.025353 0.077643
C97   C     C_R   0.057386 0.999494 0.412850 0.085544
C98   C     C_R   0.960544 0.985847 0.589440 0.077303
C99   C     C_R   0.000173 0.413608 0.056575 0.078300
C100  C     C_R   0.995471 0.587793 0.948634 0.076940
C101  C     C_R   0.410796 0.010369 0.044966 0.077691
C102  C     C_R   0.588913 0.992527 0.952225 0.092645
C103  C     C_R   0.940051 0.954774 0.550616 -0.213348
C104  C     C_R   0.072153 0.035970 0.449896 -0.217664
C105  C     C_R   0.957507 0.549202 0.936454 -0.214910
C106  C     C_R   0.039157 0.451691 0.067647 -0.216918
C107  C     C_R   0.550591 0.960481 0.933172 -0.219340
C108  C     C_R   0.449582 0.039371 0.066966 -0.211528
H1    H     H_    0.052263 0.008062 0.712820 0.183967
H2    H     H_    0.983146 0.971169 0.280775 0.215792
H3    H     H_    0.029775 0.723840 0.015602 0.214330
H4    H     H_    0.974157 0.275003 0.986840 0.218011
H5    H     H_    0.712394 0.031285 0.029199 0.215379
H6    H     H_    0.274254 0.058992 0.923496 0.210663
H7    H     H_    0.951409 0.662799 0.436573 0.147789
H8    H     H_    0.050450 0.339150 0.560505 0.146527
H9    H     H_    0.662544 0.435244 0.947465 0.144711
H10   H     H_    0.340476 0.561771 0.051108 0.143529
H11   H     H_    0.439794 0.929190 0.658862 0.141395
H12   H     H_    0.562732 0.048130 0.339503 0.147182
H13   H     H_    0.178841 0.996870 0.299649 0.133914
H14   H     H_    0.844931 0.986087 0.709726 0.149637
H15   H     H_    0.997139 0.301094 0.179699 0.151771
H16   H     H_    0.001021 0.699673 0.824901 0.153596
H17   H     H_    0.288861 0.012152 0.157644 0.144675
H18   H     H_    0.704261 0.996853 0.832257 0.137957
H19   H     H_    0.126869 0.984184 0.215192 0.124460
H20   H     H_    0.912699 0.984079 0.789566 0.126507
H21   H     H_    0.989463 0.211660 0.129256 0.135924
H22   H     H_    0.016596 0.786225 0.872140 0.139826
H23   H     H_    0.201945 0.056208 0.072436 0.132440
H24   H     H_    0.781463 0.018806 0.884559 0.127788
H25   H     H_    0.895917 0.952914 0.432428 0.177377
H26   H     H_    0.131473 0.026612 0.560295 0.172256
H27   H     H_    0.951484 0.429058 0.898851 0.177994
H28   H     H_    0.043180 0.571098 0.107988 0.174887
H29   H     H_    0.439421 0.992861 0.862477 0.167401
H30   H     H_    0.563680 0.035581 0.118177 0.165300
H31   H     H_    0.235765 0.633631 0.140374 0.132740
H32   H     H_    0.773678 0.364114 0.856025 0.126593
H33   H     H_    0.636003 0.139225 0.233400 0.138954
H34   H     H_    0.367225 0.854734 0.773963 0.117347
H35   H     H_    0.142023 0.230735 0.628415 0.135095
H36   H     H_    0.860107 0.771202 0.361042 0.130312
H37   H     H_    0.192304 0.546696 0.296212 0.137619
H38   H     H_    0.814043 0.451662 0.701542 0.139864
H39   H     H_    0.545926 0.294936 0.190107 0.138933
H40   H     H_    0.441770 0.698119 0.817136 0.139203
H41   H     H_    0.296951 0.183875 0.540706 0.136243
H42   H     H_    0.705441 0.808330 0.451030 0.140380
H43   H     H_    0.924566 0.654836 0.309152 0.146386
H44   H     H_    0.083288 0.346247 0.682478 0.161616
H45   H     H_    0.655756 0.307741 0.922908 0.149256
H46   H     H_    0.362296 0.684990 0.078036 0.155793
H47   H     H_    0.308021 0.914054 0.667801 0.148216
H48   H     H_    0.681490 0.078729 0.355143 0.165667
O1    O     O_3   0.250000 0.250000 0.250000 -0.489667
O2    O     O_3   0.750000 0.750000 0.750000 -0.489181
O3    O     O_R   0.305080 0.134200 0.134200 -0.638578
O4    O     O_R   0.694920 0.865800 0.865800 -0.638182
O5    O     O_R   0.134200 0.134200 0.305080 -0.648772
O6    O     O_R   0.865800 0.865800 0.694920 -0.653293
O7    O     O_R   0.134200 0.305080 0.134200 -0.629209
O8    O     O_R   0.865800 0.694920 0.865800 -0.630438
O9    O     O_R   0.134200 0.305090 0.426530 -0.652898
O10   O     O_R   0.865800 0.694910 0.573470 -0.650847
O11   O     O_R   0.305090 0.426530 0.134200 -0.653576
O12   O     O_R   0.694910 0.573470 0.865800 -0.655852
O13   O     O_R   0.426530 0.134200 0.305090 -0.656112
O14   O     O_R   0.573470 0.865800 0.694910 -0.666931
O15   O     O_R   0.134190 0.426530 0.134200 -0.659863
O16   O     O_R   0.865810 0.573470 0.865800 -0.660799
O17   O     O_R   0.426530 0.134200 0.134190 -0.655571
O18   O     O_R   0.573470 0.865800 0.865810 -0.650355
O19   O     O_R   0.134200 0.134190 0.426530 -0.658172
O20   O     O_R   0.865800 0.865810 0.573470 -0.658202
O21   O     O_R   0.426530 0.305080 0.134210 -0.630377
O22   O     O_R   0.573470 0.694920 0.865790 -0.624588
O23   O     O_R   0.305080 0.134210 0.426530 -0.642103
O24   O     O_R   0.694920 0.865790 0.573470 -0.631989
O25   O     O_R   0.134210 0.426530 0.305080 -0.637790
O26   O     O_R   0.865790 0.573470 0.694920 -0.635979
Zn1   Zn    Zn3+2 0.206620 0.206630 0.380140 0.941568
Zn2   Zn    Zn3+2 0.793380 0.793370 0.619860 0.947812
Zn3   Zn    Zn3+2 0.206630 0.380140 0.206620 0.956281
Zn4   Zn    Zn3+2 0.793370 0.619860 0.793380 0.955570
Zn5   Zn    Zn3+2 0.380140 0.206620 0.206630 0.954212
Zn6   Zn    Zn3+2 0.619860 0.793380 0.793370 0.956929
Zn7   Zn    Zn3+2 0.206620 0.206620 0.206620 0.952885
Zn8   Zn    Zn3+2 0.793380 0.793380 0.793380 0.953595
O27   O     O_3   0.129411 0.738282 0.041772 -0.656483
C109  C     C_3   0.204272 0.683251 0.994700 0.073894
H49   H     H_    0.209350 0.612364 0.028520 0.160488
H50   H     H_    0.261672 0.690613 0.986656 0.175314
C110  C     C_3   0.205336 0.712094 0.902761 -0.867193
H51   H     H_    0.266978 0.725068 0.852299 0.217128
H52   H     H_    0.203103 0.658805 0.895434 0.243293
H53   H     H_    0.148298 0.772192 0.889827 0.268811
O28   O     O_3   0.881862 0.258777 0.952221 -0.658588
C111  C     C_3   0.807093 0.314302 0.999134 0.068798
H54   H     H_    0.748741 0.312714 0.002788 0.176309
H55   H     H_    0.805610 0.383930 0.968063 0.161391
C112  C     C_3   0.801765 0.280227 0.093260 -0.868808
H56   H     H_    0.860840 0.221951 0.103450 0.288158
H57   H     H_    0.797451 0.332054 0.108326 0.241194
H58   H     H_    0.741958 0.262125 0.139551 0.234573
O29   O     O_3   0.746408 0.041468 0.128325 -0.657714
C113  C     C_3   0.690615 0.992176 0.197260 0.063116
H59   H     H_    0.620245 0.027729 0.202018 0.137690
H60   H     H_    0.694383 0.977705 0.259042 0.182130
C114  C     C_3   0.720936 0.903682 0.188663 -0.884503
H61   H     H_    0.738047 0.848261 0.246740 0.224796
H62   H     H_    0.667121 0.897503 0.186508 0.228138
H63   H     H_    0.778325 0.896814 0.128134 0.279222
O30   O     O_3   0.302477 0.959543 0.870097 -0.675743
C115  C     C_3   0.348491 0.999055 0.781262 0.043804
H64   H     H_    0.325774 0.995388 0.741919 0.196593
H65   H     H_    0.420912 0.967058 0.765661 0.186172
C116  C     C_3   0.324767 0.097728 0.754167 -0.933302
H66   H     H_    0.352545 0.113290 0.780948 0.246067
H67   H     H_    0.351832 0.126386 0.681539 0.231929
H68   H     H_    0.252776 0.128669 0.775048 0.281836
O31   O     O_3   0.043225 0.124729 0.744779 -0.648258
C117  C     C_3   0.997045 0.191157 0.685400 0.093042
H69   H     H_    0.032224 0.185542 0.618674 0.158107
H70   H     H_    0.988007 0.255545 0.680254 0.166453
C118  C     C_3   0.905137 0.189661 0.718383 -0.856976
H71   H     H_    0.854822 0.243633 0.745160 0.224046
H72   H     H_    0.890555 0.200602 0.663233 0.228716
H73   H     H_    0.899040 0.125854 0.769401 0.270638
O32   O     O_3   0.951819 0.883077 0.254702 -0.659941
C119  C     C_3   0.004039 0.810758 0.306302 0.073082
H74   H     H_    0.005547 0.749531 0.312214 0.175926
H75   H     H_    0.978587 0.812784 0.373300 0.154900
C120  C     C_3   0.098872 0.807873 0.261960 -0.867704
H76   H     H_    0.103501 0.871830 0.209378 0.271605
H77   H     H_    0.124539 0.793375 0.310639 0.234583
H78   H     H_    0.141268 0.754849 0.233160 0.241416
C121  C     C_3   0.942377 0.784388 0.152008 -0.406500
C122  C     C_3   0.965210 0.868873 0.091189 -0.728723
H79   H     H_    0.016068 0.869669 0.103230 0.295260
H80   H     H_    0.988718 0.875967 0.021509 0.249459
H81   H     H_    0.905933 0.926670 0.103625 0.278000
H82   H     H_    0.918051 0.768540 0.122011 0.184919
H83   H     H_    0.886095 0.799180 0.210261 0.218593
C123  C     C_3   0.068275 0.224703 0.845154 -0.392366
C124  C     C_3   0.130456 0.261749 0.833249 -0.930243
H84   H     H_    0.176711 0.276180 0.764598 0.257215
H85   H     H_    0.094254 0.324088 0.847055 0.275866
H86   H     H_    0.169103 0.212907 0.877860 0.262773
H87   H     H_    0.043784 0.184022 0.914808 0.228525
H88   H     H_    0.106010 0.178583 0.808384 0.219994
C125  C     C_3   0.786755 0.154859 0.937014 -0.413261
C126  C     C_3   0.866014 0.074861 0.957774 -0.790360
H89   H     H_    0.885704 0.080300 0.000023 0.295261
H90   H     H_    0.852971 0.012719 0.987979 0.254879
H91   H     H_    0.921852 0.072062 0.895855 0.265663
H92   H     H_    0.763065 0.146358 0.900553 0.193222
H93   H     H_    0.811975 0.210091 0.891233 0.233795
C127  C     C_3   0.260033 0.855830 0.056763 -0.401548
C128  C     C_3   0.301466 0.832135 0.120576 -0.859934
H94   H     H_    0.313602 0.761748 0.163417 0.244438
H95   H     H_    0.364603 0.844731 0.084223 0.284667
H96   H     H_    0.255957 0.872040 0.164126 0.245387
H97   H     H_    0.228547 0.928153 0.030119 0.234353
H98   H     H_    0.206419 0.828761 0.092264 0.203067
C129  C     C_3   0.156847 0.941244 0.807415 -0.396552
C130  C     C_3   0.126381 0.968759 0.884439 -0.762813
H99   H     H_    0.157626 0.014189 0.866599 0.283103
H100  H     H_    0.054655 0.003515 0.905258 0.253408
H101  H     H_    0.141778 0.909523 0.941407 0.265398
H102  H     H_    0.104069 0.925917 0.814867 0.189368
H103  H     H_    0.213550 0.878921 0.813299 0.211692
C131  C     C_3   0.841633 0.068611 0.234627 -0.391854
C132  C     C_3   0.826842 0.127196 0.277904 -0.929149
H104  H     H_    0.761990 0.181077 0.280823 0.257940
H105  H     H_    0.826987 0.089699 0.346039 0.270498
H106  H     H_    0.878908 0.156809 0.240242 0.258958
H107  H     H_    0.911149 0.047570 0.191998 0.223925
H108  H     H_    0.803418 0.107833 0.189797 0.231512

loop_
_geom_bond_atom_site_label_1
_geom_bond_atom_site_label_2
_ccdc_geom_bond_type
C19   C56   S    
C27   H45   S    
C7    C13   A    
C15   H39   S    
C112  H56   S    
C25   C31   A    
C84   H5    S    
C110  H52   S    
C96   C102  A    
O3    Zn7   S    
C36   C42   A    
O31   C117  S    
C115  C116  S    
C79   C85   A    
C16   C22   A    
C117  H69   S    
C22   C57   S    
C53   C59   A    
C92   C98   A    
C48   H12   S    
C54   C65   S    
C54   C60   A    
C27   C33   A    
C26   C32   A    
C112  H57   S    
C1    O17   A    
C100  C105  A    
C17   C23   A    
C8    C38   A    
C131  H108  S    
C23   C29   A    
C132  H105  S    
C61   O9    A    
O1    Zn3   S    
O2    Zn8   S    
C10   H34   S    
C128  H94   S    
C116  H67   S    
C69   H15   S    
C68   C74   A    
C98   C103  A    
O11   Zn3   S    
C4    C103  S    
C67   H13   S    
C2    C107  S    
C9    C39   A    
C121  H83   S    
C46   H10   S    
C10   C40   A    
C131  C132  S    
O26   Zn4   S    
C117  H70   S    
C14   H38   S    
C18   H42   S    
C78   H24   S    
C122  H79   S    
C126  H90   S    
C75   H21   S    
O18   Zn6   S    
C47   C60   A    
C76   H22   S    
C125  H92   S    
C86   H26   S    
O17   Zn5   S    
C121  C122  S    
O16   Zn4   S    
C111  H54   S    
C123  H88   S    
C39   O29   S    
C80   H1    S    
C95   C101  A    
C80   C86   A    
C120  H76   S    
C81   H4    S    
C127  H98   S    
C69   C75   A    
C121  H82   S    
C67   C73   A    
C32   C38   A    
C91   C103  A    
C93   C99   A    
O23   Zn1   S    
C47   C53   A    
C110  H53   S    
C43   H7    S    
C42   O32   S    
C101  C108  A    
C30   H48   S    
C71   C101  A    
C28   C34   A    
O28   C111  S    
C74   C80   A    
C95   C107  A    
C28   H46   S    
C120  H77   S    
C83   H6    S    
C22   C28   A    
C3    O5    A    
C84   C90   A    
C131  H107  S    
C20   C55   S    
O8    Zn8   S    
O2    Zn4   S    
C36   C131  S    
C63   O11   A    
C90   H30   S    
C70   C100  A    
O1    Zn7   S    
C5    C106  S    
C124  H85   S    
C130  H100  S    
C85   C91   A    
C23   C60   S    
C83   C89   A    
C112  H58   S    
C74   H20   S    
C45   C58   A    
C65   O13   A    
O12   Zn4   S    
C13   C19   A    
C12   C42   A    
O29   C113  S    
O9    Zn1   S    
C109  C110  S    
C14   C20   A    
C1    O3    A    
C132  H106  S    
O10   Zn2   S    
C115  H64   S    
O13   Zn5   S    
O5    Zn7   S    
C76   C82   A    
C3    C104  S    
C128  H95   S    
O25   Zn3   S    
C43   C49   A    
C30   C36   A    
C6    O16   A    
C65   O23   A    
C126  H91   S    
C73   H19   S    
C66   O24   A    
C46   C57   A    
C119  C120  S    
C50   C56   A    
C63   O21   A    
C31   C37   A    
O2    Zn2   S    
C32   C123  S    
C109  H50   S    
C89   C95   A    
C48   C54   A    
O30   C115  S    
C123  H87   S    
C114  H61   S    
C94   C106  A    
C126  H89   S    
O15   Zn3   S    
C87   H27   S    
C62   O26   A    
C64   O22   A    
C129  H102  S    
C125  H93   S    
C92   C104  A    
C72   C102  A    
C118  H71   S    
O32   C119  S    
C130  H101  S    
C94   C100  A    
C87   C93   A    
C124  H84   S    
C114  H62   S    
C49   C55   A    
O20   Zn2   S    
C114  H63   S    
C119  H75   S    
C122  H80   S    
C7    C37   A    
C34   C127  S    
C102  C107  A    
O7    Zn7   S    
C33   C39   A    
C91   C97   A    
C53   C66   S    
C88   H28   S    
C41   O31   S    
C35   C41   A    
C52   C58   A    
C51   C57   A    
C69   C99   A    
C3    O19   A    
C62   O10   A    
C132  H104  S    
O14   Zn6   S    
C89   H29   S    
C71   H17   S    
C70   H16   S    
C113  C114  S    
C13   H37   S    
C64   O12   A    
C120  H78   S    
C18   C24   A    
C96   C108  A    
C24   C30   A    
C70   C76   A    
C12   C18   A    
O6    Zn8   S    
C117  C118  S    
C5    O7    A    
C71   C77   A    
C5    O15   A    
C48   C59   A    
O19   Zn1   S    
C124  H86   S    
C45   H9    S    
O27   C109  S    
C116  H66   S    
C99   C106  A    
C31   C121  S    
C123  C124  S    
C129  H103  S    
C8    C14   A    
C49   C62   S    
C79   H2    S    
C118  H72   S    
C113  H59   S    
C17   H41   S    
C50   C61   S    
C66   O14   A    
C77   H23   S    
C51   C64   S    
O1    Zn5   S    
C77   C83   A    
C115  H65   S    
C127  C128  S    
C73   C79   A    
C52   C63   S    
O2    Zn6   S    
C128  H96   S    
C129  C130  S    
C90   C96   A    
C75   C81   A    
C68   H14   S    
C29   C35   A    
C61   O25   A    
O21   Zn5   S    
C29   H47   S    
C25   H43   S    
C35   C129  S    
C109  H49   S    
C26   H44   S    
C9    C15   A    
O22   Zn6   S    
C21   C58   S    
C93   C105  A    
C113  H60   S    
C10   C16   A    
C82   H3    S    
C46   C52   A    
C7    H31   S    
C81   C87   A    
C44   C55   A    
C16   H40   S    
C125  C126  S    
C20   C26   A    
C24   C59   S    
C82   C88   A    
C11   C17   A    
C40   O30   S    
C47   H11   S    
C119  H74   S    
C6    C105  S    
C11   C41   A    
C4    O6    A    
C122  H81   S    
C21   C27   A    
C19   C25   A    
C68   C98   A    
C78   C84   A    
C97   C104  A    
C9    H33   S    
C67   C97   A    
C1    C108  S    
O4    Zn8   S    
C110  H51   S    
C12   H36   S    
C43   C56   A    
C15   C21   A    
C118  H73   S    
C130  H99   S    
C44   H8    S    
C44   C50   A    
C2    O4    A    
C4    O20   A    
C72   C78   A    
C33   C125  S    
C37   O27   S    
C88   C94   A    
C45   C51   A    
C38   O28   S    
C34   C40   A    
C86   C92   A    
O1    Zn1   S    
C111  C112  S    
C127  H97   S    
C72   H18   S    
C11   H35   S    
C111  H55   S    
C2    O18   A    
O24   Zn2   S    
C6    O8    A    
C85   H25   S    
C116  H68   S    
C8    H32   S    
