data_mof_unit_32574.cif
_audit_creation_date              2012-12-11T20:00:38-0500
_audit_creation_method            fapswitch 2.2
_symmetry_space_group_name_H-M    P1
_symmetry_Int_Tables_number       1
_space_group_crystal_system       triclinic
_cell_length_a                    8.226723
_cell_length_b                    16.236616
_cell_length_c                    27.094012
_cell_angle_alpha                 72.441174
_cell_angle_beta                  96.696402
_cell_angle_gamma                 95.846452
_cell_volume                      3418.39190023

loop_
_atom_site_label
_atom_site_type_symbol
_atom_type_description
_atom_site_fract_x
_atom_site_fract_y
_atom_site_fract_z
_atom_type_partial_charge
Ba1   Ba    Ba6+2 0.337820 0.939830 0.518500 1.660450
Ba2   Ba    Ba6+2 0.851970 0.060110 0.481480 1.638082
C1    C     C_3   0.136875 0.512500 0.643747 -0.336170
C2    C     C_R   0.450172 0.399277 0.189511 0.572610
C3    C     C_2   0.284276 0.279809 0.279894 -0.085384
C4    C     C_3   0.625758 0.596365 0.615587 0.653271
C5    C     C_3   0.276611 0.249080 0.337924 -0.048929
C6    C     C_1   0.477584 0.145284 0.341820 0.042522
C7    C     C_2   0.517375 0.189974 0.293968 -0.104425
C8    C     C_2   0.412484 0.260360 0.259283 0.192266
C9    C     C_R   0.524185 0.404976 0.103720 -0.079549
C10   C     C_R   0.523838 0.313865 0.120495 -0.035228
C11   C     C_R   0.560404 0.271544 0.085549 -0.062524
C12   C     C_3   0.074621 0.600684 0.636922 0.342540
C13   C     C_R   0.487327 0.447605 0.138691 -0.023844
C14   C     C_2   0.360981 0.167190 0.364259 -0.289029
C15   C     C_2   0.828328 0.832660 0.635951 -0.248533
C16   C     C_3   0.600145 0.555601 0.672835 -0.271624
C17   C     C_R   0.624610 0.457618 0.964428 0.020201
C18   C     C_R   0.603193 0.594139 0.984684 0.020540
C19   C     C_R   0.631539 0.549826 0.948924 0.048904
C20   C     C_R   0.648113 0.416810 0.926709 -0.103136
C21   C     C_R   0.680762 0.464397 0.876387 -0.062595
C22   C     C_R   0.691863 0.555130 0.860964 -0.024327
C23   C     C_3   0.078471 0.014994 0.646927 0.301156
C24   C     C_R   0.667192 0.598201 0.897034 -0.081123
C25   C     C_R   0.678504 0.689527 0.881189 -0.031176
C26   C     C_R   0.716494 0.736302 0.829851 0.588499
C27   C     C_R   0.726412 0.603137 0.809908 0.584240
C28   C     C_3   0.559201 0.883222 0.383074 0.289909
C29   C     C_2   0.901420 0.718429 0.719926 -0.100371
C30   C     C_3   0.910939 0.749988 0.661769 -0.094157
C31   C     C_1   0.714506 0.856053 0.658677 0.042003
C32   C     C_2   0.677375 0.813656 0.707070 -0.099066
C33   C     C_2   0.778184 0.741335 0.741181 0.214178
C34   C     C_3   0.047321 0.980043 0.704638 -0.226209
C35   C     C_R   0.593487 0.409344 0.016582 0.020393
C36   C     C_R   0.560596 0.453502 0.051919 0.049244
C37   C     C_R   0.563291 0.545633 0.036020 0.019951
C38   C     C_R   0.594526 0.317842 0.034997 -0.100147
C39   C     C_R   0.487687 0.538167 0.122244 -0.062219
C40   C     C_3   0.488156 0.819922 0.351935 0.218843
C41   C     C_R   0.616447 0.685983 0.967572 -0.099993
C42   C     C_R   0.653273 0.732239 0.917210 -0.066218
C43   C     C_R   0.524688 0.586002 0.072324 -0.102915
C44   C     C_2   0.402171 0.245161 0.513295 -0.284439
C45   C     C_3   0.649741 0.360945 0.368179 0.341374
C46   C     C_R   0.796928 0.760714 0.488314 -0.291386
C47   C     C_2   0.250517 0.314274 0.561068 -0.120747
C48   C     C_2   0.268328 0.245550 0.544989 0.040433
C49   C     C_2   0.506764 0.314503 0.498135 0.003698
C50   C     C_3   0.460088 0.400446 0.501000 -0.053826
C51   C     C_3   0.371507 0.391905 0.549330 -0.012862
C52   C     C_3   0.595847 0.115085 0.610841 0.305949
C53   C     C_2   0.598668 0.468113 0.496462 -0.051494
C54   C     C_2   0.565171 0.551043 0.481754 -0.069447
C55   C     C_R   0.834693 0.619329 0.453491 -0.004213
C56   C     C_3   0.673280 0.434960 0.318849 -0.313442
C57   C     C_R   0.695357 0.620733 0.478395 -0.005206
C58   C     C_R   0.951630 0.689298 0.444614 -0.139760
C59   C     C_R   0.929597 0.761260 0.460620 0.083960
C60   C     C_R   0.676871 0.691962 0.496173 -0.011951
C61   C     C_3   0.628425 0.187748 0.636147 -0.391516
C62   C     C_3   0.117691 0.991284 0.357912 0.304622
C63   C     C_3   0.117424 0.027119 0.299149 -0.374135
C64   C     C_3   0.622435 0.784265 0.330260 -0.242887
C65   C     C_3   0.712255 0.854791 0.288968 -0.212726
C66   C     C_3   0.848826 0.817965 0.270289 -0.399838
C67   C     C_3   0.128234 0.380443 0.394101 0.351256
C68   C     C_3   0.188762 0.002260 0.741957 -0.184711
C69   C     C_3   0.348796 0.963922 0.738981 -0.193947
C70   C     C_3   0.486735 0.987985 0.775968 -0.399110
C71   C     C_3   0.116279 0.476789 0.385435 -0.358432
C72   C     C_R   0.486591 0.266753 0.171794 0.596502
H1    H     H_    0.025438 0.627535 0.595626 0.036854
H2    H     H_    0.225362 0.517252 0.615008 0.147420
H3    H     H_    0.191002 0.987442 0.284363 0.124255
H4    H     H_    0.170871 0.094920 0.288335 0.075223
H5    H     H_    0.989815 0.026159 0.280631 0.122604
H6    H     H_    0.974855 0.590118 0.662887 -0.008304
H7    H     H_    0.032242 0.466750 0.637460 0.095069
H8    H     H_    0.959717 0.010086 0.623568 0.003014
H9    H     H_    0.163871 0.973959 0.638030 0.066840
H10   H     H_    0.935269 0.007632 0.710440 0.114238
H11   H     H_    0.022391 0.908623 0.715072 0.066236
H12   H     H_    0.405070 0.854882 0.318364 0.123154
H13   H     H_    0.196577 0.486579 0.683694 0.110185
H14   H     H_    0.717133 0.531722 0.694483 0.128681
H15   H     H_    0.706604 0.303773 0.364925 0.092434
H16   H     H_    0.516455 0.345616 0.371552 -0.051755
H17   H     H_    0.654929 0.409215 0.285003 0.122257
H18   H     H_    0.584431 0.484436 0.314298 0.118979
H19   H     H_    0.799417 0.466164 0.319820 0.142053
H20   H     H_    0.258666 0.370645 0.391883 -0.060027
H21   H     H_    0.092349 0.344812 0.433679 0.074928
H22   H     H_    0.205066 0.499190 0.413647 0.077509
H23   H     H_    0.463909 0.108543 0.598653 -0.009837
H24   H     H_    0.991205 0.489757 0.391230 0.147638
H25   H     H_    0.711291 0.654833 0.612541 -0.053672
H26   H     H_    0.145450 0.513822 0.345404 0.124570
H27   H     H_    0.626741 0.176239 0.279895 0.133391
H28   H     H_    0.562838 0.201672 0.097187 0.118877
H29   H     H_    0.979910 0.668212 0.743000 0.105827
H30   H     H_    0.697623 0.429204 0.849356 0.118189
H31   H     H_    0.640041 0.347597 0.934397 0.066431
H32   H     H_    0.623265 0.279315 0.011512 0.066795
H33   H     H_    0.200797 0.327234 0.256522 0.118433
H34   H     H_    0.668252 0.131328 0.576662 0.077597
H35   H     H_    0.458952 0.573022 0.148148 0.119544
H36   H     H_    0.601119 0.724855 0.992372 0.066144
H37   H     H_    0.661841 0.802350 0.906557 0.113209
H38   H     H_    0.572042 0.830124 0.721885 0.106938
H39   H     H_    0.519644 0.654969 0.063354 0.066861
H40   H     H_    0.348039 0.138084 0.405412 0.083699
H41   H     H_    0.843446 0.863032 0.595034 0.076978
H42   H     H_    0.156259 0.311745 0.586484 0.078106
H43   H     H_    0.054398 0.688992 0.423132 0.127572
H44   H     H_    0.423355 0.184853 0.506386 0.061592
H45   H     H_    0.551025 0.175085 0.668976 0.115653
H46   H     H_    0.781763 0.816590 0.500784 0.068325
H47   H     H_    0.723987 0.450246 0.508651 0.115615
H48   H     H_    0.557400 0.604339 0.688755 0.130958
H49   H     H_    0.438135 0.567412 0.473654 0.092962
H50   H     H_    0.507134 0.499835 0.677850 0.088307
H51   H     H_    0.686932 0.870075 0.399193 -0.064740
H52   H     H_    0.484863 0.875876 0.415675 0.087202
H53   H     H_    0.940531 0.790855 0.303285 0.160381
H54   H     H_    0.797318 0.766274 0.252672 0.131020
H55   H     H_    0.911739 0.870301 0.240571 0.130369
H56   H     H_    0.599640 0.250593 0.607520 0.065074
H57   H     H_    0.623798 0.883152 0.255253 0.125023
H58   H     H_    0.767769 0.907265 0.305260 0.170259
H59   H     H_    0.712255 0.752900 0.362622 0.085029
H60   H     H_    0.564172 0.733745 0.312534 0.136686
H61   H     H_    0.464591 0.714545 0.409070 0.289809
H62   H     H_    0.504008 0.059437 0.767826 0.122489
H63   H     H_    0.458456 0.958053 0.816929 0.139096
H64   H     H_    0.603041 0.964310 0.770337 0.182452
H65   H     H_    0.329910 0.892242 0.748884 0.141630
H66   H     H_    0.386871 0.989599 0.699031 0.166905
H67   H     H_    0.759768 0.192068 0.650969 0.128658
H68   H     H_    0.208741 0.073767 0.733421 0.141922
H69   H     H_    0.151728 0.976082 0.782251 0.116188
H70   H     H_    0.618281 0.486878 0.599801 0.300342
H71   H     H_    0.245794 0.991450 0.375465 -0.002188
H72   H     H_    0.047999 0.033677 0.371810 0.077863
N1    N     N_R   0.450683 0.309296 0.206149 -0.421023
N2    N     N_R   0.739438 0.693202 0.794381 -0.419001
O1    O     O_2   0.431310 0.922990 0.623550 -0.462924
O2    O     O_2   0.845347 0.306526 0.504374 -0.485399
O3    O     O_3   0.724711 0.386048 0.411058 -0.603698
O4    O     O_3   0.663280 0.983100 0.563360 -0.494229
O5    O     O_3   0.016420 0.932050 0.462720 -0.492414
O6    O     O_2   0.959730 0.164640 0.549160 -0.449510
O7    O     O_3   0.144890 0.101135 0.635474 -0.652625
O8    O     O_2   0.929728 0.212613 0.327622 -0.497741
O9    O     O_3   0.023341 0.352735 0.356296 -0.595230
O10   O     O_2   0.483472 0.187731 0.185411 -0.601695
O11   O     O_2   0.744149 0.564079 0.779116 -0.633934
O12   O     O_3   0.044963 0.906629 0.370228 -0.632586
O13   O     O_2   0.418098 0.437988 0.219052 -0.622700
O14   O     O_2   0.731836 0.815309 0.817191 -0.624184
O15   O     O_3   0.126250 0.812630 0.574830 -0.465274
O16   O     O_2   0.244805 0.804629 0.672142 -0.494842
O17   O     O_3   0.640723 0.038073 0.647408 -0.652344
O18   O     O_3   0.202109 0.656434 0.650790 -0.566332
O19   O     O_2   0.229950 0.835370 0.450810 -0.444690
O20   O     O_3   0.517580 0.797570 0.545130 -0.474046
O21   O     O_2   0.335162 0.694345 0.497240 -0.468634
O22   O     O_3   0.390296 0.751769 0.382151 -0.733151
O23   O     O_3   0.472515 0.617186 0.587960 -0.587637
O24   O     O_3   0.697702 0.537993 0.597085 -0.786949
O25   O     O_2   0.758370 0.077020 0.376420 -0.450685
O26   O     O_3   0.526390 0.016840 0.436620 -0.505111
O27   O     O_3   0.063420 0.187310 0.425160 -0.474529
O28   O     O_3   0.557939 0.966877 0.348718 -0.663618
O29   O     O_3   0.173250 0.067890 0.537260 -0.479623
O30   O     O_3   0.672100 0.202370 0.454860 -0.491095
P1    P     P_3+3 0.610630 0.953360 0.619150 0.968445
P2    P     P_3+3 0.057260 0.861390 0.437850 1.012209
P3    P     P_3+3 0.500062 0.699618 0.530174 0.994737
P4    P     P_3+3 0.579040 0.046590 0.380840 0.980885
P5    P     P_3+3 0.688182 0.302324 0.467642 0.942379
P6    P     P_3+3 0.121722 0.756554 0.640956 0.966334
P7    P     P_3+3 0.142257 0.145150 0.567998 0.944302
P8    P     P_3+3 0.070638 0.248160 0.360329 0.945517

loop_
_geom_bond_atom_site_label_1
_geom_bond_atom_site_label_2
_ccdc_geom_bond_type
C71   H26   S    
C53   C54   D    
C53   H47   S    
C63   H5    S    
C10   C72   A    
C62   H71   S    
C31   P1    S    
C32   H38   S    
C5    P8    S    
C65   H58   S    
C19   C24   A    
O26   P4    S    
C27   N2    Am   
C28   H52   S    
C26   O14   D    
C27   O11   D    
C4    O24   S    
C61   H67   S    
O28   P4    S    
C68   H69   S    
C17   C19   A    
C56   H19   S    
C22   C24   A    
C32   C33   S    
C35   C38   A    
C49   P5    S    
Ba2   O25   S    
C36   C37   A    
Ba1   P2    S    
C55   C57   A    
C23   O7    S    
C52   C61   S    
Ba1   O19   S    
O1    P1    D    
O29   P7    S    
C44   H44   S    
Ba1   O4    S    
Ba1   Ba2   S    
Ba2   P4    S    
C61   H56   S    
C22   C27   A    
O12   P2    S    
C11   C38   A    
C40   O22   S    
C64   H60   S    
C9    C13   A    
C25   C42   A    
C29   C30   S    
C6    C7    D    
C1    H7    S    
C67   O9    S    
C21   C22   A    
C52   H23   S    
C67   C71   S    
C68   C69   S    
C40   H12   S    
Ba2   O29   S    
C12   H6    S    
C12   O18   S    
C17   C35   A    
C7    C8    S    
C66   H54   S    
O30   P5    S    
C50   C53   S    
C8    N1    S    
C37   C43   A    
C6    C14   D    
C70   H64   S    
C64   C65   S    
C28   H51   S    
Ba2   O6    S    
C39   H35   S    
C56   H17   S    
C45   H15   S    
C15   C31   D    
C28   O28   S    
C34   C68   S    
C4    O23   S    
Ba2   O4    S    
C71   H24   S    
C4    C16   S    
O6    P7    D    
Ba1   O26   S    
C68   H68   S    
C63   H3    S    
C72   O10   D    
C1    H13   S    
C49   C50   S    
C54   H49   S    
C72   N1    Am   
C17   C20   A    
O18   P6    S    
O9    P8    S    
C13   C39   A    
C46   H46   S    
C67   H20   S    
O7    P7    S    
C3    C5    S    
C18   C37   A    
C55   C58   A    
C69   H65   S    
Ba1   O20   S    
C2    N1    Am   
C44   C49   D    
C16   H14   S    
C65   C66   S    
C58   C59   A    
C29   H29   S    
C9    C36   A    
C41   C42   A    
C35   C36   A    
O16   P6    D    
Ba2   O27   S    
C64   H59   S    
C61   H45   S    
C46   C60   A    
C21   H30   S    
C62   O12   S    
C31   C32   D    
C24   C25   A    
C58   H43   S    
C10   C11   A    
Ba1   O5    S    
C1    H2    S    
C66   H53   S    
O21   P3    D    
C69   H66   S    
C1    C12   S    
C16   H48   S    
C70   H63   S    
C41   H36   S    
C45   O3    S    
O25   P4    D    
O20   P3    S    
Ba2   O5    S    
C23   H8    S    
O17   P1    S    
C45   H16   S    
C29   C33   D    
C52   O17   S    
C18   C41   A    
C50   C51   S    
C15   H41   S    
C38   H32   S    
C3    H33   S    
C6    P4    S    
C44   C48   S    
C5    C14   S    
C57   C60   A    
C63   H4    S    
C62   H72   S    
O15   P6    S    
C2    O13   D    
C26   N2    Am   
C30   P6    S    
C65   H57   S    
C34   H10   S    
Ba1   O1    S    
C67   H21   S    
C14   H40   S    
C9    C10   A    
O3    P5    S    
O2    P5    D    
O8    P8    D    
C34   H11   S    
C20   H31   S    
H70   O24   S    
C54   C57   S    
C52   H34   S    
C4    H25   S    
C2    C13   A    
O27   P8    S    
C3    C8    D    
Ba2   O26   S    
C45   C56   S    
Ba1   P1    S    
C46   C59   A    
C56   H18   S    
O4    P1    S    
C47   C51   S    
C62   C63   S    
C40   C64   S    
O19   P2    D    
C33   N2    S    
C66   H55   S    
O23   P3    S    
O5    P2    S    
C70   H62   S    
C23   C34   S    
H61   O22   S    
C42   H37   S    
C43   H39   S    
C69   C70   S    
C47   H42   S    
C18   C19   A    
Ba1   O15   S    
C59   P2    S    
C7    H27   S    
C47   C48   D    
C25   C26   A    
C23   H9    S    
C15   C30   S    
C39   C43   A    
C20   C21   A    
C28   C40   S    
Ba2   O30   S    
C71   H22   S    
C11   H28   S    
C48   P7    S    
Ba1   O29   S    
C12   H1    S    
C16   H50   S    
C60   P3    S    
