data_mof_unit_23034.cif
_audit_creation_date              2012-12-10T18:50:53-0500
_audit_creation_method            fapswitch 2.2
_symmetry_space_group_name_H-M    P1
_symmetry_Int_Tables_number       1
_space_group_crystal_system       triclinic
_cell_length_a                    10.624106
_cell_length_b                    9.876787
_cell_length_c                    15.717873
_cell_angle_alpha                 89.86065
_cell_angle_beta                  89.856632
_cell_angle_gamma                 90.863308
_cell_volume                      1649.11094031

loop_
_atom_site_label
_atom_site_type_symbol
_atom_type_description
_atom_site_fract_x
_atom_site_fract_y
_atom_site_fract_z
_atom_type_partial_charge
C1    C     C_R   0.260389 0.499091 0.500688 1.036583
C2    C     C_R   0.934861 0.449690 0.427803 0.397691
C3    C     C_R   0.871929 0.503121 0.498522 -0.417332
C4    C     C_R   0.127973 0.498085 0.500376 -0.404910
C5    C     C_R   0.585975 0.074116 0.547122 0.477448
C6    C     C_R   0.592208 0.929567 0.541575 0.456369
C7    C     C_R   0.499732 0.500128 0.338338 0.870813
C8    C     C_R   0.410211 0.926931 0.456711 -0.222013
C9    C     C_R   0.411787 0.070452 0.455263 -0.195578
C10   C     C_R   0.739533 0.500878 0.499767 1.033551
C11   C     C_R   0.500169 0.499832 0.661710 0.933564
C12   C     C_3   0.624608 0.561845 0.950763 -0.419942
C13   C     C_3   0.388101 0.585060 0.049187 0.449380
C14   C     C_3   0.489140 0.350194 0.049560 0.456272
C15   C     C_3   0.486276 0.351748 0.950920 -0.465029
C16   C     C_3   0.387975 0.582068 0.950582 -0.445221
C17   C     C_1   0.500397 0.499355 0.750621 -0.180158
C18   C     C_3   0.499306 0.498691 0.082591 0.190498
C19   C     C_3   0.500024 0.498706 0.917444 0.234633
C20   C     C_3   0.184332 0.637922 0.090967 -0.374611
C21   C     C_3   0.396415 0.145344 0.091015 -0.335904
C22   C     C_3   0.131322 0.749437 0.638046 -0.234167
C23   C     C_3   0.624222 0.562302 0.048905 -0.631865
C24   C     C_3   0.169516 0.453893 0.303357 -0.207175
C25   C     C_3   0.854846 0.493472 0.698876 -0.259247
C26   C     C_3   0.833559 0.504882 0.305420 -0.315092
C27   C     C_3   0.640566 0.124233 0.683368 -0.303841
C28   C     C_3   0.800888 0.889021 0.529779 -0.220409
C29   C     C_1   0.500420 0.498934 0.825982 -0.073988
C30   C     C_1   0.500746 0.499866 0.174143 -0.038930
C31   C     C_1   0.500705 0.500358 0.249462 -0.189556
C32   C     C_R   0.065647 0.558871 0.568535 0.353528
C33   C     C_R   0.064687 0.441735 0.430481 0.369392
C34   C     C_R   0.935270 0.553159 0.570075 0.352383
H1    H     H_    0.297961 0.537308 0.926716 0.207699
H2    H     H_    0.305526 0.097097 0.109765 0.199318
H3    H     H_    0.576294 0.297460 0.070661 0.045923
H4    H     H_    0.406279 0.691747 0.070362 0.038337
H5    H     H_    0.564233 0.288921 0.925957 0.126480
H6    H     H_    0.394507 0.687600 0.925696 0.131474
H7    H     H_    0.635558 0.668143 0.072225 0.196550
H8    H     H_    0.706120 0.504455 0.072800 0.197033
H9    H     H_    0.636247 0.667428 0.926708 0.190894
H10   H     H_    0.706169 0.502991 0.927256 0.184105
H11   H     H_    0.152831 0.793636 0.574219 0.141730
H12   H     H_    0.396566 0.305837 0.927382 0.203522
H13   H     H_    0.205095 0.786863 0.682324 0.175044
H14   H     H_    0.039584 0.786383 0.661818 0.191550
H15   H     H_    0.245545 0.402514 0.268095 0.219488
H16   H     H_    0.208401 0.552653 0.326260 0.100635
H17   H     H_    0.092449 0.470393 0.257380 0.181643
H18   H     H_    0.947470 0.459014 0.722918 0.184184
H19   H     H_    0.801120 0.406980 0.670906 0.163786
H20   H     H_    0.800286 0.530566 0.754159 0.171888
H21   H     H_    0.799983 0.462315 0.244149 0.188386
H22   H     H_    0.912357 0.576902 0.291138 0.124282
H23   H     H_    0.338172 0.871810 0.422037 0.170675
H24   H     H_    0.755060 0.561890 0.333916 0.151538
H25   H     H_    0.538873 0.139762 0.697216 0.155967
H26   H     H_    0.694704 0.198026 0.722381 0.167832
H27   H     H_    0.668707 0.021376 0.703876 0.192897
H28   H     H_    0.787628 0.862277 0.461526 0.136014
H29   H     H_    0.878248 0.826699 0.554385 0.192067
H30   H     H_    0.832563 0.996225 0.535683 0.176935
H31   H     H_    0.341361 0.123567 0.419110 0.199110
H32   H     H_    0.172185 0.695656 0.030726 0.161953
H33   H     H_    0.213117 0.707097 0.143387 0.154112
H34   H     H_    0.091647 0.592336 0.108191 0.193433
H35   H     H_    0.465708 0.124122 0.142083 0.163192
H36   H     H_    0.426685 0.098877 0.030012 0.142181
N1    N     N_R   0.499970 0.857200 0.499980 -0.134432
N2    N     N_R   0.499970 0.142800 0.499980 -0.134845
O1    O     O_R   0.316750 0.614620 0.499990 -0.635560
O2    O     O_3   0.378645 0.285993 0.082318 -0.541368
O3    O     O_3   0.133107 0.606633 0.637903 -0.592638
O4    O     O_3   0.128436 0.367578 0.369772 -0.573666
O5    O     O_3   0.869522 0.600310 0.639898 -0.572111
O6    O     O_3   0.870201 0.397025 0.358707 -0.552303
O7    O     O_3   0.669845 0.147080 0.596810 -0.588138
O8    O     O_3   0.690998 0.861494 0.578148 -0.563245
O9    O     O_R   0.316750 0.385380 0.499990 -0.599924
O10   O     O_R   0.499990 0.614720 0.377140 -0.640105
O11   O     O_R   0.499990 0.385280 0.377140 -0.594126
O12   O     O_R   0.683220 0.614710 0.500000 -0.582172
O13   O     O_R   0.683220 0.385290 0.500000 -0.556988
O14   O     O_R   0.499980 0.614620 0.622860 -0.573277
O15   O     O_R   0.499980 0.385380 0.622860 -0.614682
O16   O     O_3   0.271996 0.533105 0.081441 -0.545486
Zn1   Zn    Zn3+2 0.499980 0.653120 0.500000 0.983657
Zn2   Zn    Zn3+2 0.499980 0.346880 0.500000 1.012414

loop_
_geom_bond_atom_site_label_1
_geom_bond_atom_site_label_2
_ccdc_geom_bond_type
C7    O11   A    
C10   O13   A    
C17   C29   T    
C14   C18   S    
C20   H33   S    
C22   H14   S    
C9    N2    A    
C26   H21   S    
C32   O3    S    
C21   H2    S    
C15   C19   S    
C12   C23   S    
C26   O6    S    
O10   Zn1   S    
C13   C18   S    
C25   O5    S    
C14   O2    S    
C20   H32   S    
C25   H19   S    
C12   H9    S    
C27   O7    S    
C27   H26   S    
C16   H1    S    
C5    C6    A    
C11   O14   A    
C1    O9    A    
C13   O16   S    
C27   H27   S    
C23   H8    S    
C11   O15   A    
C8    C9    A    
C18   C30   S    
C5    O7    S    
C24   H17   S    
C22   H13   S    
C22   O3    S    
C24   H16   S    
C6    N1    A    
C7    C31   S    
C18   C23   S    
C25   H20   S    
C24   O4    S    
C3    C34   A    
C21   O2    S    
C21   H35   S    
C32   C34   A    
C2    O6    S    
C8    H23   S    
N2    Zn2   S    
C33   O4    S    
C6    O8    S    
N1    Zn1   S    
C22   H11   S    
C26   H24   S    
C15   H5    S    
C13   H4    S    
C4    C32   A    
C16   H6    S    
O9    Zn2   S    
C28   H30   S    
C2    C33   A    
O15   Zn2   S    
O12   Zn1   S    
C19   C29   S    
C24   H15   S    
O11   Zn2   S    
C4    C33   A    
C11   C17   S    
C8    N1    A    
C20   H34   S    
O14   Zn1   S    
C26   H22   S    
O13   Zn2   S    
C5    N2    A    
C23   H7    S    
C21   H36   S    
C1    C4    S    
C1    O1    A    
C2    C3    A    
C25   H18   S    
O1    Zn1   S    
C34   O5    S    
C3    C10   S    
C27   H25   S    
C14   H3    S    
C30   C31   T    
C16   C19   S    
C20   O16   S    
C12   C19   S    
C10   O12   A    
C28   O8    S    
C9    H31   S    
C28   H29   S    
C7    O10   A    
C12   H10   S    
C13   C16   S    
C14   C15   S    
C15   H12   S    
C28   H28   S    
