data_mof_unit_33426.cif
_audit_creation_date              2012-12-10T17:02:42-0500
_audit_creation_method            fapswitch 2.2
_symmetry_space_group_name_H-M    P1
_symmetry_Int_Tables_number       1
_space_group_crystal_system       triclinic
_cell_length_a                    18.854744
_cell_length_b                    19.034597
_cell_length_c                    19.04029
_cell_angle_alpha                 110.044621
_cell_angle_beta                  109.892773
_cell_angle_gamma                 109.626527
_cell_volume                      5184.29492777

loop_
_atom_site_label
_atom_site_type_symbol
_atom_type_description
_atom_site_fract_x
_atom_site_fract_y
_atom_site_fract_z
_atom_type_partial_charge
C1    C     C_R   0.378594 0.380719 0.496661 0.924300
C2    C     C_3   0.806184 0.500820 0.812899 0.094184
C3    C     C_3   0.821429 0.595817 0.843130 -0.034214
C4    C     C_3   0.709988 0.438930 0.789806 -0.032356
C5    C     C_R   0.408365 0.394045 0.657905 -0.198363
C6    C     C_R   0.419458 0.414688 0.739027 -0.245175
C7    C     C_R   0.357504 0.359228 0.746150 -0.206487
C8    C     C_R   0.287771 0.278164 0.673060 0.433943
C9    C     C_R   0.268030 0.260009 0.585768 -0.017462
C10   C     C_R   0.329703 0.322033 0.579761 -0.012779
C11   C     C_R   0.191595 0.185191 0.505190 -0.156912
C12   C     C_R   0.619808 0.500741 0.619727 0.775451
C13   C     C_R   0.179129 0.173370 0.423078 0.001628
C14   C     C_R   0.235287 0.239946 0.417812 -0.053887
C15   C     C_R   0.313367 0.312476 0.497176 -0.178518
C16   C     C_R   0.109294 0.094839 0.344350 -0.204908
C17   C     C_R   0.078210 0.092307 0.265991 -0.222014
C18   C     C_R   0.123294 0.163393 0.261524 0.137628
C19   C     C_R   0.208605 0.230476 0.332712 0.488484
C20   C     C_R   0.200337 0.453480 0.362653 0.482291
C21   C     C_R   0.113856 0.430495 0.343790 -0.277413
C22   C     C_R   0.072288 0.465262 0.304801 -0.219569
C23   C     C_R   0.617230 0.619318 0.498474 0.857142
C24   C     C_R   0.109084 0.509755 0.270427 0.214559
C25   C     C_R   0.175349 0.500082 0.255961 0.013933
C26   C     C_R   0.229749 0.482660 0.311696 -0.062176
C27   C     C_R   0.185717 0.503192 0.186218 -0.184554
C28   C     C_R   0.256920 0.500061 0.178826 0.067971
C29   C     C_R   0.323020 0.504236 0.246593 0.044158
C30   C     C_R   0.309035 0.494318 0.312415 -0.180321
C31   C     C_R   0.264326 0.493011 0.105277 -0.150419
C32   C     C_R   0.340072 0.501267 0.104177 -0.137505
C33   C     C_R   0.409835 0.516651 0.175760 -0.145009
C34   C     C_R   0.377538 0.496404 0.380433 0.946505
C35   C     C_R   0.401844 0.518146 0.246210 -0.171812
C36   C     C_R   0.620521 0.785742 0.523004 0.487323
C37   C     C_R   0.642035 0.872917 0.568200 -0.238280
C38   C     C_R   0.719927 0.940523 0.590842 -0.205935
C39   C     C_R   0.776012 0.922078 0.566733 -0.157139
C40   C     C_R   0.759619 0.836001 0.527893 0.006043
C41   C     C_R   0.687016 0.768365 0.516487 -0.014960
C42   C     C_R   0.813114 0.816048 0.498269 -0.121385
C43   C     C_R   0.802815 0.732897 0.468109 0.030350
C44   C     C_R   0.748716 0.673462 0.481347 0.016625
C45   C     C_3   0.747447 0.476276 0.660305 -0.346184
C46   C     C_R   0.684843 0.687724 0.498949 -0.195725
C47   C     C_R   0.848544 0.709236 0.428180 -0.213824
C48   C     C_R   0.842510 0.629038 0.403681 -0.178992
C49   C     C_R   0.802097 0.576260 0.430186 0.226440
C50   C     C_R   0.763046 0.603369 0.477433 0.214214
C51   C     C_R   0.997779 0.381315 0.879494 0.779427
C52   C     C_R   0.877119 0.502315 0.881206 0.779205
C53   C     C_R   0.997457 0.619503 0.115686 0.781115
C54   C     C_R   0.117297 0.500474 0.116623 0.794811
C55   C     C_R   0.999834 0.881403 0.381728 0.763866
C56   C     C_3   0.808799 0.464370 0.727011 -0.043591
C57   C     C_R   0.120280 0.120384 0.503260 0.823996
C58   C     C_R   0.000651 0.119684 0.618575 0.806104
C59   C     C_R   0.881152 0.882551 0.500041 0.777655
C60   C     C_R   0.979802 0.383743 0.724399 -0.172365
C61   C     C_R   0.986696 0.397196 0.659044 0.200089
C62   C     C_R   0.013036 0.350760 0.610895 -0.136640
C63   C     C_R   0.029697 0.289192 0.625441 0.145866
C64   C     C_R   0.009688 0.265116 0.682907 0.070061
C65   C     C_R   0.994835 0.320770 0.739923 -0.004898
C66   C     C_R   0.004509 0.189743 0.686998 -0.174513
C67   C     C_3   0.745013 0.591555 0.773154 -0.467305
C68   C     C_R   0.999734 0.179796 0.756350 0.057804
C69   C     C_R   0.005423 0.247096 0.823801 0.073627
C70   C     C_R   0.998090 0.314611 0.812878 -0.169487
C71   C     C_R   0.990090 0.104453 0.761058 -0.158556
C72   C     C_R   0.996970 0.101158 0.834895 -0.136011
C73   C     C_R   0.013407 0.172179 0.905574 -0.142126
C74   C     C_R   0.017566 0.244509 0.900461 -0.146325
C75   C     C_R   0.162593 0.779296 0.263330 -0.150066
C76   C     C_R   0.239501 0.859129 0.326359 -0.144724
C77   C     C_R   0.236845 0.926470 0.382045 -0.145436
C78   C     C_3   0.639998 0.433158 0.710879 0.309370
C79   C     C_R   0.157879 0.913119 0.377501 -0.151604
C80   C     C_R   0.078907 0.831632 0.315328 0.074965
C81   C     C_R   0.079891 0.765432 0.253141 0.075845
C82   C     C_R   0.999377 0.815743 0.313684 -0.173785
C83   C     C_R   0.918916 0.738841 0.244986 0.023316
C84   C     C_R   0.918202 0.678172 0.176395 0.074499
C85   C     C_R   0.998783 0.688476 0.182886 -0.186322
C86   C     C_R   0.838316 0.721463 0.242224 -0.167868
C87   C     C_R   0.758393 0.648894 0.170629 0.243839
C88   C     C_R   0.757529 0.594113 0.099215 -0.151044
C89   C     C_3   0.686685 0.499912 0.689287 0.035671
C90   C     C_R   0.836122 0.609258 0.101695 -0.209146
Cu1   Cu    Cu3+1 0.500360 0.438220 0.438540 0.933544
Cu2   Cu    Cu3+1 0.499640 0.561780 0.561460 0.945923
Cu3   Cu    Cu3+1 0.935530 0.438290 0.997340 0.925762
Cu4   Cu    Cu3+1 0.059130 0.561800 0.997250 0.919923
Cu5   Cu    Cu3+1 0.937870 0.000030 0.437890 0.934979
Cu6   Cu    Cu3+1 0.062130 0.000000 0.562130 0.921857
H1    H     H_    0.789519 0.530688 0.657669 0.142086
H2    H     H_    0.704880 0.606978 0.800410 0.168104
H3    H     H_    0.820844 0.620819 0.904779 0.160093
H4    H     H_    0.463599 0.436568 0.658823 0.163596
H5    H     H_    0.477869 0.472894 0.796967 0.155865
H6    H     H_    0.367656 0.375826 0.810541 0.144622
H7    H     H_    0.074037 0.035856 0.342901 0.168861
H8    H     H_    0.017657 0.035377 0.209061 0.167916
H9    H     H_    0.708920 0.417503 0.593870 0.221548
H10   H     H_    0.469988 0.526203 0.176252 0.138092
H11   H     H_    0.081541 0.393128 0.366608 0.145306
H12   H     H_    0.014571 0.462420 0.306558 0.158448
H13   H     H_    0.211974 0.480222 0.047313 0.150701
H14   H     H_    0.345162 0.497194 0.048128 0.134553
H15   H     H_    0.459028 0.531927 0.300445 0.155441
H16   H     H_    0.595911 0.887954 0.581554 0.141560
H17   H     H_    0.734502 0.007022 0.622726 0.162446
H18   H     H_    0.832746 0.976062 0.579759 0.134026
H19   H     H_    0.889059 0.752184 0.415075 0.144072
H20   H     H_    0.875591 0.611528 0.370098 0.152099
H21   H     H_    0.021498 0.170704 0.964050 0.135578
H22   H     H_    0.963202 0.424082 0.763103 0.172330
H23   H     H_    0.876703 0.502385 0.741746 0.173314
H24   H     H_    0.025847 0.366215 0.565075 0.136311
H25   H     H_    0.976666 0.046750 0.708354 0.147428
H26   H     H_    0.990897 0.043715 0.837728 0.134199
H27   H     H_    0.030993 0.298133 0.957576 0.146099
H28   H     H_    0.696081 0.539468 0.041434 0.140419
H29   H     H_    0.170483 0.729882 0.223820 0.157804
H30   H     H_    0.301369 0.869110 0.331209 0.130664
H31   H     H_    0.296354 0.989034 0.429443 0.139928
H32   H     H_    0.159635 0.967995 0.422379 0.137677
H33   H     H_    0.769538 0.641357 0.755941 0.191619
H34   H     H_    0.835709 0.763646 0.295004 0.154099
H35   H     H_    0.831774 0.567566 0.043721 0.160606
H36   H     H_    0.595824 0.451970 0.728472 0.064355
H37   H     H_    0.699590 0.372610 0.770635 0.203466
O1    O     O_R   0.410140 0.357660 0.448100 -0.568002
O2    O     O_R   0.049980 0.462000 0.907580 -0.588085
O3    O     O_R   0.854480 0.447890 0.906670 -0.598558
O4    O     O_R   0.958860 0.552200 0.906600 -0.594134
O5    O     O_R   0.944670 0.538090 0.087010 -0.593881
O6    O     O_R   0.049050 0.642400 0.086940 -0.592386
O7    O     O_R   0.035800 0.447890 0.088000 -0.569573
O8    O     O_R   0.140170 0.552200 0.087920 -0.599386
O9    O     O_R   0.948030 0.909890 0.357850 -0.592135
O10   O     O_R   0.052970 0.909860 0.462770 -0.590125
O11   O     O_R   0.037700 0.090200 0.447550 -0.595138
O12   O     O_R   0.409530 0.462000 0.551910 -0.607877
O13   O     O_R   0.142640 0.090170 0.552470 -0.558572
O14   O     O_R   0.947030 0.090160 0.537260 -0.577118
O15   O     O_R   0.051970 0.090130 0.642170 -0.590539
O16   O     O_R   0.857360 0.909860 0.447560 -0.587418
O17   O     O_R   0.962300 0.909830 0.552480 -0.592465
O18   O     O_R   0.590960 0.447830 0.538760 -0.580626
O19   O     O_R   0.590350 0.552170 0.642570 -0.619451
O20   O     O_R   0.590470 0.538000 0.448090 -0.600146
O21   O     O_R   0.589860 0.642340 0.551900 -0.545026
O22   O     O_R   0.409650 0.447830 0.357430 -0.605846
O23   O     O_R   0.409040 0.552170 0.461240 -0.569030
O24   O     O_R   0.945600 0.357690 0.907660 -0.586220
C91   C     C_3   0.692460 0.462914 0.865771 -1.020189
H38   H     H_    0.622782 0.418810 0.842115 0.234151
H39   H     H_    0.730939 0.452592 0.915494 0.269802
H40   H     H_    0.704972 0.530183 0.895644 0.238683
C92   C     C_3   0.079640 0.165486 0.180323 -0.884760
H41   H     H_    0.013566 0.154948 0.166392 0.236781
H42   H     H_    0.117158 0.229441 0.187990 0.253654
H43   H     H_    0.071969 0.112978 0.123977 0.220221
O25   O     O_3   0.241002 0.220435 0.690934 -0.603088
C93   C     C_3   0.293762 0.190382 0.729264 0.080181
H44   H     H_    0.358476 0.245051 0.787766 0.118417
H45   H     H_    0.305550 0.150654 0.680999 0.143537
C94   C     C_3   0.247162 0.134173 0.758524 -0.278992
H46   H     H_    0.227543 0.170259 0.800249 0.226188
H47   H     H_    0.187402 0.073441 0.700707 0.247145
C95   C     C_3   0.306211 0.109569 0.809583 -0.985475
H48   H     H_    0.326516 0.073291 0.768969 0.258813
H49   H     H_    0.269835 0.067438 0.828293 0.261902
H50   H     H_    0.365599 0.168893 0.869879 0.261654
O26   O     O_3   0.264804 0.284760 0.318408 -0.598181
C96   C     C_3   0.284221 0.237727 0.258269 0.100037
H51   H     H_    0.339624 0.286370 0.261115 0.191471
H52   H     H_    0.229325 0.202092 0.190127 0.131453
C97   C     C_3   0.311378 0.174946 0.277086 -0.403478
H53   H     H_    0.363724 0.208493 0.346121 0.246476
H54   H     H_    0.254147 0.118812 0.264320 0.210436
C98   C     C_3   0.344846 0.139417 0.218994 -0.916425
H55   H     H_    0.293193 0.104085 0.149178 0.255955
H56   H     H_    0.362380 0.093520 0.232754 0.260187
H57   H     H_    0.404231 0.193390 0.232038 0.250302
O27   O     O_3   0.252153 0.442169 0.425078 -0.607010
C99   C     C_3   0.250137 0.476577 0.503604 0.096786
H58   H     H_    0.278998 0.452963 0.544520 0.179950
H59   H     H_    0.183371 0.451396 0.493801 0.107001
C100  C     C_3   0.302150 0.576642 0.556439 -0.348832
H60   H     H_    0.372287 0.601060 0.576820 0.247214
H61   H     H_    0.276066 0.602356 0.516073 0.204376
C101  C     C_3   0.296257 0.611422 0.638078 -0.935887
H62   H     H_    0.226883 0.589987 0.619958 0.259372
H63   H     H_    0.335022 0.683703 0.675322 0.256880
H64   H     H_    0.323131 0.587729 0.680410 0.260514
C102  C     C_3   0.086024 0.576297 0.264455 -0.828322
H65   H     H_    0.014190 0.544106 0.221978 0.255055
H66   H     H_    0.104822 0.624765 0.330308 0.217196
H67   H     H_    0.122137 0.612845 0.241975 0.207099
C103  C     C_3   0.805676 0.494288 0.412337 -0.892793
H68   H     H_    0.833486 0.480422 0.369849 0.226001
H69   H     H_    0.847393 0.500474 0.474180 0.236780
H70   H     H_    0.738313 0.438025 0.378678 0.235513
C104  C     C_3   0.785671 0.368151 0.686754 -0.909460
H71   H     H_    0.803454 0.351482 0.636019 0.241824
H72   H     H_    0.821266 0.356170 0.736863 0.227915
H73   H     H_    0.714597 0.321832 0.654128 0.281257
O28   O     O_3   0.535091 0.718317 0.483457 -0.609751
C105  C     C_3   0.472320 0.729978 0.429119 0.031904
H74   H     H_    0.435490 0.673582 0.362206 0.166870
H75   H     H_    0.500507 0.787856 0.423064 0.129371
C106  C     C_3   0.407784 0.733087 0.460075 -0.326572
H76   H     H_    0.374520 0.672100 0.459115 0.235612
H77   H     H_    0.443900 0.788361 0.528121 0.207559
C107  C     C_3   0.338276 0.743667 0.401924 -0.926546
H78   H     H_    0.369868 0.806617 0.405533 0.250812
H79   H     H_    0.290852 0.742931 0.424187 0.263996
H80   H     H_    0.301858 0.689658 0.333201 0.263610
C108  C     C_3   0.760115 0.572922 0.540010 -0.848646
H81   H     H_    0.711705 0.502244 0.503735 0.258742
H82   H     H_    0.826229 0.584706 0.579917 0.209158
H83   H     H_    0.746376 0.610243 0.587336 0.204926
C109  C     C_3   0.973400 0.466475 0.646183 -0.914996
H84   H     H_    0.990197 0.475310 0.598094 0.231186
H85   H     H_    0.903844 0.448442 0.621725 0.230859
H86   H     H_    0.015845 0.529620 0.709034 0.238686
C110  C     C_3   0.083164 0.265565 0.590272 -0.824843
H87   H     H_    0.041504 0.223722 0.518471 0.252415
H88   H     H_    0.139083 0.325225 0.606115 0.210457
H89   H     H_    0.113319 0.235806 0.620994 0.252932
C111  C     C_3   0.674686 0.632066 0.170659 -0.903172
H90   H     H_    0.616757 0.572360 0.109493 0.224702
H91   H     H_    0.678135 0.623713 0.226458 0.240373
H92   H     H_    0.665458 0.688140 0.177272 0.238009
C112  C     C_3   0.910254 0.665828 0.865168 -0.845406
H93   H     H_    0.923709 0.645254 0.811591 0.236019
H94   H     H_    0.909878 0.727046 0.877061 0.225224
H95   H     H_    0.965315 0.683971 0.926801 0.256049
O29   O     O_3   0.591505 0.348064 0.636272 -0.623771
C113  C     C_3   0.517985 0.291373 0.633761 0.034383
H96   H     H_    0.458147 0.281598 0.583362 0.168179
H97   H     H_    0.519546 0.315821 0.696758 0.142057
C114  C     C_3   0.511690 0.203224 0.607257 -0.324902
H98   H     H_    0.502223 0.173986 0.540897 0.221622
H99   H     H_    0.573731 0.212268 0.653638 0.213815
C115  C     C_3   0.435173 0.141458 0.607468 -0.950573
H100  H     H_    0.446091 0.167486 0.674451 0.251409
H101  H     H_    0.429945 0.076894 0.584925 0.256229
H102  H     H_    0.372571 0.133263 0.563342 0.252934

loop_
_geom_bond_atom_site_label_1
_geom_bond_atom_site_label_2
_ccdc_geom_bond_type
C8    C9    A    
C66   C68   A    
C103  H68   S    
C49   C103  S    
C114  H99   S    
Cu3   Cu4   S    
C76   H30   S    
C73   C74   A    
C12   O19   A    
C1    O12   A    
Cu5   Cu6   S    
C88   H28   S    
Cu3   O3    S    
C49   C50   A    
C50   C108  S    
C96   H51   S    
C27   C54   S    
C7    C8    A    
C93   H45   S    
C67   H33   S    
C34   O22   A    
C47   H19   S    
C103  H69   S    
C79   H32   S    
C115  H100  S    
C37   C38   A    
C87   C111  S    
C111  H91   S    
C36   C37   A    
C17   H8    S    
Cu1   O20   S    
C10   C15   A    
C106  H77   S    
C5    C6    A    
C32   H14   S    
C58   O15   A    
C59   O17   A    
C11   C13   A    
C20   O27   S    
C94   H46   S    
C113  H96   S    
C97   H53   S    
C67   C89   S    
C98   H55   S    
C3    C67   S    
C110  H89   S    
C17   C18   A    
C18   C19   A    
C6    H5    S    
C11   C57   S    
C99   H59   S    
C78   H36   S    
C37   H16   S    
Cu3   O5    S    
C91   H40   S    
C33   C35   A    
C114  H98   S    
C51   O2    A    
C58   C66   S    
C4    C91   S    
C47   C48   A    
C24   C102  S    
C45   H9    S    
C16   C17   A    
C113  H97   S    
C7    H6    S    
Cu2   O19   S    
C104  H73   S    
C41   C46   A    
C105  C106  S    
C60   H22   S    
Cu5   O16   S    
C51   C70   S    
C45   C89   S    
C9    C10   A    
C19   O26   S    
C62   H24   S    
C67   H2    S    
C79   C80   A    
C48   H20   S    
C101  H64   S    
C113  C114  S    
C40   C42   A    
C74   H27   S    
Cu5   O11   S    
C105  H74   S    
C23   C46   S    
C53   O6    A    
C13   C14   A    
C91   H39   S    
Cu4   O6    S    
C12   O18   A    
C36   C41   A    
C69   C70   A    
C84   C90   A    
C5    C10   A    
C44   C46   A    
Cu4   O2    S    
C93   C94   S    
C92   H42   S    
C76   C77   A    
C59   O16   A    
C78   C89   S    
Cu6   O15   S    
C103  H70   S    
C112  H94   S    
C115  H101  S    
C73   H21   S    
C30   C34   S    
C63   C64   A    
C104  H71   S    
C100  C101  S    
C12   C89   S    
C55   O10   A    
C84   C85   A    
C45   C56   S    
C72   C73   A    
C80   C82   A    
C106  C107  S    
C93   H44   S    
C38   H17   S    
C58   O14   A    
C54   O7    A    
C3    C112  S    
C108  H83   S    
C25   C26   A    
C95   H48   S    
C51   O24   A    
C110  H87   S    
C53   O5    A    
C32   C33   A    
O27   C99   S    
C75   H29   S    
C111  H92   S    
C100  H61   S    
C99   C100  S    
C2    C4    S    
C75   C76   A    
C28   C31   A    
O28   C105  S    
Cu1   O22   S    
C29   C30   A    
C75   C81   A    
C3    H3    S    
C102  H67   S    
C92   H43   S    
C16   H7    S    
C107  H79   S    
C83   C84   A    
C112  H95   S    
C5    H4    S    
Cu5   O9    S    
C110  H88   S    
C39   H18   S    
Cu6   O17   S    
C83   C86   A    
C62   C63   A    
O29   C113  S    
C31   H13   S    
C77   C79   A    
Cu5   O14   S    
C69   C74   A    
Cu2   O23   S    
C78   O29   S    
C24   C25   A    
C55   C82   S    
C108  H82   S    
C9    C11   A    
C94   C95   S    
C21   H11   S    
C95   H49   S    
C2    C52   S    
C2    C56   S    
C63   C110  S    
C1    C15   S    
C90   H35   S    
C40   C41   A    
C88   C90   A    
C60   C65   A    
O26   C96   S    
C109  H85   S    
C23   O20   A    
C43   C44   A    
C91   H38   S    
C52   O3    A    
C56   H23   S    
C22   C24   A    
C52   O4    A    
C13   C16   A    
C25   C27   A    
C111  H90   S    
C1    O1    A    
Cu1   Cu2   S    
C35   H15   S    
C107  H80   S    
C102  H66   S    
C92   H41   S    
C97   C98   S    
C44   C50   A    
C99   H58   S    
C112  H93   S    
C28   C29   A    
C115  H102  S    
C57   O11   A    
C72   H26   S    
Cu2   O12   S    
C86   C87   A    
Cu4   O8    S    
C14   C19   A    
C68   C69   A    
C31   C32   A    
C86   H34   S    
C33   H10   S    
C105  H75   S    
C80   C81   A    
C20   C26   A    
C77   H31   S    
C42   C59   S    
C96   H52   S    
C26   C30   A    
C6    C7    A    
C34   O23   A    
C4    C78   S    
C109  H86   S    
Cu6   O13   S    
C29   C35   A    
C61   C109  S    
C98   H56   S    
C98   H57   S    
C57   O13   A    
C100  H60   S    
C53   C85   S    
C2    C3    S    
C71   C72   A    
Cu3   O7    S    
C45   H1    S    
C64   C65   A    
Cu6   O10   S    
Cu1   O18   S    
Cu3   O24   S    
C18   C92   S    
C107  H78   S    
C38   C39   A    
C56   C104  S    
C94   H47   S    
C68   C71   A    
C48   C49   A    
C8    O25   S    
C95   H50   S    
Cu1   O1    S    
C106  H76   S    
C22   H12   S    
C61   C62   A    
C96   C97   S    
C36   O28   S    
C101  H62   S    
C39   C40   A    
C71   H25   S    
C102  H65   S    
C54   O8    A    
C20   C21   A    
C87   C88   A    
C109  H84   S    
C42   C43   A    
C23   O21   A    
C27   C28   A    
C104  H72   S    
Cu4   O4    S    
C14   C15   A    
C60   C61   A    
Cu2   O21   S    
C82   C83   A    
C21   C22   A    
C43   C47   A    
C108  H81   S    
O25   C93   S    
C81   C85   A    
C65   C70   A    
C97   H54   S    
C64   C66   A    
C4    H37   S    
C101  H63   S    
C114  C115  S    
C55   O9    A    
