data_mof_unit_10009.cif
_audit_creation_date              2012-12-10T20:40:03-0500
_audit_creation_method            fapswitch 2.2
_symmetry_space_group_name_H-M    P1
_symmetry_Int_Tables_number       1
_space_group_crystal_system       triclinic
_cell_length_a                    23.44485
_cell_length_b                    10.669281
_cell_length_c                    9.839725
_cell_angle_alpha                 90.10165
_cell_angle_beta                  89.910971
_cell_angle_gamma                 89.874938
_cell_volume                      2461.29306432

loop_
_atom_site_label
_atom_site_type_symbol
_atom_type_description
_atom_site_fract_x
_atom_site_fract_y
_atom_site_fract_z
_atom_type_partial_charge
C1    C     C_R   0.498287 0.259911 0.500010 0.893518
C2    C     C_R   0.119092 0.613878 0.524884 0.573587
C3    C     C_R   0.238126 0.512503 0.377470 -0.188956
C4    C     C_R   0.389259 0.500581 0.500126 0.900145
C5    C     C_R   0.297197 0.511380 0.377303 -0.209296
C6    C     C_R   0.327003 0.503533 0.500351 -0.089468
C7    C     C_R   0.296999 0.498714 0.623755 -0.360985
C8    C     C_R   0.237150 0.502380 0.625056 0.598882
C9    C     C_R   0.208399 0.506791 0.500319 0.235096
C10   C     C_R   0.762321 0.500725 0.375318 0.584682
C11   C     C_R   0.702849 0.498467 0.375926 -0.307195
C12   C     C_R   0.970308 0.281596 0.443046 -0.168351
C13   C     C_R   0.672926 0.499883 0.499595 -0.113761
C14   C     C_R   0.702854 0.501183 0.622961 -0.210655
C15   C     C_R   0.762000 0.500769 0.622642 -0.170534
C16   C     C_R   0.498172 0.740117 0.500143 0.887775
C17   C     C_R   0.791609 0.499776 0.499399 0.211777
C18   C     C_R   0.491964 0.064238 0.623788 0.198030
C19   C     C_R   0.489364 0.128617 0.501085 -0.120271
C20   C     C_R   0.476007 0.064714 0.380679 -0.217808
C21   C     C_R   0.475852 0.935104 0.380825 -0.216321
C22   C     C_R   0.489043 0.871499 0.501411 -0.108718
C23   C     C_R   0.029609 0.279236 0.440871 0.215891
C24   C     C_R   0.491624 0.936445 0.624054 0.127806
C25   C     C_3   0.534750 0.929060 0.735587 -0.509263
C26   C     C_3   0.535414 0.071023 0.734677 -0.439974
C27   C     C_R   0.478319 0.400329 0.071176 0.149436
C28   C     C_R   0.610715 0.499900 0.499865 0.904275
C29   C     C_R   0.526494 0.592233 0.072139 -0.126784
C30   C     C_R   0.526601 0.592077 0.927981 -0.146636
C31   C     C_R   0.478261 0.400493 0.928484 0.190224
C32   C     C_3   0.418590 0.353320 0.922218 0.320730
C33   C     C_3   0.418625 0.352611 0.076994 -0.574858
C34   C     C_R   0.060492 0.390618 0.469096 -0.086507
C35   C     C_R   0.879571 0.611342 0.527531 0.522852
C36   C     C_R   0.880946 0.392833 0.473568 0.597885
C37   C     C_R   0.940360 0.392017 0.471913 -0.063143
C38   C     C_R   0.969966 0.503918 0.499386 -0.045138
C39   C     C_R   0.939559 0.616288 0.528319 -0.077401
C40   C     C_3   0.360882 0.199634 0.833164 -0.266278
C41   C     C_3   0.227293 0.564396 0.850172 -0.268377
C42   C     C_3   0.791632 0.616186 0.195131 -0.283926
C43   C     C_R   0.030079 0.503000 0.498003 -0.045225
C44   C     C_R   0.059682 0.614856 0.525737 -0.054510
C45   C     C_R   0.029737 0.725349 0.554249 -0.174274
C46   C     C_R   0.970439 0.727754 0.556186 0.213156
C47   C     C_R   0.120489 0.395450 0.470496 0.564270
H1    H     H_    0.947518 0.195646 0.421404 0.219419
H2    H     H_    0.576695 0.111007 0.699854 0.198647
H3    H     H_    0.546963 0.667834 0.126674 0.150226
H4    H     H_    0.547359 0.667187 0.873555 0.152776
H5    H     H_    0.389120 0.423024 0.875502 0.078627
H6    H     H_    0.388487 0.421856 0.121603 0.176070
H7    H     H_    0.416291 0.257305 0.122057 0.220182
H8    H     H_    0.052527 0.811308 0.575849 0.220550
H9    H     H_    0.215213 0.517246 0.282108 0.157462
H10   H     H_    0.319386 0.516166 0.280937 0.161123
H11   H     H_    0.320090 0.490392 0.718088 0.153058
H12   H     H_    0.680387 0.495784 0.279844 0.180173
H13   H     H_    0.345191 0.257618 0.747145 0.171643
H14   H     H_    0.332024 0.209170 0.922586 0.170382
H15   H     H_    0.359984 0.100218 0.800053 0.193555
H16   H     H_    0.241752 0.658337 0.814920 0.171320
H17   H     H_    0.262322 0.513712 0.902662 0.143266
H18   H     H_    0.192996 0.580174 0.926126 0.205285
H19   H     H_    0.810543 0.687480 0.264416 0.191904
H20   H     H_    0.747714 0.644374 0.165090 0.155370
H21   H     H_    0.818048 0.613720 0.101533 0.208478
H22   H     H_    0.680671 0.502239 0.719593 0.177426
H23   H     H_    0.784996 0.501330 0.718017 0.167885
H24   H     H_    0.469665 0.113694 0.285572 0.173692
H25   H     H_    0.469398 0.885770 0.285766 0.173264
H26   H     H_    0.516386 0.889550 0.830460 0.207345
H27   H     H_    0.575744 0.886212 0.702171 0.208633
H28   H     H_    0.517981 0.113015 0.829470 0.243445
I1    I     I_    0.064855 0.099947 0.391813 -0.203342
I2    I     I_    0.935206 0.907245 0.604418 -0.209703
N1    N     N_R   0.852285 0.501197 0.500502 -0.346189
N2    N     N_R   0.147742 0.505481 0.498099 -0.343691
N3    N     N_R   0.499610 0.499140 0.142800 -0.101936
N4    N     N_R   0.499610 0.499180 0.857150 -0.138719
O1    O     O_R   0.500010 0.316790 0.614690 -0.594548
O2    O     O_R   0.583850 0.500060 0.614640 -0.622294
O3    O     O_R   0.583840 0.500020 0.385300 -0.616858
O4    O     O_2   0.848096 0.714582 0.552270 -0.524864
O5    O     O_3   0.417461 0.231439 0.866190 -0.598471
O6    O     O_3   0.204998 0.490847 0.743381 -0.600709
O7    O     O_3   0.792232 0.495946 0.254265 -0.596030
O8    O     O_2   0.851732 0.286301 0.448695 -0.519619
O9    O     O_2   0.151996 0.292236 0.445874 -0.507843
O10   O     O_2   0.148321 0.720219 0.550632 -0.543233
O11   O     O_R   0.500000 0.316760 0.385350 -0.618824
O12   O     O_R   0.416160 0.499980 0.614700 -0.627605
O13   O     O_R   0.416150 0.499940 0.385360 -0.622607
O14   O     O_R   0.500000 0.683240 0.614650 -0.621284
O15   O     O_R   0.499990 0.683210 0.385310 -0.629873
Zn1   Zn    Zn3+2 0.500000 0.500020 0.653130 0.959634
Zn2   Zn    Zn3+2 0.500000 0.499980 0.346870 0.951996

loop_
_geom_bond_atom_site_label_1
_geom_bond_atom_site_label_2
_ccdc_geom_bond_type
C36   O8    S    
C30   H4    S    
C40   H13   S    
C28   O3    A    
C35   O4    S    
C19   C20   A    
C18   C26   S    
C47   N2    A    
C23   I1    S    
C12   H1    S    
O11   Zn2   S    
C7    C8    A    
C45   C46   A    
C27   C33   S    
C12   C23   A    
C10   O7    S    
C37   C38   A    
C18   C24   A    
C36   C37   A    
C18   C19   A    
C38   C39   A    
O13   Zn2   S    
C10   C17   A    
C40   H15   S    
C25   H27   S    
C9    N2    S    
C40   O5    S    
C12   C37   A    
C32   H5    S    
C2    N2    A    
C2    C44   A    
C8    C9    A    
O15   Zn2   S    
C13   C28   S    
C7    H11   S    
C21   C22   A    
C28   O2    A    
C42   H21   S    
C11   H12   S    
C29   H3    S    
C33   H6    S    
C41   O6    S    
C16   O15   A    
C1    C19   S    
C21   H25   S    
C27   C31   A    
C24   C25   S    
C4    C6    S    
C27   N3    A    
C26   H2    S    
C41   H18   S    
C1    O1    A    
C40   H14   S    
C35   C39   A    
C43   C44   A    
C29   C30   A    
C3    C9    A    
C3    H9    S    
C31   C32   S    
C23   C34   A    
C32   O5    S    
C26   H28   S    
C20   H24   S    
C39   C46   A    
C4    O13   A    
C1    O11   A    
C42   H20   S    
C14   H22   S    
C22   C24   A    
C42   O7    S    
C41   H16   S    
O12   Zn1   S    
C44   C45   A    
C33   H7    S    
C15   C17   A    
C15   H23   S    
C16   O14   A    
C16   C22   S    
N3    Zn2   S    
C34   C43   A    
C3    C5    A    
C46   I2    S    
O14   Zn1   S    
C6    C7    A    
C35   N1    A    
C31   N4    A    
C5    H10   S    
C8    O6    S    
O3    Zn2   S    
C32   C33   S    
C30   N4    A    
C25   C26   S    
C38   C43   A    
C36   N1    A    
C11   C13   A    
C5    C6    A    
C29   N3    A    
N4    Zn1   S    
C17   N1    S    
O1    Zn1   S    
C25   H26   S    
C2    O10   S    
C47   O9    S    
C10   C11   A    
C4    O12   A    
C20   C21   A    
C45   H8    S    
O2    Zn1   S    
C42   H19   S    
C14   C15   A    
C34   C47   A    
C41   H17   S    
C13   C14   A    
