data_mof_unit_44307.cif
_audit_creation_date              2012-12-11T13:59:54-0500
_audit_creation_method            fapswitch 2.2
_symmetry_space_group_name_H-M    P1
_symmetry_Int_Tables_number       1
_space_group_crystal_system       triclinic
_cell_length_a                    11.237596
_cell_length_b                    11.22603
_cell_length_c                    18.695854
_cell_angle_alpha                 89.571658
_cell_angle_beta                  90.21234
_cell_angle_gamma                 120.344924
_cell_volume                      2035.37027484

loop_
_atom_site_label
_atom_site_type_symbol
_atom_type_description
_atom_site_fract_x
_atom_site_fract_y
_atom_site_fract_z
_atom_type_partial_charge
C1    C     C_R   0.541843 0.477722 0.853124 0.568983
C2    C     C_R   0.482204 0.540587 0.350045 0.555178
C3    C     C_R   0.137189 0.551759 0.358740 0.566754
C4    C     C_R   0.459479 0.940904 0.350125 0.542300
C5    C     C_2   0.019629 0.509786 0.583238 -0.109921
C6    C     C_2   0.568944 0.449408 0.563649 -0.141797
C7    C     C_2   0.553415 0.125059 0.562890 -0.147978
C8    C     C_2   0.510132 0.018479 0.416212 -0.114948
C9    C     C_2   0.509784 0.492846 0.417025 -0.101916
C10   C     C_2   0.128596 0.556551 0.436867 -0.139060
C11   C     C_2   0.128659 0.462349 0.482438 -0.077904
C12   C     C_R   0.521759 0.063503 0.853069 0.564565
C13   C     C_2   0.638907 0.536334 0.440673 -0.058228
C14   C     C_2   0.460855 0.097574 0.440934 -0.057324
C15   C     C_2   0.451628 0.111820 0.518714 -0.082270
C16   C     C_2   0.666833 0.540087 0.518315 -0.073896
C17   C     C_2   0.105473 0.466956 0.560123 -0.054536
C18   C     C_2   0.003041 0.506372 0.922098 -0.131476
C19   C     C_2   0.494169 0.494837 0.922458 -0.131038
C20   C     C_2   0.504064 0.997740 0.922642 -0.132167
C21   C     C_2   0.506884 0.003432 0.077705 -0.132026
C22   C     C_2   0.495979 0.494136 0.077898 -0.130694
C23   C     C_R   0.936399 0.458184 0.852976 0.558142
C24   C     C_2   0.998863 0.504833 0.077340 -0.131462
C25   C     C_2   0.016786 0.614701 0.037704 -0.074203
C26   C     C_2   0.386808 0.400209 0.038858 -0.073440
C27   C     C_2   0.600867 0.988688 0.039085 -0.072838
C28   C     C_2   0.613690 0.014446 0.961719 -0.073958
C29   C     C_2   0.401889 0.385045 0.962180 -0.074640
C30   C     C_2   0.989015 0.600796 0.960629 -0.073367
C31   C     C_1   0.137010 0.344909 0.457129 0.249166
C32   C     C_1   0.755163 0.595717 0.391632 0.242657
C33   C     C_1   0.393972 0.148593 0.393205 0.244609
C34   C     C_R   0.478020 0.541927 0.146971 0.558741
C35   C     C_1   0.323711 0.098327 0.544944 0.260896
C36   C     C_1   0.797347 0.652748 0.543915 0.249068
C37   C     C_1   0.160587 0.406139 0.609371 0.252614
C38   C     C_1   0.059889 0.749657 0.068275 0.261189
C39   C     C_1   0.251258 0.308158 0.069587 0.262101
C40   C     C_1   0.695406 0.950256 0.071101 0.260756
C41   C     C_1   0.747423 0.054563 0.930206 0.260614
C42   C     C_1   0.311078 0.248903 0.932171 0.261154
C43   C     C_1   0.949198 0.694617 0.928870 0.261147
C44   C     C_R   0.063909 0.522061 0.146883 0.564190
C45   C     C_R   0.458428 0.936710 0.147027 0.554064
C46   C     C_R   0.584794 0.449391 0.641071 0.545978
C47   C     C_R   0.550894 0.135499 0.640928 0.540789
C48   C     C_R   0.941389 0.459629 0.649718 0.536986
Cr1   Cr    Cr6+3 0.464030 0.233680 0.750360 1.090646
Cr2   Cr    Cr6+3 0.766320 0.230350 0.750360 1.075536
Cr3   Cr    Cr6+3 0.769650 0.535970 0.750360 1.078928
Cr4   Cr    Cr6+3 0.233680 0.464030 0.249640 1.090842
Cr5   Cr    Cr6+3 0.230350 0.766320 0.249640 1.093304
Cr6   Cr    Cr6+3 0.535970 0.769650 0.249640 1.075529
H1    H     H_    0.128359 0.646313 0.457928 0.115182
H2    H     H_    0.402335 0.953302 0.946499 0.110074
H3    H     H_    0.550447 0.597289 0.945546 0.109513
H4    H     H_    0.046658 0.448545 0.946136 0.110673
H5    H     H_    0.421754 0.442897 0.452311 0.105734
H6    H     H_    0.566240 0.986097 0.451020 0.107671
H7    H     H_    0.647730 0.136702 0.540393 0.107345
H8    H     H_    0.473731 0.366023 0.543010 0.104070
H9    H     H_    0.983886 0.560512 0.547003 0.107629
H10   H     H_    0.953159 0.402711 0.054013 0.109299
H11   H     H_    0.598201 0.551372 0.054376 0.110193
H12   H     H_    0.449025 0.046867 0.053575 0.110653
N1    N     N_1   0.142366 0.250314 0.437344 -0.235950
N2    N     N_1   0.853775 0.085399 0.905795 -0.229062
N3    N     N_1   0.237542 0.140525 0.909013 -0.229189
N4    N     N_1   0.918512 0.770213 0.904222 -0.229133
N5    N     N_1   0.847711 0.643074 0.352565 -0.243540
N6    N     N_1   0.340494 0.188054 0.354629 -0.246306
N7    N     N_1   0.221660 0.087506 0.565536 -0.216385
N8    N     N_1   0.900986 0.743654 0.563982 -0.248624
N9    N     N_1   0.204382 0.357633 0.648606 -0.231827
N10   N     N_1   0.092972 0.857031 0.091889 -0.228517
N11   N     N_1   0.143392 0.233815 0.093382 -0.229137
N12   N     N_1   0.771531 0.920656 0.095958 -0.229384
O1    O     O_R   0.434100 0.092480 0.829780 -0.484670
O2    O     O_R   0.362730 0.477510 0.175360 -0.489087
O3    O     O_R   0.114780 0.637270 0.175360 -0.483797
O4    O     O_R   0.522490 0.885220 0.175360 -0.490438
O5    O     O_R   0.432250 0.092620 0.670380 -0.484510
O6    O     O_R   0.907380 0.339630 0.670380 -0.502698
O7    O     O_R   0.660370 0.567750 0.670380 -0.474034
O8    O     O_R   0.092620 0.432250 0.329620 -0.483354
O9    O     O_R   0.339630 0.907380 0.329620 -0.498284
O10   O     O_R   0.567750 0.660370 0.329620 -0.496260
O11   O     O_R   0.475790 0.362860 0.676880 -0.480882
O12   O     O_R   0.907520 0.341620 0.829780 -0.485002
O13   O     O_R   0.637140 0.112930 0.676880 -0.481710
O14   O     O_R   0.887070 0.524210 0.676880 -0.507429
O15   O     O_R   0.362860 0.475790 0.323120 -0.496405
O16   O     O_R   0.112930 0.637140 0.323120 -0.470437
O17   O     O_R   0.524210 0.887070 0.323120 -0.499505
O18   O     O_3   0.666667 0.333333 0.749450 -0.328624
O19   O     O_3   0.333333 0.666667 0.250550 -0.307471
O20   O     O_R   0.658380 0.565900 0.829780 -0.484940
O21   O     O_R   0.092480 0.434100 0.170220 -0.487126
O22   O     O_R   0.341620 0.907520 0.170220 -0.486547
O23   O     O_R   0.565900 0.658380 0.170220 -0.487166
O24   O     O_R   0.477510 0.362730 0.824640 -0.483236
O25   O     O_R   0.637270 0.114780 0.824640 -0.484229
O26   O     O_R   0.885220 0.522490 0.824640 -0.489480

loop_
_geom_bond_atom_site_label_1
_geom_bond_atom_site_label_2
_ccdc_geom_bond_type
C29   C42   S    
Cr4   O19   S    
C13   C32   S    
C45   O4    A    
C4    C8    S    
Cr2   O18   S    
Cr3   O7    S    
C14   C33   S    
Cr2   O6    S    
C46   O11   A    
C38   N10   T    
C19   H3    S    
C31   N1    T    
C39   N11   T    
C21   H12   S    
C44   O21   A    
C26   C39   S    
C5    C17   D    
C12   O1    A    
C28   C41   S    
C5    H9    S    
Cr5   O3    S    
C9    C13   D    
C7    H7    S    
Cr6   O23   S    
C33   N6    T    
C34   O2    A    
Cr2   O12   S    
C35   N7    T    
Cr6   O19   S    
C2    O10   A    
C18   C30   D    
C47   O5    A    
C41   N2    T    
C20   H2    S    
Cr3   O18   S    
C46   O7    A    
Cr3   O20   S    
C7    C15   D    
C37   N9    T    
C11   C31   S    
Cr2   O25   S    
C24   H10   S    
C3    O8    A    
C15   C35   S    
C18   H4    S    
C32   N5    T    
C21   C45   S    
Cr5   O22   S    
C22   C34   S    
C5    C48   S    
C1    C19   S    
C34   O23   A    
C18   C23   S    
C24   C25   D    
C12   O25   A    
C44   O3    A    
Cr1   O24   S    
C4    O9    A    
C20   C28   D    
Cr5   O19   S    
Cr3   O26   S    
C42   N3    T    
C48   O6    A    
C9    H5    S    
C7    C47   S    
C22   H11   S    
Cr3   O14   S    
C4    O17   A    
C23   O26   A    
C27   C40   S    
C12   C20   S    
C23   O12   A    
Cr4   O15   S    
Cr5   O9    S    
C17   C37   S    
C10   H1    S    
Cr6   O17   S    
C36   N8    T    
C43   N4    T    
C22   C26   D    
C24   C44   S    
C40   N12   T    
C30   C43   S    
C19   C29   D    
C25   C38   S    
Cr6   O4    S    
C25   C30   S    
C11   C17   S    
C8    C14   D    
C6    C46   S    
Cr5   O16   S    
C47   O13   A    
C2    O15   A    
Cr1   O11   S    
C45   O22   A    
C1    O20   A    
Cr4   O21   S    
Cr1   O5    S    
Cr4   O8    S    
C3    C10   S    
C16   C36   S    
Cr6   O10   S    
C6    H8    S    
C3    O16   A    
Cr1   O18   S    
C21   C27   D    
C10   C11   D    
C6    C16   D    
Cr1   O1    S    
Cr2   O13   S    
C26   C29   S    
C48   O14   A    
C13   C16   S    
C27   C28   S    
C14   C15   S    
Cr4   O2    S    
C2    C9    S    
C1    O24   A    
C8    H6    S    
