data_mof_unit_37152.cif
_audit_creation_date              2012-12-11T18:04:51-0500
_audit_creation_method            fapswitch 2.2
_symmetry_space_group_name_H-M    P1
_symmetry_Int_Tables_number       1
_space_group_crystal_system       triclinic
_cell_length_a                    8.214318
_cell_length_b                    12.743756
_cell_length_c                    22.856482
_cell_angle_alpha                 96.683249
_cell_angle_beta                  89.289002
_cell_angle_gamma                 98.776275
_cell_volume                      2348.52829234

loop_
_atom_site_label
_atom_site_type_symbol
_atom_type_description
_atom_site_fract_x
_atom_site_fract_y
_atom_site_fract_z
_atom_type_partial_charge
Ba1   Ba    Ba6+2 0.856210 0.551220 0.472190 1.640510
Ba2   Ba    Ba6+2 0.333620 0.448870 0.527810 1.651277
C1    C     C_3   0.592908 0.916930 0.303768 -0.395554
C2    C     C_3   0.637831 0.828239 0.336772 0.347932
C3    C     C_3   0.507241 0.300274 0.348900 0.293854
C4    C     C_3   0.527360 0.278643 0.282500 -0.367558
C5    C     C_3   0.960060 0.174227 0.683586 0.346821
C6    C     C_3   0.946873 0.118594 0.739216 -0.325165
C7    C     C_3   0.492724 0.185720 0.705311 0.337496
C8    C     C_3   0.397218 0.098770 0.737889 -0.344084
C9    C     C_R   0.343568 0.526814 0.331828 -0.300760
C10   C     C_R   0.109072 0.582769 0.939560 -0.026493
C11   C     C_R   0.061370 0.577682 0.879659 0.591620
C12   C     C_3   0.135090 0.761498 0.309338 0.323810
C13   C     C_R   0.980386 0.387866 0.875495 0.586772
C14   C     C_R   0.020680 0.391074 0.935772 -0.020004
C15   C     C_R   0.086068 0.489026 0.967889 -0.052918
C16   C     C_R   0.178367 0.679658 0.972023 -0.075091
C17   C     C_R   0.224200 0.683250 0.031095 -0.074795
C18   C     C_R   0.200038 0.590375 0.060100 -0.017379
C19   C     C_R   0.129475 0.493092 0.028495 -0.052006
C20   C     C_R   0.997490 0.298077 0.964644 -0.076434
C21   C     C_R   0.037222 0.302430 0.024325 -0.076526
C22   C     C_R   0.103680 0.399678 0.057076 -0.026576
C23   C     C_3   0.097929 0.776456 0.246180 -0.318937
C24   C     C_R   0.145890 0.405319 0.117517 0.591479
C25   C     C_R   0.245375 0.592947 0.119890 0.571476
C26   C     C_2   0.797096 0.420730 0.767522 -0.091670
C27   C     C_3   0.761969 0.392027 0.702289 -0.100441
C28   C     C_1   0.007438 0.520603 0.685076 0.031900
C29   C     C_2   0.056392 0.527021 0.741078 -0.083107
C30   C     C_2   0.945113 0.476046 0.786296 0.215819
C31   C     C_R   0.417546 0.553989 0.231237 -0.097115
C32   C     C_R   0.458701 0.564096 0.291128 -0.020860
C33   C     C_R   0.188645 0.474139 0.313712 0.032912
C34   C     C_3   0.226625 0.776835 0.595892 0.291196
C35   C     C_R   0.144456 0.464640 0.253364 -0.105155
C36   C     C_R   0.258255 0.506653 0.211287 0.201639
C37   C     C_2   0.867679 0.463601 0.664524 -0.255667
C38   C     C_R   0.763071 0.178569 0.520801 -0.275650
C39   C     C_R   0.431432 0.809786 0.474010 -0.280702
C40   C     C_R   0.406491 0.988146 0.454049 -0.114529
C41   C     C_R   0.342943 0.880043 0.450204 -0.014250
C42   C     C_R   0.577394 0.847176 0.505817 0.061142
C43   C     C_R   0.642399 0.958165 0.511031 -0.054015
C44   C     C_R   0.555843 0.028909 0.483988 -0.051619
C45   C     C_3   0.263157 0.897355 0.611222 -0.378293
C46   C     C_R   0.618782 0.139355 0.489196 0.057354
C47   C     C_R   0.853970 0.109988 0.543993 -0.025457
C48   C     C_R   0.791555 0.001054 0.541518 -0.087093
C49   C     C_3   0.988155 0.216123 0.400663 0.281920
C50   C     C_3   0.010900 0.099421 0.382929 -0.181698
C51   C     C_3   0.716266 0.690659 0.646385 0.298860
C52   C     C_3   0.733952 0.719396 0.712709 -0.355877
H1    H     H_    0.725316 0.863621 0.373000 0.069567
H2    H     H_    0.366364 0.917862 0.643397 0.111594
H3    H     H_    0.298444 0.936665 0.571298 0.092838
H4    H     H_    0.152055 0.927755 0.630380 0.143349
H5    H     H_    0.076925 0.250882 0.436264 0.069624
H6    H     H_    0.891057 0.051384 0.368152 0.091107
H7    H     H_    0.048601 0.067256 0.422831 0.084265
H8    H     H_    0.834115 0.669709 0.628494 0.007357
H9    H     H_    0.617759 0.620889 0.637440 0.088486
H10   H     H_    0.538273 0.975768 0.334603 0.083858
H11   H     H_    0.836490 0.786532 0.722847 0.124881
H12   H     H_    0.760397 0.649562 0.733673 0.078641
H13   H     H_    0.617804 0.743430 0.731321 0.134542
H14   H     H_    0.522405 0.790360 0.356368 -0.054834
H15   H     H_    0.501750 0.882762 0.268533 0.133612
H16   H     H_    0.385338 0.325038 0.358877 -0.028068
H17   H     H_    0.603941 0.367018 0.365106 0.093537
H18   H     H_    0.431269 0.212965 0.263719 0.118261
H19   H     H_    0.516446 0.351409 0.261504 0.071943
H20   H     H_    0.650679 0.255719 0.272321 0.135166
H21   H     H_    0.703660 0.958767 0.283491 0.124078
H22   H     H_    0.092195 0.698953 0.218330 0.119365
H23   H     H_    0.993081 0.261594 0.696011 0.054649
H24   H     H_    0.059362 0.144873 0.766652 0.148621
H25   H     H_    0.839027 0.138715 0.765391 0.120188
H26   H     H_    0.931028 0.030532 0.727517 0.101235
H27   H     H_    0.615715 0.205926 0.726636 -0.041029
H28   H     H_    0.505519 0.153857 0.658291 0.016050
H29   H     H_    0.373836 0.131242 0.783932 0.124904
H30   H     H_    0.469871 0.032263 0.738769 0.070243
H31   H     H_    0.058516 0.686540 0.319339 0.104227
H32   H     H_    0.278535 0.066705 0.715417 0.147070
H33   H     H_    0.016266 0.228964 0.044699 0.121955
H34   H     H_    0.947285 0.221352 0.941214 0.120704
H35   H     H_    0.277816 0.759559 0.054164 0.122098
H36   H     H_    0.509516 0.583133 0.200277 0.114623
H37   H     H_    0.198248 0.753237 0.951745 0.122751
H38   H     H_    0.179105 0.566818 0.754082 0.123028
H39   H     H_    0.711366 0.384402 0.798566 0.102279
H40   H     H_    0.022797 0.425137 0.239407 0.120426
H41   H     H_    0.377743 0.534571 0.377875 0.081285
H42   H     H_    0.267069 0.753683 0.312938 -0.049356
H43   H     H_    0.839270 0.452644 0.617767 0.076003
H44   H     H_    0.335139 0.039849 0.435106 0.085405
H45   H     H_    0.862196 0.951793 0.562989 0.104465
H46   H     H_    0.810766 0.263081 0.524123 0.059174
H47   H     H_    0.381072 0.725755 0.470739 0.069610
H48   H     H_    0.976497 0.802912 0.242872 0.153698
H49   H     H_    0.194454 0.836635 0.229710 0.121919
H50   H     H_    0.340921 0.746778 0.580898 0.006760
H51   H     H_    0.133134 0.758468 0.560118 0.072933
N1    N     N_R   0.996789 0.480873 0.848025 -0.422953
N2    N     N_R   0.214126 0.501661 0.148881 -0.423577
O1    O     O_2   0.890290 0.440320 0.360790 -0.461910
O2    O     O_3   0.676493 0.778792 0.621444 -0.642063
O3    O     O_3   0.096786 0.849165 0.347190 -0.609652
O4    O     O_2   0.299410 0.559720 0.639240 -0.448668
O5    O     O_3   0.058870 0.558650 0.568170 -0.503057
O6    O     O_3   0.517310 0.362160 0.604450 -0.458850
O7    O     O_3   0.168892 0.731046 0.646307 -0.627282
O8    O     O_3   0.614910 0.369290 0.471050 -0.479837
O9    O     O_3   0.099190 0.306290 0.575790 -0.471426
O10   O     O_2   0.194946 0.117656 0.541310 -0.479352
O11   O     O_3   0.084271 0.137306 0.647734 -0.587808
O12   O     O_3   0.130840 0.441440 0.431840 -0.497475
O13   O     O_3   0.574800 0.630800 0.528960 -0.490152
O14   O     O_2   0.344900 0.234690 0.472540 -0.470873
O15   O     O_3   0.520330 0.206706 0.374367 -0.659998
O16   O     O_2   0.472095 0.482094 0.705586 -0.485776
O17   O     O_3   0.410348 0.275394 0.709732 -0.557614
O18   O     O_2   0.075392 0.659794 0.856049 -0.597284
O19   O     O_2   0.932028 0.301583 0.847293 -0.624368
O20   O     O_2   0.124637 0.323858 0.141815 -0.602217
O21   O     O_2   0.312778 0.677059 0.146077 -0.617638
O22   O     O_3   0.672400 0.637930 0.395560 -0.478525
O23   O     O_2   0.799128 0.565300 0.292732 -0.506084
O24   O     O_3   0.008630 0.270658 0.351011 -0.634258
O25   O     O_3   0.713211 0.756320 0.297808 -0.591498
O26   O     O_2   0.844800 0.765340 0.527490 -0.472032
O27   O     O_3   0.090520 0.693800 0.424220 -0.488187
O28   O     O_2   0.002562 0.880936 0.456560 -0.487954
P1    P     P_3+3 0.057140 0.408270 0.369700 0.984046
P2    P     P_3+3 0.667360 0.749400 0.544670 0.971116
P3    P     P_3+3 0.135154 0.829519 0.419896 0.933578
P4    P     P_3+3 0.132580 0.591820 0.630310 0.989980
P5    P     P_3+3 0.057394 0.167057 0.576132 0.971745
P6    P     P_3+3 0.662321 0.627598 0.318700 0.958817
P7    P     P_3+3 0.527488 0.235778 0.451129 0.934587
P8    P     P_3+3 0.540420 0.379303 0.681308 0.973686
H52   H     H_    0.862192 0.219043 0.416906 -0.030330
C53   C     C_3   0.142948 0.088267 0.334736 -0.125028
C54   C     C_3   0.069257 0.063100 0.272793 -0.364870
H53   H     H_    0.985909 0.985813 0.268894 0.139292
H54   H     H_    0.999263 0.126586 0.262420 0.167948
H55   H     H_    0.169542 0.057258 0.240105 0.116522
H56   H     H_    0.230918 0.162527 0.336233 0.132077
H57   H     H_    0.217813 0.026422 0.342641 0.128380
H58   H     H_    0.837278 0.156312 0.661658 -0.104577

loop_
_geom_bond_atom_site_label_1
_geom_bond_atom_site_label_2
_ccdc_geom_bond_type
O28   P3    D    
C32   P6    S    
O26   P2    D    
C42   P2    S    
C17   C18   A    
O5    P4    S    
C34   O7    S    
C53   C54   S    
O4    P4    D    
C5    C6    S    
C2    O25   S    
C52   H11   S    
C51   C52   S    
C4    H18   S    
Ba2   O5    S    
C48   H45   S    
C50   C53   S    
C41   P3    S    
Ba2   P4    S    
C13   N1    Am   
C26   C27   S    
C1    H15   S    
C35   C36   A    
C22   C24   A    
O1    P1    D    
Ba1   O22   S    
C50   H7    S    
C40   H44   S    
Ba1   O5    S    
C40   C44   A    
C28   C29   D    
Ba2   O6    S    
O11   P5    S    
C23   H48   S    
C37   H43   S    
O22   P6    S    
C51   O2    S    
C13   C14   A    
C27   P8    S    
C8    H29   S    
C7    O17   S    
C34   C45   S    
O2    P2    S    
Ba1   Ba2   S    
Ba1   O12   S    
C36   N2    S    
O23   P6    D    
C50   H6    S    
Ba2   O9    S    
C14   C15   A    
C13   O19   D    
C10   C15   A    
C35   H40   S    
C6    H25   S    
C21   C22   A    
O17   P8    S    
C20   H34   S    
Ba1   P1    S    
C1    H21   S    
C7    C8    S    
C53   H56   S    
C7    H28   S    
C5    H23   S    
C11   O18   D    
O8    P7    S    
C21   H33   S    
C6    H24   S    
C39   C41   A    
C5    O11   S    
Ba1   O26   S    
C26   C30   D    
C12   H42   S    
C4    H20   S    
C54   H54   S    
C44   C46   A    
Ba2   O4    S    
C49   C50   S    
O3    P3    S    
O24   P1    S    
C2    H14   S    
C49   O24   S    
C16   C17   A    
C52   H13   S    
C49   H52   S    
C3    O15   S    
C15   C19   A    
O6    P8    S    
C26   H39   S    
Ba1   O13   S    
C24   N2    Am   
C38   H46   S    
C3    H16   S    
C17   H35   S    
C45   H3    S    
C54   H55   S    
Ba2   O8    S    
C29   C30   S    
C25   N2    Am   
C27   C37   S    
C31   C32   A    
C46   P7    S    
O7    P4    S    
C10   C11   A    
C25   O21   D    
C53   H57   S    
C29   H38   S    
C2    H1    S    
C39   C42   A    
C47   P5    S    
O10   P5    D    
C49   H5    S    
C40   C41   A    
O15   P7    S    
C10   C16   A    
C1    C2    S    
Ba1   O27   S    
Ba1   P2    S    
C42   C43   A    
C4    H19   S    
C54   H53   S    
Ba2   O14   S    
C9    H41   S    
O25   P6    S    
C38   C46   A    
C8    H32   S    
C14   C20   A    
C28   P4    S    
C33   C35   A    
C34   H51   S    
O14   P7    D    
C9    C32   A    
C23   H49   S    
C31   C36   A    
C12   H31   S    
C11   N1    Am   
C33   P1    S    
O27   P3    S    
Ba2   O12   S    
C52   H12   S    
C18   C25   A    
O12   P1    S    
C34   H50   S    
C23   H22   S    
C9    C33   A    
C3    H17   S    
C31   H36   S    
C45   H4    S    
C51   H9    S    
C16   H37   S    
C3    C4    S    
C43   C48   A    
C12   O3    S    
C8    H30   S    
C39   H47   S    
C28   C37   D    
C24   O20   D    
C12   C23   S    
C1    H10   S    
Ba1   O1    S    
C5    H58   S    
C43   C44   A    
C18   C19   A    
C51   H8    S    
C47   C48   A    
C19   C22   A    
O16   P8    D    
C6    H26   S    
C20   C21   A    
C30   N1    S    
O13   P2    S    
Ba1   O8    S    
Ba2   O13   S    
C38   C47   A    
C7    H27   S    
C45   H2    S    
O9    P5    S    
