data_mof_unit_33370.cif
_audit_creation_date              2013-03-05T16:03:27-0500
_audit_creation_method            fapswitch 2.2
_symmetry_space_group_name_H-M    P1
_symmetry_Int_Tables_number       1
_space_group_crystal_system       triclinic
_cell_length_a                    6.950277
_cell_length_b                    18.088947
_cell_length_c                    20.3706
_cell_angle_alpha                 68.761976
_cell_angle_beta                  90.137999
_cell_angle_gamma                 90.835338
_cell_volume                      2386.8540791

loop_
_atom_site_label
_atom_site_type_symbol
_atom_site_description
_atom_site_fract_x
_atom_site_fract_y
_atom_site_fract_z
_atom_type_partial_charge
O1    O     O_R   0.488960 0.443750 0.941980 -0.582722
O2    O     O_R   0.823890 0.406510 0.087590 -0.594195
O3    O     O_R   0.999680 0.556250 0.058020 -0.586386
C1    C     C_R   0.655319 0.386108 0.116700 0.970502
O4    O     O_R   0.818360 0.434410 0.944340 -0.580976
O5    O     O_R   0.994110 0.584350 0.913750 -0.570694
C2    C     C_R   0.649194 0.420092 0.924174 0.988546
O6    O     O_R   0.494530 0.415650 0.086250 -0.595822
O7    O     O_3   0.662590 0.549160 0.990130 -0.217897
V1    V     V_3+5 0.935320 0.490880 0.001830 1.243260
O8    O     O_R   0.324180 0.593490 0.912410 -0.548325
C3    C     C_R   0.157509 0.617492 0.885480 0.971197
O9    O     O_R   0.329720 0.565590 0.055660 -0.547377
C4    C     C_R   0.161789 0.579803 0.076011 1.017809
V2    V     V_3+5 0.435990 0.509120 0.998170 1.283959
O10   O     O_3   0.158850 0.450840 0.009870 -0.277226
C5    C     C_3   0.005930 0.719278 0.298866 0.212015
C6    C     C_3   0.188341 0.680261 0.283496 0.226368
H1    H     H_    0.451305 0.760467 0.295168 0.200955
C7    C     C_1   0.154469 0.626537 0.120618 -0.164857
C8    C     C_1   0.110272 0.880406 0.373313 -0.174190
C9    C     C_3   0.954940 0.750765 0.219437 -0.306200
C10   C     C_3   0.138263 0.712173 0.204595 -0.048760
C11   C     C_3   0.073035 0.827543 0.209329 0.205355
C12   C     C_3   0.123194 0.795715 0.288263 -0.043063
C13   C     C_3   0.255374 0.788549 0.193927 0.214889
C14   C     C_3   0.306605 0.757060 0.273336 -0.306669
C15   C     C_1   0.147159 0.665327 0.158244 0.171816
C16   C     C_1   0.116092 0.842354 0.334954 0.147207
H2    H     H_    0.810271 0.747450 0.197491 0.208773
H3    H     H_    0.177315 0.513325 0.688613 0.210003
C17   C     C_R   0.244389 0.784240 0.867636 0.251475
C18   C     C_R   0.208908 0.859568 0.868516 -0.151631
C19   C     C_R   0.117084 0.915387 0.812785 -0.124623
C20   C     C_R   0.072320 0.899724 0.752302 0.294286
C21   C     C_R   0.116675 0.824768 0.747780 -0.036208
C22   C     C_R   0.175144 0.762865 0.810592 -0.038342
C23   C     C_R   0.113689 0.811041 0.682944 -0.205166
C24   C     C_R   0.135300 0.730859 0.684857 -0.079355
C25   C     C_R   0.145076 0.665686 0.751752 0.040744
C26   C     C_R   0.158780 0.682558 0.814987 -0.179226
C27   C     C_R   0.146461 0.712318 0.622256 0.225698
C28   C     C_R   0.166836 0.634474 0.625325 0.240421
C29   C     C_R   0.165808 0.572972 0.688721 -0.185975
C30   C     C_R   0.152431 0.586165 0.751387 0.104669
H4    H     H_    0.258053 0.875998 0.911939 0.217421
H5    H     H_    0.083140 0.972215 0.816083 0.201912
H6    H     H_    0.621784 0.371729 0.429173 0.192146
C31   C     C_R   0.609779 0.097752 0.254789 -0.200590
C32   C     C_R   0.607658 0.083673 0.191980 -0.060675
C33   C     C_R   0.617858 0.146690 0.127932 -0.054589
C34   C     C_R   0.629765 0.224319 0.126198 -0.175287
C35   C     C_R   0.631035 0.240836 0.189140 0.113848
C36   C     C_R   0.620283 0.175998 0.254870 0.120583
C37   C     C_R   0.644609 0.320259 0.186877 -0.274510
C38   C     C_R   0.645527 0.335027 0.251482 0.034670
C39   C     C_R   0.613341 0.269581 0.316864 0.044489
C40   C     C_R   0.614629 0.189774 0.319024 -0.255907
C41   C     C_R   0.674977 0.412389 0.255126 0.111120
C42   C     C_R   0.689961 0.421061 0.320256 -0.103708
C43   C     C_R   0.639362 0.359509 0.381266 -0.098663
C44   C     C_R   0.580293 0.287173 0.378515 0.092219
H7    H     H_    0.600399 0.046511 0.303145 0.117022
H8    H     H_    0.597179 0.023473 0.193070 0.161010
H9    H     H_    0.616439 0.135399 0.079242 0.153151
H10   H     H_    0.637652 0.271053 0.074835 0.091973
H11   H     H_    0.719999 0.478655 0.323351 0.188716
O11   O     O_R   0.770540 0.084530 0.414050 -0.611425
O12   O     O_R   0.445710 0.065660 0.555720 -0.581593
O13   O     O_R   0.270420 0.915650 0.586190 -0.569782
C45   C     C_R   0.614688 0.080264 0.575838 1.049217
O14   O     O_R   0.441140 0.093540 0.412470 -0.591559
O15   O     O_R   0.265820 0.943740 0.441930 -0.576091
C46   C     C_R   0.610159 0.120204 0.387582 0.928006
O16   O     O_R   0.775150 0.056440 0.558310 -0.546734
O17   O     O_3   0.602370 0.950960 0.510050 -0.244176
V3    V     V_3+5 0.329450 0.009140 0.498150 1.276443
O18   O     O_R   0.935790 0.934280 0.444060 -0.576016
C47   C     C_R   0.103235 0.925303 0.419689 1.047378
O19   O     O_R   0.940370 0.906390 0.587310 -0.539963
C48   C     C_R   0.108179 0.881661 0.614453 1.023883
V4    V     V_3+5 0.828810 0.990710 0.501460 1.300935
O20   O     O_3   0.105780 0.049100 0.489960 -0.270097
C49   C     C_3   0.694466 0.324433 0.714138 0.365488
C50   C     C_3   0.514409 0.287389 0.693559 0.128185
H12   H     H_    0.301332 0.255896 0.792013 0.185429
C51   C     C_1   0.623371 0.126793 0.620466 -0.141695
C52   C     C_1   0.639889 0.374754 0.878574 -0.235326
C53   C     C_3   0.811524 0.249103 0.725019 -0.286446
C54   C     C_3   0.629409 0.211063 0.705493 -0.073184
C55   C     C_3   0.747579 0.216347 0.803989 -0.260694
C56   C     C_3   0.631934 0.292794 0.791685 -0.006086
C57   C     C_3   0.566995 0.179652 0.783060 0.420775
C58   C     C_3   0.449652 0.254855 0.772255 -0.356718
C59   C     C_1   0.627387 0.165163 0.658419 0.201325
C60   C     C_1   0.635067 0.337574 0.839637 0.169001
H13   H     H_    0.841083 0.186001 0.849853 0.183514
H14   H     H_    0.959670 0.247933 0.705245 0.200357
I1    I     I_    0.281286 0.562285 0.341248 -0.266131
N1    N     N_R   0.957050 0.956559 0.701085 0.217512
O21   O     O_R   0.776726 0.939010 0.696131 -0.392668
O22   O     O_R   0.012815 0.030574 0.676605 -0.407156
N2    N     N_R   0.137369 0.770819 0.553935 0.196643
O23   O     O_R   0.975543 0.776905 0.520318 -0.392153
O24   O     O_R   0.297342 0.790261 0.518413 -0.393141
I2    I     I_    0.199319 0.604744 0.534122 -0.036190
I3    I     I_    0.152017 0.473649 0.834437 -0.306115
I4    I     I_    0.800660 0.664929 0.380714 -0.202595
I5    I     I_    0.678401 0.525862 0.173319 -0.335971
I6    I     I_    0.350984 0.237472 0.449992 -0.315800
I7    I     I_    0.330124 0.346040 0.606691 -0.216267
N3    N     N_R   0.765410 0.404447 0.674431 0.251134
O25   O     O_R   0.820831 0.422847 0.609454 -0.321852
O26   O     O_R   0.770136 0.458188 0.702914 -0.391188
N4    N     N_R   0.496182 0.099692 0.822948 0.243936
O27   O     O_R   0.445951 0.080922 0.888500 -0.367260
O28   O     O_R   0.484362 0.046607 0.793834 -0.382672
I8    I     I_    0.454746 0.842991 0.109939 -0.233855
I9    I     I_    0.979847 0.945062 0.150507 -0.345860
N5    N     N_R   0.383867 0.737875 0.916613 0.234165
O29   O     O_R   0.542873 0.720592 0.892086 -0.350518
O30   O     O_R   0.380992 0.735023 0.981340 -0.398764

loop_
_geom_bond_atom_site_label_1
_geom_bond_atom_site_label_2
_geom_bond_distance
_ccdc_geom_bond_type
C37   C38   1.434572 A    
C52   C60   1.211700 T    
C57   C58   1.542298 S    
C31   H7    1.082026 S    
C32   H8    1.082497 S    
O12   V3    1.978262 S    
C20   C21   1.429942 A    
C1    O6    1.301200 A    
C27   N2    1.412556 S    
N3    O26   1.300131 A    
H6    C43   1.083419 S    
C54   C59   1.478342 S    
C35   C36   1.426239 A    
C29   C30   1.384599 A    
C13   C14   1.550325 S    
O14   V3    2.005286 S    
C21   C22   1.424392 A    
C11   C13   1.546083 S    
O5    C3    1.309181 A    
C23   C24   1.446765 A    
V3    O20   1.706211 S    
O11   C46   1.309837 A    
V2    O10   2.153929 S    
C56   C60   1.477637 S    
C38   C39   1.441127 A    
C19   C20   1.394116 A    
C33   H9    1.082682 S    
C10   C13   1.539162 S    
O12   C45   1.297741 A    
O13   C48   1.306699 A    
H12   C58   1.110443 S    
O8    V2    2.020261 S    
C42   H11   1.083581 S    
N4    O28   1.300250 A    
C51   C59   1.211760 T    
O1    V2    1.959400 S    
C53   C55   1.562582 S    
H1    C14   1.108569 S    
O7    V1    2.152987 S    
C41   C42   1.394748 A    
O9    C4    1.299431 A    
O13   V3    2.007647 S    
C18   H4    1.083269 S    
C17   N5    1.432274 S    
C56   C58   1.549748 S    
N3    O25   1.300258 A    
N5    O30   1.300905 A    
C5    C6    1.546467 S    
C24   C27   1.433789 A    
O17   V3    2.153049 S    
C35   C37   1.422379 A    
C12   C16   1.483783 S    
C25   C30   1.442802 A    
H3    C29   1.083868 S    
C6    C10   1.539051 S    
C4    C7    1.449476 S    
C39   C44   1.422774 A    
C11   C12   1.539778 S    
O19   V4    2.020258 S    
C5    I4    2.136547 S    
O17   V4    1.703444 S    
C55   C56   1.549659 S    
O4    C2    1.297725 A    
O18   C47   1.301520 A    
C7    C15   1.213771 T    
C10   C15   1.481501 S    
C8    C16   1.215157 T    
C55   H13   1.110154 S    
C33   C34   1.393064 A    
C42   C43   1.376997 A    
C28   I2    2.126326 S    
O2    C1    1.301043 A    
C28   C29   1.365425 A    
C3    C26   1.490872 S    
C55   C57   1.541367 S    
C50   C58   1.559182 S    
O18   V4    1.962912 S    
C2    C52   1.445593 S    
C44   I6    2.118823 S    
C50   C54   1.546678 S    
C8    C47   1.453145 S    
N1    O22   1.301350 A    
C32   C33   1.388263 A    
O15   C47   1.299784 A    
N2    O24   1.300625 A    
C49   N3    1.457807 S    
C17   C22   1.431364 A    
C49   C50   1.538650 S    
O3    C4    1.297083 A    
C45   C51   1.446051 S    
O14   C46   1.295706 A    
C25   C26   1.429990 A    
C31   C32   1.392090 A    
O6    V2    2.015505 S    
O9    V2    1.962982 S    
C23   C48   1.513215 S    
C9    C11   1.550929 S    
C27   C28   1.395982 A    
C20   N1    1.424863 S    
O2    V1    2.005336 S    
C24   C25   1.445470 A    
C34   H10   1.081899 S    
C34   C35   1.417989 A    
C40   C46   1.503602 S    
C54   C57   1.534078 S    
C36   C40   1.417036 A    
C11   I9    2.136640 S    
C9    H2    1.109037 S    
O1    C2    1.297410 A    
C9    C10   1.543658 S    
C6    C14   1.551646 S    
C13   I8    2.137291 S    
O19   C48   1.303471 A    
C50   I7    2.136810 S    
C6    I1    2.138490 S    
O5    V1    2.007617 S    
O8    C3    1.292445 A    
O16   V4    1.976482 S    
C12   C14   1.545413 S    
C57   N4    1.457473 S    
C5    C9    1.550309 S    
C38   C41   1.439626 A    
C53   H14   1.109817 S    
C5    C12   1.540884 S    
C17   C18   1.394750 A    
C21   C23   1.429619 A    
O7    V2    1.707004 S    
O11   V4    2.010465 S    
O4    V1    1.978285 S    
C1    C37   1.494064 S    
O3    V1    1.967535 S    
V1    O10   1.706081 S    
C45   O16   1.297853 A    
C39   C40   1.428440 A    
N1    O21   1.301049 A    
C41   I5    2.124021 S    
C18   C19   1.378578 A    
C22   C26   1.425563 A    
C43   C44   1.386054 A    
C30   I3    2.123634 S    
V4    O20   2.154016 S    
C49   C53   1.542897 S    
N2    O23   1.300534 A    
O15   V3    1.967367 S    
N5    O29   1.301766 A    
C19   H5    1.083534 S    
C49   C56   1.533900 S    
N4    O27   1.300230 A    
C53   C54   1.550569 S    
C31   C36   1.416805 A    
