data_mof_unit_24086.cif
_audit_creation_date              2013-03-05T15:44:20-0500
_audit_creation_method            fapswitch 2.2
_symmetry_space_group_name_H-M    P1
_symmetry_Int_Tables_number       1
_space_group_crystal_system       triclinic
_cell_length_a                    23.529942
_cell_length_b                    10.919282
_cell_length_c                    9.737134
_cell_angle_alpha                 89.187888
_cell_angle_beta                  89.588332
_cell_angle_gamma                 90.171238
_cell_volume                      2501.43472213

loop_
_atom_site_label
_atom_site_type_symbol
_atom_site_description
_atom_site_fract_x
_atom_site_fract_y
_atom_site_fract_z
_atom_type_partial_charge
O1    O     O_R   0.500010 0.321960 0.617040 -0.520088
O2    O     O_R   0.499990 0.321920 0.382900 -0.605331
C1    C     C_R   0.499094 0.265421 0.500711 0.870680
O3    O     O_R   0.417890 0.499980 0.617100 -0.553945
O4    O     O_R   0.417870 0.499940 0.382950 -0.563879
C2    C     C_R   0.391134 0.500448 0.500404 0.935873
Cu1   Cu    Cu3+1 0.500010 0.500020 0.638630 1.084889
Cu2   Cu    Cu3+1 0.499990 0.499980 0.361370 1.102857
O5    O     O_R   0.500010 0.678080 0.617100 -0.587633
O6    O     O_R   0.499990 0.678040 0.382960 -0.532809
O7    O     O_R   0.582130 0.500060 0.617050 -0.568770
O8    O     O_R   0.582110 0.500020 0.382900 -0.543857
C3    C     C_R   0.500703 0.734496 0.499409 0.871056
C4    C     C_R   0.608988 0.500701 0.499410 0.809476
C5    C     C_R   0.880759 0.607082 0.548039 0.614666
N1    N     N_R   0.851934 0.510452 0.493935 -0.459680
C6    C     C_R   0.879688 0.411138 0.441770 0.639543
C7    C     C_R   0.939692 0.409180 0.434578 -0.131595
C8    C     C_R   0.969868 0.507523 0.493524 -0.036786
C9    C     C_R   0.940219 0.606932 0.550753 -0.007145
C10   C     C_R   0.970685 0.312065 0.373890 0.335172
C11   C     C_R   0.030117 0.312068 0.378970 -0.159860
C12   C     C_R   0.059978 0.408415 0.439079 -0.092179
C13   C     C_R   0.029899 0.506759 0.495921 -0.002887
C14   C     C_R   0.059833 0.604484 0.555457 -0.026971
C15   C     C_R   0.029688 0.702704 0.611626 -0.099617
C16   C     C_R   0.970529 0.704058 0.609002 -0.097526
C17   C     C_R   0.119602 0.409858 0.441696 0.689174
N2    N     N_R   0.147940 0.505313 0.500264 -0.428372
C18   C     C_R   0.119415 0.601425 0.557116 0.667542
O9    O     O_2   0.851811 0.703099 0.598815 -0.482409
O10   O     O_2   0.848971 0.314303 0.400028 -0.440189
O11   O     O_2   0.149138 0.317155 0.385506 -0.459143
O12   O     O_2   0.148700 0.693392 0.615239 -0.459681
C19   C     C_R   0.239410 0.582172 0.409605 0.261382
C20   C     C_R   0.299211 0.581449 0.409988 0.189695
C21   C     C_R   0.328482 0.502228 0.501033 -0.341558
C22   C     C_R   0.297748 0.424483 0.592175 0.177214
C23   C     C_R   0.237953 0.426463 0.592828 0.263998
C24   C     C_R   0.209005 0.504904 0.501198 0.037478
C25   C     C_R   0.760668 0.526723 0.368915 0.370009
C26   C     C_R   0.701125 0.520797 0.372623 -0.220314
H1    H     H_    0.677763 0.532124 0.277896 0.235820
C27   C     C_R   0.671598 0.503807 0.497416 -0.116034
C28   C     C_R   0.702250 0.491661 0.619797 -0.154803
H2    H     H_    0.680600 0.478295 0.717413 0.210267
C29   C     C_R   0.761386 0.495459 0.617359 -0.113967
H3    H     H_    0.784531 0.484032 0.712404 0.195125
C30   C     C_R   0.790932 0.512580 0.493103 0.215606
C31   C     C_2   0.496340 0.934389 0.386910 -0.063946
C32   C     C_2   0.503617 0.866511 0.500798 -0.267461
H4    H     H_    0.489239 0.890985 0.288762 0.212263
C33   C     C_2   0.498933 0.068442 0.387675 -0.145621
C34   C     C_2   0.495779 0.133213 0.503601 -0.224401
H5    H     H_    0.502810 0.114605 0.288455 0.197468
H6    H     H_    0.489264 0.090804 0.603587 0.198288
C35   C     C_2   0.483677 0.407347 0.926553 0.452537
N3    N     N_2   0.499380 0.498660 0.846910 -0.308948
C36   C     C_2   0.472362 0.422123 0.077257 -0.032697
N4    N     N_2   0.499370 0.498630 0.153040 -0.079950
N5    N     N_R   0.943298 0.215823 0.300362 0.172751
O13   O     O_R   0.914617 0.242351 0.190160 -0.240617
O14   O     O_R   0.957362 0.102438 0.324504 -0.286471
H7    H     H_    0.512890 0.906547 0.599168 0.164213
N6    N     N_R   0.480085 0.285692 0.875612 0.141501
O15   O     O_R   0.526817 0.223575 0.861305 -0.329439
O16   O     O_R   0.432160 0.226552 0.886231 -0.279525
H8    H     H_    0.496767 0.584511 0.888793 0.215539
H9    H     H_    0.442255 0.359969 0.126699 0.157664
H10   H     H_    0.052947 0.237249 0.332062 0.229059
N7    N     N_R   0.549277 0.549547 0.098987 0.213109
O17   O     O_R   0.560969 0.663581 0.123379 -0.318609
O18   O     O_R   0.590006 0.478567 0.056592 -0.330676
H11   H     H_    0.051683 0.778944 0.657667 0.211163
H12   H     H_    0.948631 0.781344 0.653273 0.209122
N8    N     N_R   0.209374 0.663502 0.318386 0.181983
O19   O     O_R   0.167421 0.623223 0.245141 -0.290618
O20   O     O_R   0.223019 0.778973 0.310529 -0.211073
N9    N     N_R   0.330084 0.661532 0.317779 0.177932
O21   O     O_R   0.366163 0.740526 0.365473 -0.328699
O22   O     O_R   0.320817 0.658439 0.186294 -0.250286
N10   N     N_R   0.327144 0.342168 0.683091 0.184571
O23   O     O_R   0.361821 0.261006 0.633730 -0.303082
O24   O     O_R   0.317227 0.344210 0.814673 -0.232800
N11   N     N_R   0.206404 0.346204 0.683747 0.180937
O25   O     O_R   0.164297 0.387968 0.756483 -0.292438
O26   O     O_R   0.218551 0.230125 0.691084 -0.211052
N12   N     N_R   0.789476 0.548034 0.239630 0.153029
O27   O     O_R   0.764720 0.520702 0.124881 -0.292261
O28   O     O_R   0.838276 0.604350 0.234478 -0.302953

loop_
_geom_bond_atom_site_label_1
_geom_bond_atom_site_label_2
_geom_bond_distance
_ccdc_geom_bond_type
C7    C10   1.421868 A    
C25   C26   1.402512 A    
N12   O28   1.301244 A    
C8    C9    1.411232 A    
Cu1   Cu2   2.699726 S    
C29   C30   1.401015 A    
C33   C34   1.342241 D    
Cu1   O7    1.942167 S    
C15   C16   1.392554 A    
C21   C22   1.413143 A    
C20   C21   1.413922 A    
N8    O20   1.301225 A    
O2    C1    1.294799 A    
N11   O25   1.301136 A    
O4    C2    1.301399 A    
C1    C34   1.445352 S    
C35   C36   1.500532 S    
C5    N1    1.366552 A    
C7    C8    1.416150 A    
N5    O14   1.301143 A    
O5    C3    1.293313 A    
C3    C32   1.443193 S    
C19   C20   1.407180 A    
N1    C6    1.369514 A    
N6    O16   1.300549 A    
C31   H4    1.086517 S    
C12   C13   1.405760 A    
Cu1   N3    2.027841 S    
C10   N5    1.433929 S    
C28   C29   1.391968 A    
C36   N4    1.291246 D    
C10   C11   1.399657 A    
C22   N10   1.435257 S    
C26   C27   1.405130 A    
O3    Cu1   1.945112 S    
C16   H12   1.083156 S    
C25   C30   1.414546 A    
C6    C7    1.413383 A    
N8    O19   1.301142 A    
C33   H5    1.086484 S    
C5    C9    1.399537 A    
C34   H6    1.081867 S    
C19   N8    1.437880 S    
C31   C33   1.464983 S    
C18   O12   1.349499 S    
N11   O26   1.301242 A    
C13   C14   1.410591 A    
O3    C2    1.302948 A    
C23   C24   1.408612 A    
N9    O22   1.301160 A    
N4    N7    1.394296 S    
C14   C15   1.402892 A    
C28   H2    1.083021 S    
C20   N9    1.436346 S    
O1    C1    1.297970 A    
N2    C18   1.368824 A    
C29   H3    1.083055 S    
Cu2   O8    1.945117 S    
C31   C32   1.337381 D    
C2    C21   1.474335 S    
O7    C4    1.304180 A    
C12   C17   1.403407 A    
N1    C30   1.435720 S    
C36   H9    1.084976 S    
N3    H8    1.029422 S    
O8    C4    1.302905 A    
C17   O11   1.349608 S    
N10   O23   1.301118 A    
N10   O24   1.301176 A    
C26   H1    1.082913 S    
C23   N11   1.437886 S    
C27   C28   1.402226 A    
C4    C27   1.473488 S    
C14   C18   1.402653 A    
Cu1   O5    1.952599 S    
C25   N12   1.441133 S    
C17   N2    1.369079 A    
O1    Cu1   1.958581 S    
O2    Cu2   1.952599 S    
C32   H7    1.081888 S    
C35   N6    1.427020 S    
O6    C3    1.298470 A    
O4    Cu2   1.942167 S    
C5    O9    1.349730 S    
C9    C16   1.404778 A    
C19   C24   1.408895 A    
N7    O17   1.299926 A    
Cu2   N4    2.028958 S    
C35   N3    1.305314 D    
C22   C23   1.407188 A    
N2    C24   1.436982 S    
C15   H11   1.083140 S    
C8    C13   1.412927 A    
N5    O13   1.301358 A    
N9    O21   1.301164 A    
N12   O27   1.301755 A    
Cu2   O6    1.958580 S    
N6    O15   1.301353 A    
N7    O18   1.302837 A    
C6    O10   1.348117 S    
C11   C12   1.400702 A    
C11   H10   1.083656 S    
