data_mof_unit_7364.cif
_audit_creation_date              2013-03-05T15:46:47-0500
_audit_creation_method            fapswitch 2.2
_symmetry_space_group_name_H-M    P1
_symmetry_Int_Tables_number       1
_space_group_crystal_system       triclinic
_cell_length_a                    17.177076
_cell_length_b                    11.040973
_cell_length_c                    9.814744
_cell_angle_alpha                 111.111713
_cell_angle_beta                  93.818467
_cell_angle_gamma                 91.949804
_cell_volume                      1729.22318492

loop_
_atom_site_label
_atom_site_type_symbol
_atom_site_description
_atom_site_fract_x
_atom_site_fract_y
_atom_site_fract_z
_atom_type_partial_charge
O1    O     O_R   0.507280 0.332200 0.576490 -0.591400
O2    O     O_R   0.492720 0.667800 0.423510 -0.592593
O3    O     O_R   0.484240 0.295800 0.334620 -0.574796
O4    O     O_R   0.515760 0.704200 0.665380 -0.530593
C1    C     C_R   0.494316 0.254243 0.441390 0.847735
C2    C     C_R   0.505385 0.745749 0.558659 0.919801
O5    O     O_R   0.399260 0.520290 0.634950 -0.550857
O6    O     O_R   0.600740 0.479710 0.365050 -0.590013
O7    O     O_R   0.376220 0.483890 0.393080 -0.568943
O8    O     O_R   0.623780 0.516110 0.606920 -0.533257
C3    C     C_R   0.351555 0.502320 0.520457 0.836297
C4    C     C_R   0.648343 0.502918 0.481011 0.839492
Cu1   Cu    Cu3+1 0.513640 0.521550 0.643210 1.043493
Cu2   Cu    Cu3+1 0.486360 0.478450 0.356790 0.983040
C5    C     C_R   0.267170 0.496014 0.532991 -0.165975
C6    C     C_R   0.732282 0.521089 0.472036 -0.165205
C7    C     C_R   0.220126 0.406907 0.415320 -0.192441
C8    C     C_R   0.767573 0.435113 0.353991 -0.201546
C9    C     C_R   0.140168 0.395121 0.421882 -0.065888
C10   C     C_R   0.848121 0.443812 0.350175 -0.069575
C11   C     C_R   0.105379 0.474556 0.544650 -0.017794
C12   C     C_R   0.894073 0.540273 0.462686 -0.013004
C13   C     C_R   0.151440 0.563889 0.666812 -0.078281
C14   C     C_R   0.859235 0.635061 0.577098 -0.073877
C15   C     C_R   0.233466 0.573556 0.660897 0.342391
C16   C     C_R   0.777474 0.623174 0.582860 0.352302
C17   C     C_2   0.019553 0.470775 0.536120 -0.086612
C18   C     C_2   0.979416 0.536833 0.462640 -0.089180
H1    H     H_    0.245478 0.345329 0.317833 0.171257
H2    H     H_    0.733067 0.357656 0.267985 0.170900
H3    H     H_    0.875173 0.372773 0.261607 0.156573
H4    H     H_    0.104653 0.327102 0.328497 0.154857
H5    H     H_    0.487576 0.864890 0.369990 0.188876
H6    H     H_    0.511608 0.135093 0.630183 0.182849
C19   C     C_2   0.491119 0.114982 0.408386 -0.315334
C20   C     C_2   0.508322 0.884997 0.591730 -0.258238
C21   C     C_2   0.501100 0.069526 0.516495 -0.133554
C22   C     C_2   0.498135 0.930457 0.483669 -0.144344
H7    H     H_    0.518941 0.950834 0.705209 0.166191
H8    H     H_    0.480577 0.049118 0.294902 0.169232
H9    H     H_    0.448425 0.417343 0.852617 0.159419
H10   H     H_    0.551095 0.583489 0.147633 0.162350
N1    N     N_2   0.465840 0.446060 0.141630 -0.280743
N2    N     N_2   0.534160 0.553940 0.858370 -0.271210
C23   C     C_2   0.506302 0.511026 0.080449 -0.041998
C24   C     C_2   0.493412 0.489464 0.919701 -0.027074
H11   H     H_    0.576119 0.622524 0.924769 0.224187
H12   H     H_    0.424084 0.377152 0.075091 0.205713
N3    N     N_R   0.740146 0.713583 0.700764 0.155938
O9    O     O_R   0.752600 0.714231 0.833268 -0.309484
O10   O     O_R   0.690764 0.790842 0.674541 -0.366525
N4    N     N_R   0.282159 0.662601 0.782657 0.158162
O11   O     O_R   0.287743 0.646046 0.907581 -0.323634
O12   O     O_R   0.323315 0.757251 0.767198 -0.336333
C25   C     C_2   0.016365 0.616258 0.386286 0.373163
H13   H     H_    0.979111 0.656394 0.321457 0.091275
O13   O     O_2   0.086802 0.640653 0.396274 -0.498787
C26   C     C_2   0.982341 0.391027 0.611919 0.364665
H14   H     H_    0.019533 0.343849 0.669030 0.083343
O14   O     O_2   0.911639 0.376108 0.612170 -0.506077
C27   C     C_2   0.112789 0.649399 0.795446 0.434899
H15   H     H_    0.055206 0.620965 0.816847 0.040485
O15   O     O_2   0.143456 0.754146 0.876817 -0.452338
C28   C     C_2   0.908756 0.745488 0.686928 0.427853
H16   H     H_    0.971815 0.742856 0.694932 0.066563
O16   O     O_2   0.880406 0.843073 0.766737 -0.455797

loop_
_geom_bond_atom_site_label_1
_geom_bond_atom_site_label_2
_geom_bond_distance
_ccdc_geom_bond_type
O7    Cu2   1.947245 S    
C21   C22   1.449192 S    
C8    H2    1.083538 S    
Cu1   Cu2   2.682209 S    
H6    C21   1.088155 S    
C7    H1    1.083696 S    
N1    H12   1.030685 S    
H5    C22   1.088156 S    
N2    H11   1.030714 S    
O6    C4    1.296650 A    
H9    C24   1.085077 S    
C17   C18   1.369043 D    
C28   H16   1.082916 S    
C25   H13   1.085771 S    
C13   C15   1.416001 A    
C19   H8    1.087604 S    
C11   C17   1.469352 S    
C15   N4    1.434861 S    
C14   C28   1.494189 S    
C6    C8    1.396896 A    
C12   C18   1.467754 S    
C23   C24   1.508032 S    
C16   N3    1.434194 S    
O5    C3    1.295865 A    
N1    C23   1.300021 D    
C14   C16   1.412866 A    
O7    C3    1.294991 A    
O2    C2    1.293810 A    
O3    Cu2   1.947648 S    
O8    C4    1.292407 A    
C27   O15   1.220642 D    
O1    C1    1.293868 A    
C9    H4    1.083840 S    
C1    C19   1.450928 S    
C20   C22   1.331214 D    
C19   C21   1.331310 D    
C18   C25   1.494083 S    
C2    C20   1.450740 S    
C10   C12   1.398644 A    
C8    C10   1.387572 A    
C25   O13   1.220268 D    
C11   C13   1.415993 A    
C6    C16   1.414546 A    
C27   H15   1.084002 S    
O2    Cu2   1.949389 S    
C12   C14   1.414156 A    
C5    C15   1.414350 A    
O1    Cu1   1.949389 S    
H10   C23   1.085081 S    
C26   O14   1.220294 D    
O3    C1    1.290823 A    
O5    Cu1   1.960354 S    
N4    O11   1.301112 A    
O4    C2    1.290812 A    
N3    O9    1.301246 A    
C13   C27   1.490540 S    
O4    Cu1   1.947646 S    
C5    C7    1.399218 A    
C20   H7    1.087577 S    
C17   C26   1.494729 S    
O6    Cu2   1.960350 S    
N2    C24   1.299967 D    
C7    C9    1.383133 A    
C26   H14   1.085788 S    
C9    C11   1.395873 A    
C3    C5    1.464251 S    
C10   H3    1.083602 S    
Cu1   N2    2.014903 S    
C4    C6    1.461788 S    
N4    O12   1.301190 A    
Cu2   N1    2.014904 S    
N3    O10   1.300646 A    
O8    Cu1   1.947245 S    
C28   O16   1.220697 D    
