data_mof_unit_51183.cif
_audit_creation_date              2012-12-11T15:25:44-0500
_audit_creation_method            fapswitch 2.2
_symmetry_space_group_name_H-M    P1
_symmetry_Int_Tables_number       1
_space_group_crystal_system       triclinic
_cell_length_a                    24.625051
_cell_length_b                    17.18403
_cell_length_c                    15.614184
_cell_angle_alpha                 89.953044
_cell_angle_beta                  50.726176
_cell_angle_gamma                 90.002422
_cell_volume                      5114.87244605

loop_
_atom_site_label
_atom_site_type_symbol
_atom_type_description
_atom_site_fract_x
_atom_site_fract_y
_atom_site_fract_z
_atom_type_partial_charge
C1    C     C_R   0.341708 0.128317 0.781113 0.007094
C2    C     C_2   0.330850 0.775704 0.910394 -0.227669
C3    C     C_2   0.341182 0.239271 0.986156 0.563107
C4    C     C_2   0.779298 0.429681 0.054313 0.453871
C5    C     C_2   0.162577 0.735416 0.008741 0.569530
C6    C     C_2   0.222553 0.429562 0.943576 0.518611
C7    C     C_2   0.837782 0.735889 0.990276 0.565275
C8    C     C_2   0.339863 0.234834 0.892458 -0.018088
C9    C     C_2   0.669204 0.775891 0.089644 -0.223212
C10   C     C_2   0.192797 0.673721 0.034435 -0.135274
C11   C     C_2   0.805902 0.360562 0.980759 -0.088947
C12   C     C_2   0.807417 0.674055 0.965075 -0.132826
C13   C     C_2   0.194655 0.361418 0.019186 -0.169077
C14   C     C_2   0.701774 0.280730 0.114362 -0.122656
C15   C     C_2   0.314300 0.711356 0.879984 -0.076851
C16   C     C_2   0.296275 0.278634 0.887255 -0.050786
C17   C     C_R   0.661217 0.876099 0.213148 -0.186356
C18   C     C_2   0.685962 0.711563 0.119858 -0.075220
C19   C     C_2   0.262579 0.655113 0.964842 -0.012845
C20   C     C_2   0.774748 0.290238 0.012406 -0.202058
C21   C     C_2   0.737614 0.655411 0.034929 -0.016449
C22   C     C_2   0.224057 0.290321 0.990185 -0.181382
C23   C     C_R   0.594761 0.139288 0.591546 -0.108387
C24   C     C_R   0.408751 0.857924 0.408011 -0.116749
C25   C     C_R   0.405038 0.139122 0.408385 -0.107857
C26   C     C_R   0.591222 0.857899 0.592097 -0.118603
C27   C     C_R   0.113841 0.604207 0.592367 -0.131023
C28   C     C_R   0.658084 0.128922 0.219056 -0.051781
C29   C     C_R   0.886108 0.397366 0.407409 -0.122915
C30   C     C_R   0.886132 0.604217 0.407643 -0.129572
C31   C     C_R   0.113925 0.397473 0.592594 -0.104669
C32   C     C_R   0.668789 0.138501 0.407235 -0.073971
C33   C     C_R   0.334316 0.858409 0.592227 -0.139362
C34   C     C_R   0.331091 0.138279 0.592701 -0.076937
C35   C     C_R   0.665656 0.858467 0.407880 -0.139160
C36   C     C_R   0.188194 0.603612 0.408310 -0.117547
C37   C     C_R   0.811558 0.397564 0.591526 -0.106135
C38   C     C_R   0.811825 0.603588 0.591701 -0.118076
C39   C     C_R   0.338757 0.876049 0.786946 -0.172141
C40   C     C_R   0.188445 0.397678 0.408480 -0.111507
C41   C     C_R   0.566895 0.130126 0.220935 -0.092132
C42   C     C_R   0.429074 0.874952 0.787122 -0.098494
C43   C     C_R   0.432864 0.129955 0.779339 -0.124154
C44   C     C_R   0.570914 0.874987 0.212944 -0.102403
C45   C     C_R   0.075827 0.614562 0.202185 -0.058063
C46   C     C_R   0.924426 0.394014 0.801477 -0.024071
C47   C     C_R   0.924255 0.614644 0.797633 -0.064100
C48   C     C_R   0.075879 0.395022 0.197943 -0.106791
C49   C     C_R   0.370928 0.166835 0.820817 0.067432
C50   C     C_R   0.836061 0.618102 0.791296 -0.138032
C51   C     C_R   0.635442 0.841610 0.166121 0.153181
C52   C     C_R   0.628655 0.167372 0.179513 0.031741
C53   C     C_R   0.364529 0.841564 0.834020 0.153173
C54   C     C_R   0.855280 0.639631 0.853875 0.003611
C55   C     C_R   0.145605 0.377140 0.136437 0.105043
C56   C     C_R   0.144843 0.639496 0.145843 0.000853
C57   C     C_R   0.854862 0.374978 0.862823 0.211428
C58   C     C_R   0.647363 0.181098 0.498844 0.056230
C59   C     C_R   0.357501 0.814670 0.500320 0.045103
C60   C     C_R   0.352382 0.180798 0.501040 0.061688
C61   C     C_R   0.166407 0.393372 0.198255 -0.117653
C62   C     C_R   0.642453 0.814695 0.499855 0.045257
C63   C     C_R   0.182494 0.619387 0.500534 0.051890
C64   C     C_R   0.817340 0.383253 0.499005 0.040047
C65   C     C_R   0.817496 0.619378 0.499493 0.051048
C66   C     C_R   0.182687 0.383452 0.501001 0.039572
C67   C     C_R   0.262017 0.282401 0.603118 -0.130409
C68   C     C_R   0.730898 0.710117 0.399169 -0.091160
C69   C     C_R   0.737624 0.283029 0.396790 -0.136246
C70   C     C_R   0.268974 0.710020 0.601052 -0.090380
C71   C     C_R   0.694559 0.660099 0.599451 -0.145708
C72   C     C_R   0.163996 0.618066 0.208564 -0.134457
C73   C     C_R   0.305274 0.343297 0.403119 -0.149673
C74   C     C_R   0.305438 0.660162 0.400723 -0.145251
C75   C     C_R   0.694728 0.343018 0.596884 -0.151468
C76   C     C_R   0.650116 0.709201 0.599508 -0.132597
C77   C     C_R   0.347362 0.290139 0.403188 -0.136675
C78   C     C_R   0.349883 0.709231 0.400717 -0.131928
C79   C     C_R   0.652493 0.290141 0.596763 -0.137518
C80   C     C_R   0.221075 0.336727 0.603234 -0.153254
C81   C     C_R   0.775361 0.661007 0.399028 -0.139715
C82   C     C_R   0.778788 0.337016 0.396743 -0.154430
C83   C     C_R   0.833838 0.392217 0.801364 -0.142738
C84   C     C_R   0.224526 0.660914 0.601144 -0.139713
C85   C     C_R   0.672365 0.741444 0.499482 0.107154
C86   C     C_R   0.321883 0.253464 0.502516 0.152058
C87   C     C_R   0.327574 0.741408 0.500743 0.107199
C88   C     C_R   0.677816 0.253830 0.497377 0.152169
C89   C     C_R   0.238482 0.359631 0.502593 0.125505
C90   C     C_R   0.760810 0.643014 0.499269 0.109775
C91   C     C_R   0.761519 0.359478 0.497410 0.127065
C92   C     C_R   0.239145 0.643011 0.500858 0.109414
C93   C     C_2   0.346088 0.695083 0.762820 0.689474
C94   C     C_2   0.658868 0.235997 0.108647 -0.058016
C95   C     C_2   0.685495 0.298434 0.221910 0.534486
C96   C     C_2   0.654367 0.695128 0.236941 0.689157
C97   C     C_2   0.311697 0.296239 0.780258 0.469799
C98   C     C_2   0.811542 0.218799 0.943088 0.592669
C99   C     C_2   0.291017 0.582468 0.975381 0.539424
C100  C     C_2   0.184392 0.221801 0.065412 0.565689
C101  C     C_2   0.709081 0.582657 0.024858 0.543219
C102  C     C_2   0.310072 0.784639 0.022448 0.597853
C103  C     C_2   0.657948 0.240165 0.014538 0.505329
C104  C     C_2   0.689807 0.784942 0.977698 0.588271
H1    H     H_    0.288916 0.134574 0.810137 0.093391
H2    H     H_    0.434189 0.844460 0.323165 0.091217
H3    H     H_    0.427986 0.151137 0.324114 0.087808
H4    H     H_    0.565782 0.844372 0.676964 0.091175
H5    H     H_    0.092420 0.600800 0.677685 0.092008
H6    H     H_    0.907829 0.401590 0.322021 0.089214
H7    H     H_    0.907504 0.600844 0.322354 0.092134
H8    H     H_    0.092237 0.401732 0.677953 0.088022
H9    H     H_    0.712817 0.149592 0.322355 0.073744
H10   H     H_    0.291186 0.845359 0.677011 0.114362
H11   H     H_    0.287107 0.149264 0.677589 0.072188
H12   H     H_    0.713964 0.871167 0.184683 0.152847
H13   H     H_    0.708787 0.845497 0.323120 0.113914
H14   H     H_    0.235588 0.599587 0.323385 0.089733
H15   H     H_    0.764166 0.401104 0.676575 0.105514
H16   H     H_    0.764456 0.599530 0.676658 0.089919
H17   H     H_    0.235820 0.401226 0.323401 0.105803
H18   H     H_    0.536371 0.138845 0.194223 0.077586
H19   H     H_    0.458825 0.867668 0.815602 0.114482
H20   H     H_    0.463264 0.138698 0.806273 0.080683
H21   H     H_    0.541178 0.867725 0.184440 0.115224
H22   H     H_    0.047169 0.614934 0.171010 0.098612
H23   H     H_    0.710893 0.135675 0.189836 0.056813
H24   H     H_    0.953541 0.399416 0.831577 0.100442
H25   H     H_    0.952943 0.615097 0.828755 0.100262
H26   H     H_    0.046691 0.400278 0.167951 0.114403
H27   H     H_    0.241975 0.257986 0.681770 0.096892
H28   H     H_    0.746676 0.729041 0.320295 0.161652
H29   H     H_    0.757408 0.259049 0.318082 0.096434
H30   H     H_    0.253147 0.728897 0.679931 0.162081
H31   H     H_    0.679448 0.642652 0.678412 0.117154
H32   H     H_    0.322237 0.364553 0.324389 0.124886
H33   H     H_    0.320587 0.642789 0.321751 0.117124
H34   H     H_    0.286010 0.871068 0.815415 0.153503
H35   H     H_    0.677854 0.363941 0.675648 0.124927
H36   H     H_    0.602230 0.727418 0.678413 0.117978
H37   H     H_    0.396169 0.273039 0.324686 0.119885
H38   H     H_    0.397826 0.727479 0.321824 0.117970
H39   H     H_    0.603705 0.272911 0.675282 0.118352
H40   H     H_    0.171879 0.352115 0.682133 0.113994
H41   H     H_    0.823941 0.644298 0.320047 0.124416
H42   H     H_    0.827965 0.352581 0.317850 0.113353
H43   H     H_    0.175910 0.644142 0.680112 0.124359
H44   H     H_    0.388440 0.730727 0.695677 -0.035358
H45   H     H_    0.784897 0.622690 0.813048 0.081886
H46   H     H_    0.727141 0.317111 0.222738 -0.024481
H47   H     H_    0.612026 0.730622 0.304177 -0.033516
H48   H     H_    0.269622 0.314910 0.780502 -0.008451
H49   H     H_    0.782283 0.165522 0.961560 -0.013895
H50   H     H_    0.256446 0.536640 0.031929 0.027217
H51   H     H_    0.132640 0.229043 0.144850 0.024556
H52   H     H_    0.743589 0.536832 0.968442 0.025259
H53   H     H_    0.287117 0.736565 0.080506 -0.018277
H54   H     H_    0.636771 0.192155 0.998679 0.002313
H55   H     H_    0.712865 0.736994 0.919566 -0.014591
H56   H     H_    0.219768 0.398079 0.167785 0.160004
H57   H     H_    0.362948 0.191616 0.001504 0.002024
H58   H     H_    0.725714 0.433114 0.130353 0.070246
H59   H     H_    0.112266 0.760975 0.075263 0.000440
H60   H     H_    0.276446 0.432033 0.868132 0.056400
H61   H     H_    0.888124 0.761377 0.923531 0.000079
H62   H     H_    0.215159 0.622623 0.186823 0.081184
H63   H     H_    0.780401 0.396980 0.832230 0.158814
H64   H     H_    0.571655 0.151339 0.675842 0.087934
N1    N     N_R   0.388930 0.078160 0.705470 -0.051554
N2    N     N_R   0.419500 0.922160 0.443350 -0.044626
N3    N     N_R   0.419500 0.077840 0.443350 -0.043047
N4    N     N_R   0.580500 0.922160 0.556650 -0.044511
N5    N     N_R   0.080500 0.577840 0.556650 -0.042797
N6    N     N_R   0.919500 0.422160 0.443350 -0.040674
N7    N     N_R   0.919500 0.577840 0.443350 -0.042290
N8    N     N_R   0.080500 0.422160 0.556650 -0.041387
N9    N     N_R   0.626210 0.077590 0.443410 -0.045483
N10   N     N_R   0.373790 0.922410 0.556590 -0.043367
N11   N     N_R   0.373790 0.077590 0.556590 -0.047316
N12   N     N_R   0.611070 0.921840 0.294530 -0.050134
N13   N     N_R   0.626210 0.922410 0.443410 -0.043170
N14   N     N_R   0.126210 0.577590 0.443410 -0.040784
N15   N     N_R   0.873790 0.422410 0.556590 -0.039206
N16   N     N_R   0.873790 0.577590 0.556590 -0.040481
N17   N     N_R   0.126210 0.422410 0.443410 -0.041259
N18   N     N_R   0.554800 0.077270 0.294580 -0.038026
N19   N     N_R   0.445200 0.922730 0.705420 -0.053470
N20   N     N_R   0.445200 0.077270 0.705420 -0.037501
N21   N     N_R   0.554800 0.922730 0.294580 -0.053722
N22   N     N_R   0.054800 0.577270 0.294580 -0.045177
N23   N     N_R   0.611070 0.078160 0.294530 -0.039151
N24   N     N_R   0.945200 0.422730 0.705420 -0.060475
N25   N     N_R   0.945200 0.577270 0.705420 -0.047843
N26   N     N_R   0.054800 0.422730 0.294580 -0.047844
N27   N     N_R   0.388930 0.921840 0.705470 -0.051298
N28   N     N_R   0.888930 0.578160 0.705470 -0.039363
N29   N     N_R   0.111070 0.421840 0.294530 -0.051648
N30   N     N_R   0.111070 0.578160 0.294530 -0.038572
N31   N     N_R   0.888930 0.421840 0.705470 -0.054993
N32   N     N_R   0.580500 0.077840 0.556650 -0.042337
Ni1   Ni    Ni4+2 0.382710 0.000000 0.629850 0.237051
Ni2   Ni    Ni4+2 0.617290 0.000000 0.370150 0.229790
Ni3   Ni    Ni4+2 0.882710 0.500000 0.629850 0.216111
Ni4   Ni    Ni4+2 0.117290 0.500000 0.370150 0.215973
Ni5   Ni    Ni4+2 0.513020 0.000000 0.629850 0.234450
Ni6   Ni    Ni4+2 0.486980 0.000000 0.370150 0.231378
Ni7   Ni    Ni4+2 0.013020 0.500000 0.629850 0.218039
Ni8   Ni    Ni4+2 0.986980 0.500000 0.370150 0.218244
O1    O     O_2   0.325594 0.640357 0.740132 -0.557382
O2    O     O_2   0.679101 0.297857 0.955799 -0.593328
O3    O     O_2   0.680616 0.846552 0.949511 -0.583532
O4    O     O_2   0.319759 0.296812 0.045054 -0.608691
O5    O     O_2   0.818107 0.484850 0.029266 -0.589176
O6    O     O_2   0.191531 0.756017 0.913882 -0.617288
O7    O     O_2   0.184514 0.485006 0.966271 -0.586269
O8    O     O_2   0.808914 0.756695 0.084972 -0.617630
O9    O     O_2   0.625505 0.295216 0.309095 -0.531376
O10   O     O_2   0.675005 0.640422 0.259462 -0.557984
O11   O     O_2   0.371424 0.293228 0.692477 -0.536555
O12   O     O_2   0.874929 0.217409 0.868517 -0.582881
O13   O     O_2   0.354215 0.572727 0.919245 -0.578782
O14   O     O_2   0.208130 0.155936 0.037882 -0.606792
O15   O     O_2   0.645866 0.572822 0.081243 -0.577344
O16   O     O_2   0.319016 0.846295 0.050797 -0.575943

loop_
_geom_bond_atom_site_label_1
_geom_bond_atom_site_label_2
_ccdc_geom_bond_type
C78   C87   A    
C42   N19   A    
C23   C58   A    
C34   C60   A    
C99   O13   D    
N32   Ni5   S    
N25   Ni7   S    
C98   O12   D    
C48   C55   A    
C18   C21   S    
C18   C96   S    
C14   C95   S    
N13   Ni2   S    
C9    C51   S    
C32   C58   A    
C29   N6    A    
C48   H26   S    
C27   N5    A    
C102  O16   D    
N8    N17   A    
C15   C19   S    
C40   H17   S    
C25   H3    S    
C33   H10   S    
C50   C54   A    
C75   C79   A    
C47   H25   S    
N14   Ni4   S    
C68   C81   A    
C5    H59   S    
N8    Ni7   S    
C46   H24   S    
N4    Ni5   S    
N2    Ni6   S    
N12   Ni2   S    
N12   N21   A    
C78   H38   S    
C42   C53   A    
C71   H31   S    
C71   C76   A    
C16   C97   S    
C8    C49   S    
N26   N29   A    
N5    N14   A    
C2    C102  S    
C37   N15   A    
C99   H50   S    
C80   C89   A    
C38   N16   A    
C102  H53   S    
N29   Ni4   S    
N24   N31   A    
C74   C92   A    
N18   N23   A    
C68   H28   S    
C69   C82   A    
C45   H22   S    
C50   N28   A    
N4    N13   A    
C79   H39   S    
C6    O7    D    
N11   Ni1   S    
C45   C56   A    
C80   H40   S    
N9    N32   A    
C63   C92   S    
C13   C22   D    
C16   C22   S    
C31   H8    S    
C73   H32   S    
C52   C94   S    
N23   Ni2   S    
C32   H9    S    
C36   C63   A    
C70   C84   A    
N21   Ni6   S    
C41   C52   A    
C74   C78   A    
C7    O8    D    
C28   H23   S    
C75   C91   A    
C21   C101  S    
C25   N3    A    
C100  H51   S    
C7    H61   S    
C29   C64   A    
C26   N4    A    
C8    C16   D    
N16   Ni3   S    
C40   C66   A    
N31   Ni3   S    
C68   C85   A    
N3    N11   A    
C34   N11   A    
C65   C90   S    
N7    Ni8   S    
C70   C87   A    
C103  O2    D    
C79   C88   A    
C82   H42   S    
C42   H19   S    
C66   C89   S    
C59   C87   S    
C31   N8    A    
C76   H36   S    
C7    C12   S    
C11   C20   D    
C62   C85   S    
N20   Ni5   S    
C22   C100  S    
N18   Ni6   S    
C14   C20   S    
C29   H6    S    
C3    C8    S    
C61   H56   S    
C61   N29   A    
C19   C99   S    
C43   C49   A    
C40   N17   A    
C101  H52   S    
C56   C72   A    
C34   H11   S    
C96   H47   S    
C39   N27   A    
C12   C21   D    
C23   N32   A    
C82   C91   A    
C4    C11   S    
C41   H18   S    
C24   C59   A    
C73   C89   A    
C44   N21   A    
C9    C18   D    
C37   H15   S    
C38   C65   A    
C100  O14   D    
C10   C19   D    
N25   N28   A    
C93   H44   S    
C74   H33   S    
C97   O11   D    
C20   C98   S    
N5    Ni7   S    
C95   H46   S    
N3    Ni6   S    
C57   C83   A    
C2    C15   D    
C27   H5    S    
C69   C88   A    
C27   C63   A    
C47   C54   A    
C81   C90   A    
C44   C51   A    
N22   Ni8   S    
C25   C60   A    
C72   N30   A    
C6    H60   S    
C77   C86   A    
C44   H21   S    
C81   H41   S    
C46   C57   A    
C93   O1    D    
N24   Ni7   S    
C4    H58   S    
C32   N9    A    
C35   H13   S    
C36   N14   A    
C12   C54   S    
C104  H55   S    
C83   N31   A    
C28   N23   A    
C30   N7    A    
C37   C64   A    
C10   C56   S    
N22   N30   A    
C60   C86   S    
C84   H43   S    
C3    O4    D    
C67   C86   A    
C69   H29   S    
C4    O5    D    
C48   N26   A    
C94   C103  S    
C31   C66   A    
C72   H62   S    
C47   N25   A    
C67   H27   S    
C67   C80   A    
N1    N20   A    
C46   N24   A    
C2    C53   S    
C58   C88   S    
N6    N15   A    
C15   C93   S    
N19   Ni5   S    
C103  H54   S    
N27   Ni1   S    
C17   N12   A    
C17   C51   A    
C35   N13   A    
N26   Ni8   S    
C104  O3    D    
C30   H7    S    
N28   Ni3   S    
C24   N2    A    
C26   C62   A    
C38   H16   S    
C5    C10   S    
C75   H35   S    
C6    C13   S    
N30   Ni4   S    
C28   C52   A    
C50   H45   S    
C101  O15   D    
C39   C53   A    
C71   C90   A    
C83   H63   S    
C43   N20   A    
C9    C104  S    
C96   O10   D    
C5    O6    D    
C55   C61   A    
C1    N1    A    
C95   O9    D    
C97   H48   S    
C41   N18   A    
C35   C62   A    
C77   H37   S    
C39   H34   S    
C30   C65   A    
C3    H57   S    
N1    Ni1   S    
C23   H64   S    
N6    Ni8   S    
C45   N22   A    
C24   H2    S    
C43   H20   S    
C33   C59   A    
C33   N10   A    
N10   Ni1   S    
N17   Ni4   S    
C70   H30   S    
C73   C77   A    
N9    Ni2   S    
N19   N27   A    
N15   Ni3   S    
C84   C92   A    
C64   C91   S    
C13   C55   S    
N2    N10   A    
C11   C57   S    
C1    C49   A    
C76   C85   A    
C14   C94   D    
C26   H4    S    
C36   H14   S    
C17   H12   S    
C1    H1    S    
N7    N16   A    
C98   H49   S    
