data_mof_unit_57225.cif
_audit_creation_date              2013-03-05T16:54:30-0500
_audit_creation_method            fapswitch 2.2
_symmetry_space_group_name_H-M    P1
_symmetry_Int_Tables_number       1
_space_group_crystal_system       triclinic
_cell_length_a                    17.536416
_cell_length_b                    16.710831
_cell_length_c                    10.874916
_cell_angle_alpha                 88.480027
_cell_angle_beta                  91.526811
_cell_angle_gamma                 89.79027
_cell_volume                      3184.59050047

loop_
_atom_site_label
_atom_site_type_symbol
_atom_site_description
_atom_site_fract_x
_atom_site_fract_y
_atom_site_fract_z
_atom_type_partial_charge
O1    O     O_R   0.389110 0.566570 0.499990 -0.572104
O2    O     O_R   0.610890 0.566570 0.500010 -0.572796
O3    O     O_R   0.389090 0.433480 0.499980 -0.586754
O4    O     O_R   0.610910 0.433480 0.500020 -0.585129
C1    C     C_R   0.353209 0.499578 0.511711 0.946940
C2    C     C_R   0.647262 0.499869 0.497615 0.969005
O5    O     O_R   0.500000 0.566560 0.316760 -0.601165
O6    O     O_R   0.500000 0.566560 0.683240 -0.594095
O7    O     O_R   0.499970 0.433470 0.316760 -0.585681
O8    O     O_R   0.500030 0.433470 0.683240 -0.591391
C3    C     C_R   0.503761 0.500783 0.259207 0.933472
C4    C     C_R   0.496946 0.498886 0.740126 0.918161
Zn1   Zn    Zn3+2 0.500000 0.588860 0.500000 1.059862
Zn2   Zn    Zn3+2 0.500000 0.411140 0.500000 1.078823
C5    C     C_R   0.502246 0.651438 0.099880 -0.285330
C6    C     C_R   0.425317 0.627080 0.877927 -0.290719
H1    H     H_    0.535737 0.662944 0.181812 0.208883
H2    H     H_    0.392321 0.617165 0.794184 0.220690
C7    C     C_R   0.467008 0.716996 0.036005 0.467725
C8    C     C_R   0.420521 0.701768 0.932723 0.473699
C9    C     C_R   0.470512 0.565170 0.933543 0.014627
C10   C     C_R   0.495198 0.572829 0.055270 0.022580
C11   C     C_R   0.508646 0.501045 0.126045 -0.139171
C12   C     C_R   0.492909 0.496119 0.872128 -0.112184
C13   C     C_R   0.516142 0.426684 0.065939 -0.146812
C14   C     C_R   0.519183 0.427595 0.939068 -0.133333
C15   C     C_R   0.852534 0.524291 0.600174 0.435534
C16   C     C_R   0.141018 0.541393 0.495938 0.426964
C17   C     C_R   0.774924 0.541842 0.581127 -0.156962
C18   C     C_R   0.219317 0.558133 0.507037 -0.157633
C19   C     C_R   0.731114 0.497132 0.496864 -0.300117
C20   C     C_R   0.270729 0.494768 0.538344 -0.321945
C21   C     C_R   0.767253 0.440287 0.423463 -0.194773
C22   C     C_R   0.241563 0.420945 0.586011 -0.155889
C23   C     C_R   0.843693 0.419134 0.448893 0.405486
C24   C     C_R   0.163153 0.405464 0.576894 0.421990
C25   C     C_R   0.885514 0.461665 0.536812 -0.132120
C26   C     C_R   0.113882 0.466103 0.533297 -0.142331
C27   C     C_1   0.966101 0.454017 0.541825 0.101712
C28   C     C_1   0.033847 0.455593 0.539983 0.105758
C29   C     C_R   0.457748 0.834809 0.413090 -0.396265
C30   C     C_R   0.546003 0.830615 0.585599 -0.420169
H3    H     H_    0.425698 0.870019 0.344537 0.182368
H4    H     H_    0.581617 0.862360 0.650615 0.166145
C31   C     C_R   0.455516 0.749501 0.415353 0.568487
C32   C     C_R   0.543195 0.745313 0.587425 0.598114
N1    N     N_R   0.500000 0.707230 0.500000 -0.163366
C33   C     C_R   0.502485 0.875548 0.498944 0.038250
C34   C     C_1   0.502845 0.963400 0.498513 0.014532
C35   C     C_1   0.502356 0.036570 0.498038 0.021860
C36   C     C_R   0.446302 0.168534 0.429752 -0.363607
C37   C     C_R   0.556771 0.166211 0.564956 -0.385413
H5    H     H_    0.405337 0.136060 0.374401 0.164797
H6    H     H_    0.599401 0.132967 0.619200 0.166976
C38   C     C_R   0.444918 0.253920 0.433013 0.620342
C39   C     C_R   0.557039 0.251081 0.561804 0.577366
N2    N     N_R   0.500000 0.292770 0.500000 -0.165624
C40   C     C_R   0.501618 0.124418 0.497839 0.045731
C41   C     C_2   0.519703 0.346551 0.129997 0.994507
O9    O     O_2   0.466688 0.299989 0.116581 -0.575300
O10   O     O_R   0.583550 0.323855 0.202205 -0.779383
H7    H     H_    0.578607 0.268162 0.240374 0.336875
C42   C     C_2   0.554907 0.357929 0.881093 0.995317
O11   O     O_2   0.622550 0.360257 0.857016 -0.578085
O12   O     O_R   0.512160 0.288922 0.860411 -0.776435
H8    H     H_    0.544042 0.243402 0.829304 0.353906
O13   O     O_3   0.393369 0.301257 0.363550 -0.556049
C43   C     C_3   0.323100 0.263159 0.339546 -0.271001
H9    H     H_    0.301933 0.230040 0.421843 0.167608
H10   H     H_    0.327807 0.223055 0.260239 0.188490
H11   H     H_    0.279994 0.309775 0.313549 0.183362
O14   O     O_3   0.611683 0.293602 0.626526 -0.555262
C44   C     C_3   0.685791 0.269612 0.595263 -0.248842
H12   H     H_    0.690977 0.261641 0.494419 0.155848
H13   H     H_    0.703211 0.214219 0.647386 0.151188
H14   H     H_    0.726331 0.317232 0.622312 0.201759
O15   O     O_3   0.470620 0.794895 0.077284 -0.597264
C45   C     C_3   0.545973 0.816116 0.111345 -0.329707
H15   H     H_    0.560215 0.794765 0.206753 0.185182
H16   H     H_    0.549827 0.882364 0.110146 0.204608
H17   H     H_    0.588699 0.793958 0.046179 0.144213
O16   O     O_3   0.366151 0.757266 0.892123 -0.570768
C46   C     C_3   0.393746 0.801389 0.790861 -0.233965
H18   H     H_    0.412884 0.761821 0.717137 0.144166
H19   H     H_    0.440035 0.842395 0.820559 0.172712
H20   H     H_    0.346625 0.839094 0.751035 0.192546
O17   O     O_3   0.896701 0.567714 0.682262 -0.582720
C47   C     C_3   0.926008 0.635988 0.620622 -0.207634
H21   H     H_    0.945094 0.623672 0.526074 0.176021
H22   H     H_    0.976400 0.657376 0.673898 0.212207
H23   H     H_    0.883185 0.685080 0.616386 0.163705
O18   O     O_3   0.089702 0.601771 0.462118 -0.595355
C48   C     C_3   0.071223 0.595495 0.335626 -0.241365
H24   H     H_    0.039877 0.539227 0.316678 0.153036
H25   H     H_    0.122961 0.599346 0.278601 0.182294
H26   H     H_    0.033192 0.646201 0.307045 0.196933
C49   C     C_2   0.744101 0.613392 0.638121 1.036471
O19   O     O_2   0.738092 0.615263 0.749699 -0.593632
O20   O     O_R   0.729445 0.681480 0.563709 -0.792980
H27   H     H_    0.721524 0.731320 0.612722 0.339663
C50   C     C_2   0.243570 0.643103 0.500746 1.020405
O21   O     O_2   0.212374 0.689956 0.427158 -0.639592
O22   O     O_R   0.296738 0.671443 0.586983 -0.791362
H28   H     H_    0.306132 0.730976 0.576194 0.319463
C51   C     C_2   0.729133 0.412039 0.309426 1.053262
O23   O     O_2   0.739121 0.343706 0.275513 -0.570629
O24   O     O_R   0.685515 0.466072 0.236533 -0.818613
H29   H     H_    0.670362 0.443807 0.153735 0.365096
C52   C     C_2   0.290987 0.363646 0.658950 1.041625
O25   O     O_2   0.284215 0.291474 0.646833 -0.615292
O26   O     O_R   0.343994 0.392846 0.744616 -0.812733
H30   H     H_    0.373043 0.348433 0.790831 0.373918
O27   O     O_3   0.880598 0.366141 0.374475 -0.574034
C53   C     C_3   0.887196 0.291465 0.437500 -0.251186
H31   H     H_    0.830171 0.265919 0.456682 0.161900
H32   H     H_    0.921573 0.295659 0.524537 0.146471
H33   H     H_    0.917028 0.249207 0.378029 0.193603
O28   O     O_3   0.134003 0.334617 0.624792 -0.568457
C54   C     C_3   0.118454 0.282785 0.526938 -0.241850
H34   H     H_    0.170272 0.271294 0.473227 0.156658
H35   H     H_    0.071879 0.306508 0.464743 0.145572
H36   H     H_    0.099249 0.224492 0.565917 0.195488
O29   O     O_3   0.412720 0.705859 0.330959 -0.583133
C55   C     C_3   0.347084 0.747041 0.284813 -0.225139
H37   H     H_    0.361388 0.790527 0.210636 0.215621
H38   H     H_    0.316802 0.778532 0.358002 0.165174
H39   H     H_    0.307552 0.702899 0.243654 0.209742
O30   O     O_3   0.584817 0.697330 0.671786 -0.555265
C56   C     C_3   0.599698 0.733947 0.785442 -0.296064
H40   H     H_    0.549684 0.766832 0.818318 0.123931
H41   H     H_    0.649700 0.774248 0.779507 0.159467
H42   H     H_    0.613722 0.686471 0.855717 0.225079

loop_
_geom_bond_atom_site_label_1
_geom_bond_atom_site_label_2
_geom_bond_distance
_ccdc_geom_bond_type
C26   C28   1.418660 S    
O17   C47   1.413249 S    
C42   O12   1.397649 S    
C6    C9    1.414052 A    
C8    O16   1.383293 S    
C15   C17   1.400031 A    
C44   H13   1.110114 S    
C44   H12   1.114305 S    
O26   H30   1.013282 S    
O7    Zn2   2.017590 S    
O30   C56   1.412199 S    
C53   H31   1.111451 S    
O29   C55   1.412580 S    
O15   C45   1.411895 S    
C31   O29   1.392927 S    
C5    C7    1.412919 A    
C51   O24   1.397650 S    
C48   H24   1.112117 S    
O1    C1    1.291409 A    
C32   O30   1.392245 S    
C23   C25   1.399874 A    
C12   C14   1.409790 A    
O27   C53   1.410584 S    
C52   O26   1.396910 S    
C45   H16   1.109115 S    
C39   N2    1.368143 A    
C30   C32   1.426129 A    
C7    O15   1.389313 S    
O2    Zn1   1.978621 S    
O28   C54   1.411431 S    
C5    C10   1.417040 A    
O20   H27   1.011789 S    
C43   H9    1.112654 S    
C39   O14   1.383524 S    
O24   H29   1.012699 S    
C19   C21   1.415595 A    
C24   O28   1.385724 S    
C22   C24   1.401476 A    
C6    C8    1.400450 A    
C56   H42   1.109205 S    
C31   N1    1.370434 A    
C2    C19   1.471265 S    
C41   O9    1.222758 D    
C48   H25   1.113656 S    
C9    C10   1.391055 A    
C17   C19   1.411086 A    
C29   H3    1.081596 S    
O2    C2    1.283401 A    
C30   H4    1.081761 S    
C49   O20   1.397649 S    
C37   H6    1.082379 S    
C49   O19   1.221983 D    
C54   H35   1.111628 S    
C37   C40   1.396542 A    
C41   O10   1.395822 S    
O13   C43   1.410455 S    
C35   C40   1.467963 S    
C50   O21   1.221894 D    
C21   C51   1.482183 S    
O4    C2    1.281561 A    
O8    Zn2   2.037048 S    
C27   C28   1.189104 T    
Zn1   N1    1.978061 S    
C45   H15   1.109998 S    
C13   C14   1.381845 A    
C36   H5    1.081679 S    
C20   C22   1.427237 A    
O5    C3    1.281587 A    
C14   C42   1.483224 S    
C53   H32   1.112497 S    
C46   H18   1.110605 S    
C47   H23   1.109375 S    
C16   C26   1.400731 A    
O6    C4    1.276543 A    
C16   O18   1.385328 S    
C36   C40   1.400089 A    
C30   C33   1.397923 A    
C15   O17   1.387438 S    
O7    C3    1.275480 A    
O3    Zn2   1.979120 S    
O8    C4    1.271955 A    
C55   H39   1.108955 S    
C43   H10   1.110774 S    
C33   C34   1.468005 S    
C46   H19   1.111139 S    
C47   H22   1.109205 S    
O16   C46   1.406573 S    
C48   H26   1.109156 S    
C38   N2    1.370181 A    
C44   H14   1.109331 S    
O1    Zn1   1.981302 S    
O12   H8    1.013052 S    
C55   H38   1.111362 S    
C56   H40   1.105742 S    
C50   O22   1.397607 S    
C54   H36   1.109111 S    
C5    H1    1.076029 S    
Zn2   N2    1.978061 S    
C32   N1    1.371114 A    
O14   C44   1.411450 S    
O3    C1    1.280198 A    
C38   O13   1.392917 S    
C54   H34   1.112084 S    
C51   O23   1.222680 D    
C4    C12   1.438659 S    
C17   C49   1.469134 S    
C1    C20   1.484712 S    
C7    C8    1.399560 A    
C24   C26   1.394431 A    
C16   C18   1.404977 A    
C25   C27   1.417973 S    
C52   O25   1.222572 D    
C18   C20   1.416869 A    
C45   H17   1.113957 S    
C15   C25   1.399853 A    
C43   H11   1.109396 S    
C18   C50   1.484092 S    
C3    C11   1.452827 S    
O18   C48   1.411527 S    
C21   C23   1.403534 A    
C29   C33   1.396158 A    
C23   O27   1.385553 S    
C36   C38   1.428395 A    
C11   C13   1.426586 A    
O4    Zn2   1.981805 S    
O10   H7    1.013909 S    
C53   H33   1.109135 S    
C42   O11   1.222086 D    
O6    Zn1   2.017523 S    
O5    Zn1   2.036957 S    
C46   H20   1.109086 S    
C47   H21   1.113836 S    
C6    H2    1.082714 S    
C34   C35   1.222605 T    
C9    C12   1.408315 A    
O22   H28   1.013242 S    
C22   C52   1.488018 S    
C29   C31   1.425824 A    
C10   C11   1.423469 A    
C13   C41   1.493298 S    
C37   C39   1.417783 A    
C55   H37   1.105767 S    
C56   H41   1.109787 S    
