data_mof_unit_55839.cif
_audit_creation_date              2012-12-10T16:52:41-0500
_audit_creation_method            fapswitch 2.2
_symmetry_space_group_name_H-M    P1
_symmetry_Int_Tables_number       1
_space_group_crystal_system       triclinic
_cell_length_a                    13.061231
_cell_length_b                    10.969214
_cell_length_c                    9.677025
_cell_angle_alpha                 90.101206
_cell_angle_beta                  96.192459
_cell_angle_gamma                 89.809902
_cell_volume                      1378.34266738

loop_
_atom_site_label
_atom_site_type_symbol
_atom_type_description
_atom_site_fract_x
_atom_site_fract_y
_atom_site_fract_z
_atom_type_partial_charge
C1    C     C_R   0.501246 0.265440 0.499892 0.838988
C2    C     C_R   0.027847 0.523758 0.570652 -0.044910
C3    C     C_R   0.972643 0.490686 0.441502 0.008922
C4    C     C_R   0.865654 0.481803 0.431036 -0.278797
C5    C     C_R   0.865337 0.542062 0.672783 0.309444
C6    C     C_R   0.973860 0.540312 0.688914 0.325840
C7    C     C_2   0.533713 0.934413 0.405239 0.229177
C8    C     C_2   0.485585 0.865680 0.495248 -0.021324
C9    C     C_2   0.504214 0.063158 0.389048 0.434627
C10   C     C_2   0.515984 0.134709 0.502855 -0.418445
C11   C     C_2   0.437514 0.433758 0.912871 -0.058821
C12   C     C_R   0.300558 0.503172 0.474565 0.842734
C13   C     C_2   0.439239 0.431506 0.068959 -0.035744
C14   C     C_R   0.499640 0.734461 0.499821 0.795547
C15   C     C_R   0.699342 0.502583 0.526408 0.856858
C16   C     C_R   0.811912 0.508439 0.544372 -0.173142
C17   C     C_R   0.187659 0.505685 0.462285 -0.166134
C18   C     C_R   0.024681 0.465528 0.324441 0.449781
C19   C     C_R   0.132147 0.471535 0.336822 -0.353766
C20   C     C_R   0.135692 0.537587 0.577918 0.229983
Cu1   Cu    Cu3+1 0.500020 0.500020 0.638640 0.983611
Cu2   Cu    Cu3+1 0.499980 0.499980 0.361360 0.965216
H1    H     H_    0.823225 0.455121 0.333303 0.236477
H2    H     H_    0.544978 0.095524 0.602743 0.148467
H3    H     H_    0.381482 0.376416 0.853077 0.151902
H4    H     H_    0.553873 0.551112 0.901898 0.212751
H5    H     H_    0.386463 0.370013 0.112719 0.148806
H6    H     H_    0.547269 0.559502 0.113056 0.205139
H7    H     H_    0.172610 0.448173 0.248325 0.166865
N1    N     N_2   0.498860 0.498660 0.846770 -0.274833
N2    N     N_2   0.498840 0.498630 0.152900 -0.276392
O1    O     O_R   0.500020 0.321960 0.617050 -0.573698
O2    O     O_R   0.499980 0.321920 0.382890 -0.559735
O3    O     O_R   0.349010 0.500000 0.598060 -0.566958
O4    O     O_R   0.348980 0.499950 0.363910 -0.589810
O5    O     O_R   0.500020 0.678080 0.617110 -0.579350
O6    O     O_R   0.499980 0.678040 0.382950 -0.567133
O7    O     O_R   0.651020 0.500050 0.636090 -0.511894
O8    O     O_R   0.650990 0.500000 0.401940 -0.598240
O9    O     O_3   0.810450 0.578712 0.780158 -0.715460
H8    H     H_    0.852969 0.636150 0.840971 0.332116
O10   O     O_3   0.969340 0.432876 0.199980 -0.739764
H9    H     H_    0.017637 0.417217 0.129563 0.322961
O11   O     O_3   0.027346 0.548344 0.819739 -0.763899
H10   H     H_    0.984093 0.516000 0.889247 0.340099
N3    N     N_2   0.192623 0.589615 0.697565 -0.374211
H11   H     H_    0.207521 0.535691 0.784620 0.289846
C21   C     C_3   0.184007 0.719833 0.718046 -0.595861
H12   H     H_    0.142027 0.738885 0.809520 0.251487
H13   H     H_    0.142817 0.765127 0.625368 0.205458
H14   H     H_    0.262331 0.758991 0.738106 0.219685
N4    N     N_2   0.611748 0.883600 0.327736 -0.423406
H15   H     H_    0.654348 0.813610 0.376580 0.238136
C22   C     C_3   0.674244 0.966264 0.256090 -0.607869
H16   H     H_    0.732135 0.913401 0.204587 0.213506
H17   H     H_    0.715409 0.030861 0.331135 0.211350
H18   H     H_    0.625899 0.017079 0.174073 0.277418
N5    N     N_2   0.409436 0.916971 0.573865 -0.451917
H19   H     H_    0.409805 0.879759 0.671685 0.269448
C23   C     C_3   0.306966 0.920770 0.500195 -0.689064
H20   H     H_    0.253182 0.964223 0.566961 0.225047
H21   H     H_    0.279773 0.826927 0.473138 0.226167
H22   H     H_    0.306173 0.975238 0.403517 0.247089
O12   O     O_3   0.462068 0.102202 0.259444 -0.721285
H23   H     H_    0.404872 0.159212 0.272436 0.320919

loop_
_geom_bond_atom_site_label_1
_geom_bond_atom_site_label_2
_ccdc_geom_bond_type
C12   C17   S    
C4    C16   A    
H6    N2    S    
C15   O7    A    
C2    C20   A    
C9    O12   S    
Cu1   N1    S    
C10   H2    S    
O12   H23   S    
C21   H13   S    
C2    C3    A    
N5    H19   S    
C1    O2    A    
C7    C8    D    
Cu1   O5    S    
C6    O11   S    
Cu1   Cu2   S    
O11   H10   S    
C12   O4    A    
Cu2   O4    S    
C11   C13   S    
C15   O8    A    
C2    C6    A    
C23   H22   S    
Cu2   O8    S    
C9    C10   D    
O9    H8    S    
C17   C19   A    
N4    C22   S    
C7    N4    S    
H4    N1    S    
C22   H17   S    
C18   O10   S    
C14   O5    A    
C5    C6    A    
Cu1   O1    S    
N3    C21   S    
Cu2   N2    S    
C1    O1    A    
N5    C23   S    
C3    C4    A    
C19   H7    S    
C20   N3    S    
C17   C20   A    
N4    H15   S    
C3    C18   A    
C23   H21   S    
C18   C19   A    
O10   H9    S    
C5    O9    S    
C7    C9    S    
Cu2   O2    S    
C11   H3    S    
C22   H16   S    
C21   H12   S    
C5    C16   A    
C8    C14   S    
Cu1   O3    S    
C8    N5    S    
C4    H1    S    
N3    H11   S    
Cu2   O6    S    
C12   O3    A    
C1    C10   S    
C13   N2    D    
C21   H14   S    
C13   H5    S    
Cu1   O7    S    
C15   C16   S    
C11   N1    D    
C23   H20   S    
C14   O6    A    
C22   H18   S    
