data_mof_unit_35498.cif
_audit_creation_date              2012-12-11T17:07:34-0500
_audit_creation_method            fapswitch 2.2
_symmetry_space_group_name_H-M    P1
_symmetry_Int_Tables_number       1
_space_group_crystal_system       triclinic
_cell_length_a                    7.001699
_cell_length_b                    14.693206
_cell_length_c                    15.941877
_cell_angle_alpha                 89.982163
_cell_angle_beta                  89.466123
_cell_angle_gamma                 90.31751
_cell_volume                      1639.96246198

loop_
_atom_site_label
_atom_site_type_symbol
_atom_type_description
_atom_site_fract_x
_atom_site_fract_y
_atom_site_fract_z
_atom_type_partial_charge
O1    O     O_R   0.505720 0.583900 0.413310 -0.524689
O2    O     O_R   0.175940 0.594920 0.586080 -0.543152
O3    O     O_R   0.005640 0.416100 0.586690 -0.534327
C1    C     C_R   0.345406 0.620312 0.611779 0.747684
O4    O     O_R   0.176000 0.594930 0.413930 -0.547296
O5    O     O_R   0.005700 0.416110 0.413310 -0.545240
C2    C     C_R   0.345678 0.617000 0.385620 0.750893
O6    O     O_R   0.505660 0.583890 0.586690 -0.532762
O7    O     O_3   0.339200 0.441330 0.500000 -0.367731
V1    V     V_3+5 0.064350 0.510880 0.500000 1.483622
O8    O     O_R   0.675980 0.405080 0.413920 -0.521346
C3    C     C_R   0.845278 0.384340 0.384394 0.705153
O9    O     O_R   0.675920 0.405070 0.586070 -0.538195
C4    C     C_R   0.843177 0.385141 0.616658 0.654527
V2    V     V_3+5 0.564340 0.489120 0.500000 1.528350
O10   O     O_3   0.839360 0.558670 0.500000 -0.359706
H1    H     H_    0.960793 0.084912 0.496449 0.113740
C5    C     C_R   0.764496 0.429804 0.800242 -0.011566
C6    C     C_R   0.766488 0.453618 0.885321 -0.091576
C7    C     C_R   0.818007 0.390988 0.945596 -0.149174
C8    C     C_R   0.858481 0.302377 0.922277 -0.128619
C9    C     C_R   0.857868 0.275533 0.836948 0.076777
C10   C     C_R   0.825012 0.341777 0.773062 0.014308
C11   C     C_R   0.885707 0.183306 0.815778 -0.162406
C12   C     C_R   0.901995 0.157451 0.730576 0.064866
C13   C     C_R   0.887737 0.224090 0.665991 0.080604
C14   C     C_R   0.848904 0.316489 0.686343 -0.170073
C15   C     C_R   0.934805 0.065639 0.708232 -0.148369
C16   C     C_R   0.955395 0.040051 0.624518 -0.126161
C17   C     C_R   0.943766 0.105008 0.561404 -0.125812
C18   C     C_R   0.909585 0.195854 0.581461 -0.125334
H2    H     H_    0.721828 0.520800 0.905385 0.131359
H3    H     H_    0.818299 0.410083 0.011203 0.120030
H4    H     H_    0.890151 0.255118 0.972240 0.089152
H5    H     H_    0.946270 0.012891 0.755240 0.081521
H6    H     H_    0.981116 0.969500 0.608603 0.121565
H7    H     H_    0.899598 0.243338 0.529834 0.090861
C19   C     C_R   0.721997 0.186593 0.240488 0.022696
C20   C     C_R   0.880691 0.182066 0.186005 -0.097681
C21   C     C_R   0.032937 0.242852 0.201074 -0.161726
H8    H     H_    0.156288 0.243548 0.159871 0.136656
C22   C     C_R   0.022751 0.307254 0.266390 -0.213615
H9    H     H_    0.137720 0.354922 0.274487 0.178136
C23   C     C_R   0.858647 0.315251 0.316900 -0.088978
C24   C     C_R   0.708311 0.255578 0.300668 0.022555
C25   C     C_3   0.508466 0.278159 0.277031 -0.234301
C26   C     C_3   0.516355 0.196027 0.218418 -0.230814
H10   H     H_    0.407594 0.272565 0.331156 0.139833
H11   H     H_    0.493685 0.210518 0.150680 0.137632
C27   C     C_R   0.523256 0.702345 0.725576 0.119268
C28   C     C_R   0.356989 0.690874 0.678647 -0.095297
C29   C     C_R   0.204120 0.748819 0.697593 -0.216454
H12   H     H_    0.082639 0.749442 0.657224 0.175348
C30   C     C_R   0.213908 0.811288 0.764546 -0.183618
H13   H     H_    0.096718 0.857566 0.774754 0.132027
C31   C     C_R   0.378377 0.818047 0.814503 -0.088137
C32   C     C_R   0.532331 0.762083 0.793765 0.112286
C33   C     C_3   0.729321 0.792289 0.771157 -0.505657
C34   C     C_3   0.716329 0.731164 0.694741 -0.184441
H14   H     H_    0.832860 0.767686 0.818323 0.195862
H15   H     H_    0.738797 0.866424 0.757224 0.157781
H16   H     H_    0.819946 0.674580 0.695397 0.142393
C35   C     C_R   0.514897 0.687791 0.262162 0.066973
C36   C     C_R   0.355686 0.682836 0.315456 -0.072082
C37   C     C_R   0.204121 0.742267 0.299438 -0.238632
H17   H     H_    0.080702 0.741236 0.340234 0.148641
C38   C     C_R   0.216736 0.807188 0.234557 -0.211831
H18   H     H_    0.105067 0.856368 0.227536 0.179789
C39   C     C_R   0.377287 0.812401 0.181497 -0.104242
C40   C     C_R   0.525496 0.750738 0.196470 0.061270
C41   C     C_3   0.731165 0.771168 0.212968 0.378697
C42   C     C_3   0.718096 0.702024 0.285737 -0.571947
H19   H     H_    0.729808 0.726575 0.351061 0.193535
H20   H     H_    0.801202 0.638675 0.275209 0.158632
O11   O     O_R   0.229140 0.916090 0.913340 -0.548400
O12   O     O_R   0.558860 0.905090 0.086080 -0.493156
O13   O     O_R   0.729100 0.083920 0.086690 -0.533689
C43   C     C_R   0.389455 0.882495 0.114326 0.814930
O14   O     O_R   0.558860 0.905090 0.913930 -0.539096
O15   O     O_R   0.729100 0.083920 0.913310 -0.546124
C44   C     C_R   0.390252 0.884863 0.883996 0.676773
O16   O     O_R   0.229140 0.916080 0.086720 -0.524845
O17   O     O_3   0.395570 0.058660 0.000020 -0.372911
V3    V     V_3+5 0.670450 0.989140 0.000000 1.549578
O18   O     O_R   0.058810 0.094980 0.913910 -0.548974
C45   C     C_R   0.891762 0.113831 0.883401 0.659479
O19   O     O_R   0.058810 0.094980 0.086060 -0.518375
C46   C     C_R   0.889669 0.116323 0.115271 0.716203
V4    V     V_3+5 0.170450 0.010950 0.999970 1.512032
O20   O     O_3   0.895460 0.941370 0.999990 -0.341922
C47   C     C_2   0.500498 0.367476 0.229897 0.352547
H21   H     H_    0.547334 0.371553 0.164865 0.053152
O21   O     O_2   0.448382 0.436713 0.265377 -0.542408
C48   C     C_2   0.403475 0.116437 0.251693 0.367830
H22   H     H_    0.388260 0.105639 0.318807 0.048783
O22   O     O_2   0.329674 0.062684 0.203640 -0.534515
C49   C     C_2   0.665621 0.493302 0.745727 0.354211
H23   H     H_    0.743216 0.529414 0.697244 0.036872
O23   O     O_2   0.494341 0.504864 0.755281 -0.535802
C50   C     C_2   0.709293 0.783336 0.613213 0.335744
H24   H     H_    0.620355 0.843354 0.607993 0.064377
O24   O     O_2   0.801385 0.757943 0.552311 -0.545213
O25   O     O_3   0.757059 0.866751 0.226926 -0.563404
C51   C     C_3   0.778143 0.897075 0.310719 0.074299
H25   H     H_    0.849722 0.964661 0.306675 0.146413
H26   H     H_    0.876132 0.855103 0.348093 0.107333
C52   C     C_3   0.584974 0.910324 0.355202 -0.297310
H27   H     H_    0.483325 0.942677 0.311717 0.220386
H28   H     H_    0.523971 0.843959 0.374793 0.197810
C53   C     C_3   0.604888 0.969792 0.433130 -0.848352
H29   H     H_    0.709146 0.939476 0.476974 0.247480
H30   H     H_    0.464411 0.975176 0.465609 0.232015
H31   H     H_    0.653673 0.039285 0.415311 0.223140
C54   C     C_2   0.853545 0.737614 0.141001 0.362617
H32   H     H_    0.967791 0.689651 0.152182 0.037454
O26   O     O_2   0.826598 0.763926 0.069510 -0.518999

loop_
_geom_bond_atom_site_label_1
_geom_bond_atom_site_label_2
_ccdc_geom_bond_type
O19   C46   A    
H1    C17   S    
C6    C7    A    
O15   V3    S    
O12   V3    S    
C51   H26   S    
C49   H23   S    
C31   C44   S    
C26   H11   S    
O18   C45   A    
C29   H12   S    
C12   C15   A    
C16   H6    S    
C13   C14   A    
O16   V4    S    
C22   C23   A    
C27   C34   S    
C15   C16   A    
O12   C43   A    
O5    C3    A    
C17   C18   A    
C33   H14   S    
V2    O10   S    
C31   C32   A    
C5    C6    A    
C53   H29   S    
C19   C24   A    
O15   C45   A    
C30   H13   S    
O8    V2    S    
O13   C46   A    
C37   C38   A    
C52   H27   S    
C40   C41   S    
O1    V2    S    
C5    C49   S    
C10   C14   A    
C4    C14   S    
O7    V1    S    
C1    O6    A    
C33   H15   S    
C21   C22   A    
C13   C18   A    
O9    C4    A    
C34   C50   S    
C52   H28   S    
C39   C43   S    
C48   H22   S    
V3    O20   S    
C20   C46   S    
C6    H2    S    
C51   H25   S    
C49   O23   D    
C29   C30   A    
C54   H32   S    
C25   H10   S    
O17   V4    S    
C30   C31   A    
C1    C28   S    
C38   H18   S    
C11   C12   A    
C15   H5    S    
C42   H20   S    
C47   H21   S    
O4    C2    A    
O18   V4    S    
O11   C44   A    
C8    H4    S    
O13   V3    S    
C12   C13   A    
C24   C25   S    
C5    C10   A    
C41   C54   S    
C38   C39   A    
O2    C1    A    
C16   C17   A    
C47   O21   D    
C43   O16   A    
O17   V3    S    
C35   C40   A    
C50   O24   D    
C27   C28   A    
C35   C42   S    
C48   O22   D    
C53   H31   S    
C19   C26   S    
O3    C4    A    
C7    H3    S    
C21   H8    S    
O6    V2    S    
O19   V4    S    
C52   C53   S    
C9    C11   A    
C22   H9    S    
O2    V1    S    
C20   C21   A    
C23   C24   A    
O14   C44   A    
C41   O25   S    
C25   C26   S    
C34   H16   S    
O14   V3    S    
O1    C2    A    
C27   C32   A    
C42   H19   S    
O5    V1    S    
C54   O26   D    
O8    C3    A    
C25   C47   S    
C36   C37   A    
O9    V2    S    
C33   C34   S    
C28   C29   A    
C3    C23   S    
O3    V1    S    
V1    O10   S    
C32   C33   S    
C19   C20   A    
C50   H24   S    
C26   C48   S    
O7    V2    S    
C39   C40   A    
C53   H30   S    
C2    C36   S    
O11   V4    S    
C35   C36   A    
C18   H7    S    
O4    V1    S    
C41   C42   S    
C7    C8    A    
C37   H17   S    
O25   C51   S    
C9    C10   A    
V4    O20   S    
C8    C9    A    
C11   C45   S    
C51   C52   S    
