data_mof_unit_64366.cif
_audit_creation_date              2012-12-11T16:03:51-0500
_audit_creation_method            fapswitch 2.2
_symmetry_space_group_name_H-M    P1
_symmetry_Int_Tables_number       1
_space_group_crystal_system       orthorhombic
_cell_length_a                    6.953303
_cell_length_b                    18.924929
_cell_length_c                    20.677009
_cell_angle_alpha                 90.0
_cell_angle_beta                  90.0
_cell_angle_gamma                 90.0
_cell_volume                      2720.90344443

loop_
_atom_site_label
_atom_site_type_symbol
_atom_type_description
_atom_site_fract_x
_atom_site_fract_y
_atom_site_fract_z
_atom_type_partial_charge
O1    O     O_R   0.708090 0.813600 0.184050 -0.534487
O2    O     O_R   0.291910 0.186400 0.815950 -0.534487
O3    O     O_R   0.291910 0.186400 0.684050 -0.534487
O4    O     O_R   0.708090 0.813600 0.315950 -0.534487
O5    O     O_R   0.208090 0.686400 0.315950 -0.534487
O6    O     O_R   0.791910 0.313600 0.684050 -0.534487
O7    O     O_R   0.791910 0.313600 0.815950 -0.534487
O8    O     O_R   0.208090 0.686400 0.184050 -0.534487
O9    O     O_R   0.378340 0.821960 0.315500 -0.536999
O10   O     O_R   0.621660 0.178040 0.684500 -0.536999
O11   O     O_R   0.621660 0.178040 0.815500 -0.536999
O12   O     O_R   0.378340 0.821960 0.184500 -0.536999
O13   O     O_R   0.878340 0.678040 0.184500 -0.536999
O14   O     O_R   0.121660 0.321960 0.815500 -0.536999
O15   O     O_R   0.121660 0.321960 0.684500 -0.536999
O16   O     O_R   0.878340 0.678040 0.315500 -0.536999
C1    C     C_R   0.546844 0.839180 0.337696 0.719977
C2    C     C_R   0.453156 0.160820 0.662304 0.719977
C3    C     C_R   0.453156 0.160820 0.837696 0.719977
C4    C     C_R   0.546844 0.839180 0.162304 0.719977
C5    C     C_R   0.046844 0.660820 0.162304 0.719977
C6    C     C_R   0.953156 0.339180 0.837696 0.719977
C7    C     C_R   0.953156 0.339180 0.662304 0.719977
C8    C     C_R   0.046844 0.660820 0.337696 0.719977
O17   O     O_3   0.541560 0.705520 0.250000 -0.367071
O18   O     O_3   0.458440 0.294480 0.750000 -0.367071
O19   O     O_3   0.041560 0.794480 0.250000 -0.367071
O20   O     O_3   0.958440 0.205520 0.750000 -0.367071
V1    V     V_3+5 0.266720 0.758250 0.250000 1.431806
V2    V     V_3+5 0.733280 0.241750 0.750000 1.431806
V3    V     V_3+5 0.766720 0.741750 0.250000 1.431806
V4    V     V_3+5 0.233280 0.258250 0.750000 1.431806
C9    C     C_1   0.945254 0.391584 0.610808 -0.184826
C10   C     C_1   0.054746 0.608416 0.389192 -0.184826
C11   C     C_1   0.054746 0.608416 0.110808 -0.184826
C12   C     C_1   0.945254 0.391584 0.889192 -0.184826
C13   C     C_1   0.445254 0.108416 0.889192 -0.184826
C14   C     C_1   0.554746 0.891583 0.110808 -0.184826
C15   C     C_1   0.554746 0.891584 0.389191 -0.184827
C16   C     C_1   0.445254 0.108416 0.610809 -0.184826
C17   C     C_2   0.922613 0.488058 0.516242 -0.142488
C18   C     C_2   0.077387 0.511942 0.483758 -0.142488
C19   C     C_2   0.077386 0.511942 0.016242 -0.142488
C20   C     C_2   0.922613 0.488058 0.983758 -0.142488
C21   C     C_2   0.422612 0.011943 0.983759 -0.142485
C22   C     C_2   0.577388 0.988057 0.016241 -0.142485
C23   C     C_2   0.577387 0.988060 0.483757 -0.142482
C24   C     C_2   0.422613 0.011940 0.516243 -0.142482
C25   C     C_1   0.062153 0.564598 0.432283 0.011754
C26   C     C_1   0.937847 0.435402 0.567717 0.011754
C27   C     C_1   0.937847 0.435402 0.932283 0.011754
C28   C     C_1   0.062153 0.564598 0.067717 0.011754
C29   C     C_1   0.562153 0.935401 0.067716 0.011754
C30   C     C_1   0.437847 0.064599 0.932284 0.011754
C31   C     C_1   0.437847 0.064598 0.567717 0.011753
C32   C     C_1   0.562153 0.935402 0.432283 0.011753
H1    H     H_    0.219338 0.491868 0.495713 0.134701
H2    H     H_    0.780661 0.508132 0.504286 0.134700
H3    H     H_    0.780661 0.508131 0.995714 0.134701
H4    H     H_    0.219339 0.491869 0.004286 0.134701
H5    H     H_    0.719342 0.008129 0.004284 0.134698
H6    H     H_    0.280658 0.991871 0.995716 0.134698
H7    H     H_    0.280659 0.991864 0.504290 0.134697
H8    H     H_    0.719341 0.008136 0.495710 0.134697

loop_
_geom_bond_atom_site_label_1
_geom_bond_atom_site_label_2
_ccdc_geom_bond_type
C17   C26   S    
C17   H2    S    
C24   C31   S    
C19   C20   D    
C23   H8    S    
O18   V4    S    
C5    C11   S    
O12   V1    S    
O19   V1    S    
O7    C6    A    
C6    C12   S    
C17   C18   D    
O10   V2    S    
O6    C7    A    
C15   C32   T    
O1    C4    A    
C22   C29   S    
O9    V1    S    
C16   C31   T    
O11   C3    A    
O14   C6    A    
O15   C7    A    
O8    C5    A    
O2    C3    A    
C24   H7    S    
O13   C5    A    
O15   V4    S    
O16   C8    A    
O7    V2    S    
C21   C22   D    
O16   V3    S    
O5    C8    A    
O12   C4    A    
C14   C29   T    
C12   C27   T    
C19   H4    S    
O10   C2    A    
C13   C30   T    
C18   H1    S    
O9    C1    A    
O6    V2    S    
C21   C30   S    
O18   V2    S    
O5    V1    S    
O1    V3    S    
O17   V1    S    
O3    V4    S    
C19   C28   S    
O4    V3    S    
O8    V1    S    
C18   C25   S    
O19   V3    S    
C21   H6    S    
O20   V4    S    
C22   H5    S    
C4    C14   S    
C20   C27   S    
O3    C2    A    
O2    V4    S    
C1    C15   S    
C20   H3    S    
C11   C28   T    
C2    C16   S    
C23   C32   S    
C10   C25   T    
C3    C13   S    
C9    C26   T    
O17   V3    S    
O13   V3    S    
C8    C10   S    
C23   C24   D    
O11   V2    S    
O14   V4    S    
O20   V2    S    
C7    C9    S    
O4    C1    A    
