data_mof_unit_28920.cif
_audit_creation_date              2012-12-11T15:43:56-0500
_audit_creation_method            fapswitch 2.2
_symmetry_space_group_name_H-M    P1
_symmetry_Int_Tables_number       1
_space_group_crystal_system       triclinic
_cell_length_a                    14.557473
_cell_length_b                    16.240669
_cell_length_c                    6.916994
_cell_angle_alpha                 90.432657
_cell_angle_beta                  98.788312
_cell_angle_gamma                 89.912854
_cell_volume                      1616.09141531

loop_
_atom_site_label
_atom_site_type_symbol
_atom_type_description
_atom_site_fract_x
_atom_site_fract_y
_atom_site_fract_z
_atom_type_partial_charge
O1    O     O_R   0.831700 0.662810 0.581550 -0.541364
O2    O     O_R   0.168300 0.337190 0.418450 -0.543206
O3    O     O_R   0.168300 0.162810 0.418450 -0.545077
O4    O     O_R   0.831700 0.837190 0.581550 -0.545659
O5    O     O_R   0.842890 0.834390 0.255500 -0.549088
O6    O     O_R   0.157110 0.165610 0.744500 -0.541385
O7    O     O_R   0.157110 0.334390 0.744500 -0.549505
O8    O     O_R   0.842890 0.665610 0.255500 -0.548120
O9    O     O_R   0.661690 0.835580 0.024130 -0.532080
O10   O     O_R   0.338310 0.164420 0.975870 -0.511930
O11   O     O_R   0.338310 0.335580 0.975870 -0.531750
O12   O     O_R   0.661690 0.664420 0.024130 -0.525230
C1    C     C_R   0.866398 0.863922 0.431185 0.683021
C2    C     C_R   0.133640 0.136047 0.568839 0.719210
C3    C     C_R   0.133776 0.364106 0.569558 0.702827
C4    C     C_R   0.866220 0.635892 0.430440 0.709444
C5    C     C_R   0.064406 0.066905 0.537276 -0.163078
C6    C     C_R   0.935691 0.933020 0.462812 -0.160031
C7    C     C_R   0.935338 0.566629 0.461668 -0.165571
C8    C     C_R   0.064655 0.433368 0.538327 -0.162958
H1    H     H_    0.111248 0.026554 0.270298 0.146682
H2    H     H_    0.888886 0.973348 0.729846 0.141327
H3    H     H_    0.887758 0.527613 0.727702 0.141705
H4    H     H_    0.112234 0.472382 0.272289 0.142176
C9    C     C_R   0.999862 0.950037 0.332597 0.209498
C10   C     C_R   0.000266 0.049861 0.667541 0.211406
C11   C     C_R   0.999924 0.451006 0.667289 0.205760
C12   C     C_R   0.000069 0.548991 0.332706 0.205360
O13   O     O_3   0.687240 0.750000 0.366320 -0.345577
O14   O     O_3   0.312760 0.250000 0.633680 -0.351807
V1    V     V_3+5 0.757720 0.750000 0.115230 1.436657
V2    V     V_3+5 0.242280 0.250000 0.884770 1.463232
O15   O     O_R   0.650500 0.664000 0.690740 -0.532550
O16   O     O_R   0.349500 0.336000 0.309260 -0.535875
O17   O     O_R   0.349500 0.164000 0.309260 -0.543530
O18   O     O_R   0.650500 0.836000 0.690740 -0.542051
C13   C     C_R   0.628201 0.635970 0.852610 0.632170
C14   C     C_R   0.372239 0.363507 0.147590 0.613070
C15   C     C_R   0.371360 0.135889 0.145654 0.688111
C16   C     C_R   0.627373 0.863713 0.854653 0.681070
C17   C     C_R   0.062508 0.015935 0.371229 -0.129596
C18   C     C_R   0.937617 0.983970 0.628898 -0.134255
C19   C     C_R   0.936944 0.516538 0.627572 -0.123473
C20   C     C_R   0.063048 0.483458 0.372421 -0.122125
V3    V     V_3+5 0.735670 0.750000 0.607790 1.480120
V4    V     V_3+5 0.264330 0.250000 0.392210 1.486670
O19   O     O_3   0.806150 0.750000 0.906560 -0.380530
O20   O     O_3   0.193850 0.250000 0.093440 -0.383267
C21   C     C_2   0.556472 0.931300 0.850067 0.058936
C22   C     C_2   0.443652 0.070614 0.152095 0.149331
C23   C     C_2   0.448952 0.425006 0.160848 0.129027
C24   C     C_2   0.553080 0.572682 0.840670 0.125836
C25   C     C_2   0.515942 0.950758 0.010516 0.283862
C26   C     C_2   0.441980 0.015241 0.002951 0.362894
C27   C     C_2   0.456016 0.477046 0.009073 0.347116
C28   C     C_2   0.543802 0.524793 0.998552 0.342289
N1    N     N_3   0.005429 0.900731 0.162144 -0.655365
H5    H     H_    0.014203 0.839078 0.203388 0.229692
H6    H     H_    0.943868 0.907455 0.063972 0.246007
N2    N     N_3   0.994734 0.099132 0.838065 -0.661422
H7    H     H_    0.985920 0.160791 0.796892 0.224938
H8    H     H_    0.056321 0.092408 0.936158 0.249356
N3    N     N_3   0.994192 0.402717 0.837495 -0.660862
H9    H     H_    0.055794 0.409748 0.935614 0.245528
H10   H     H_    0.985435 0.340859 0.795917 0.226686
N4    N     N_3   0.005805 0.597281 0.162503 -0.658502
H11   H     H_    0.944202 0.590253 0.064383 0.245242
H12   H     H_    0.014564 0.659139 0.204086 0.229184
O21   O     O_3   0.368776 0.016335 0.849449 -0.644872
H13   H     H_    0.370601 0.964904 0.772116 0.313790
O22   O     O_3   0.538721 0.909878 0.185181 -0.623282
H14   H     H_    0.601929 0.929127 0.241188 0.305191
O23   O     O_3   0.615059 0.519880 0.155598 -0.612813
H15   H     H_    0.675175 0.519082 0.104647 0.271483
O24   O     O_3   0.381948 0.487559 0.859633 -0.614196
H16   H     H_    0.323066 0.483859 0.914684 0.271333
O25   O     O_3   0.515834 0.067886 0.307208 -0.649030
H17   H     H_    0.510015 0.115212 0.395781 0.309092
O26   O     O_3   0.531513 0.976706 0.681814 -0.631445
H18   H     H_    0.570765 0.959622 0.583819 0.338241
O27   O     O_3   0.489212 0.564894 0.671229 -0.592159
H19   H     H_    0.501373 0.607403 0.576475 0.322861
O28   O     O_3   0.517007 0.426040 0.324401 -0.595151
H20   H     H_    0.505944 0.380581 0.412647 0.312337

loop_
_geom_bond_atom_site_label_1
_geom_bond_atom_site_label_2
_ccdc_geom_bond_type
N4    H12   S    
C27   C28   S    
N3    H10   S    
O15   V3    S    
O23   H15   S    
O6    V2    S    
O27   H19   S    
O25   H17   S    
O2    V4    S    
C22   C26   D    
C1    C6    S    
C5    C10   A    
C6    C18   A    
N1    H6    S    
C16   C21   S    
O12   C13   A    
H3    C19   S    
N2    H8    S    
O4    C1    A    
C12   N4    S    
O16   V4    S    
O5    C1    A    
C27   O24   S    
O7    C3    A    
N4    H11   S    
O8    C4    A    
V1    O19   S    
V2    O20   S    
C2    C5    S    
C24   O27   S    
C6    C9    A    
C9    N1    S    
C28   O23   S    
C8    C20   A    
C7    C19   A    
O4    V3    S    
V3    O19   S    
C3    C8    S    
V4    O20   S    
O18   C16   A    
O26   H18   S    
C9    C17   A    
C13   C24   S    
C14   C23   S    
C25   C26   S    
C12   C20   A    
O9    C16   A    
O15   C13   A    
C21   O26   S    
O13   V3    S    
N2    H7    S    
O11   C14   A    
O17   C15   A    
O24   H16   S    
C7    C12   A    
O10   V2    S    
O6    C2    A    
O28   H20   S    
O18   V3    S    
O1    C4    A    
O2    C3    A    
O3    C2    A    
C11   N3    S    
H1    C17   S    
O11   V2    S    
O12   V1    S    
H4    C20   S    
C25   O22   S    
C22   O25   S    
C23   O28   S    
C10   C18   A    
O7    V2    S    
O16   C14   A    
O8    V1    S    
O14   V4    S    
C8    C11   A    
O3    V4    S    
O22   H14   S    
O13   V1    S    
O14   V2    S    
O1    V3    S    
N1    H5    S    
H2    C18   S    
C26   O21   S    
C4    C7    S    
C21   C25   D    
C23   C27   D    
O21   H13   S    
C5    C17   A    
O9    V1    S    
N3    H9    S    
C11   C19   A    
C15   C22   S    
O10   C15   A    
O17   V4    S    
C10   N2    S    
C24   C28   D    
O5    V1    S    
