data_mof_unit_60844.cif
_audit_creation_date              2012-12-10T18:33:26-0500
_audit_creation_method            fapswitch 2.2
_symmetry_space_group_name_H-M    P1
_symmetry_Int_Tables_number       1
_space_group_crystal_system       triclinic
_cell_length_a                    21.759097
_cell_length_b                    21.729296
_cell_length_c                    24.695594
_cell_angle_alpha                 116.025734
_cell_angle_beta                  115.98899
_cell_angle_gamma                 89.535352
_cell_volume                      9182.9008331

loop_
_atom_site_label
_atom_site_type_symbol
_atom_type_description
_atom_site_fract_x
_atom_site_fract_y
_atom_site_fract_z
_atom_type_partial_charge
C1    C     C_R   0.066675 0.566050 0.632603 0.853041
C2    C     C_R   0.016754 0.324800 0.235679 -0.185007
C3    C     C_R   0.667684 0.306336 0.395885 0.464265
C4    C     C_R   0.538043 0.204961 0.475797 -0.147630
C5    C     C_R   0.501885 0.188414 0.504503 -0.095559
C6    C     C_R   0.467869 0.237490 0.534447 0.014216
C7    C     C_R   0.467556 0.299979 0.531139 -0.216642
C8    C     C_R   0.501935 0.314937 0.500606 -0.090161
C9    C     C_R   0.539014 0.268159 0.474195 0.042958
C10   C     C_R   0.365837 0.230173 0.554853 -0.124855
C11   C     C_R   0.337026 0.224154 0.593476 -0.122026
C12   C     C_R   0.378594 0.216538 0.651215 -0.102322
C13   C     C_R   0.251293 0.467244 0.438340 -0.212767
C14   C     C_R   0.449059 0.214980 0.670466 -0.096131
C15   C     C_R   0.478034 0.220656 0.631837 -0.077021
C16   C     C_R   0.436462 0.227953 0.573480 0.132489
C17   C     C_R   0.313785 0.497968 0.501424 -0.157568
C18   C     C_R   0.310774 0.526052 0.563803 -0.071699
C19   C     C_R   0.245717 0.529582 0.561975 0.395313
C20   C     C_R   0.183869 0.498461 0.498224 -0.172934
C21   C     C_R   0.186286 0.465783 0.436012 -0.049450
C22   C     C_R   0.397476 0.492048 0.646522 -0.140304
C23   C     C_R   0.458152 0.508969 0.708261 0.199139
C24   C     C_R   0.494736 0.579118 0.754571 -0.132354
C25   C     C_R   0.117348 0.498666 0.497791 0.840236
C26   C     C_R   0.470924 0.632246 0.738960 -0.193244
C27   C     C_R   0.410597 0.615414 0.676998 -0.110398
C28   C     C_R   0.373431 0.545196 0.630601 0.167604
C29   C     C_R   0.099231 0.671933 0.744965 -0.273779
C30   C     C_R   0.134535 0.708098 0.816756 -0.167299
C31   C     C_R   0.177662 0.676923 0.854091 0.008552
C32   C     C_R   0.184442 0.608550 0.818017 -0.291989
C33   C     C_R   0.147394 0.570600 0.745447 0.438040
C34   C     C_R   0.105204 0.603319 0.708715 -0.088924
C35   C     C_R   0.286492 0.786365 0.070427 0.439069
C36   C     C_R   0.932210 0.433780 0.367374 0.816470
C37   C     C_R   0.216118 0.715673 0.930373 0.431243
C38   C     C_R   0.310078 0.888187 0.183337 -0.164864
C39   C     C_R   0.345574 0.924363 0.255309 0.116029
C40   C     C_R   0.396799 0.897145 0.292033 -0.111083
C41   C     C_R   0.412240 0.833906 0.255520 0.111525
C42   C     C_R   0.376150 0.798122 0.183570 -0.173965
C43   C     C_R   0.324678 0.824686 0.146715 -0.018816
C44   C     C_R   0.958512 0.466676 0.683311 -0.141799
C45   C     C_R   0.901265 0.459081 0.623108 -0.120878
C46   C     C_R   0.872788 0.517094 0.622401 0.073703
C47   C     C_R   0.882240 0.500978 0.501652 0.808384
C48   C     C_R   0.901837 0.582530 0.682683 -0.162810
C49   C     C_R   0.959118 0.589932 0.742784 -0.119427
C50   C     C_R   0.987398 0.532053 0.743120 -0.111983
C51   C     C_R   0.746335 0.510987 0.557813 -0.240953
C52   C     C_R   0.686144 0.503422 0.499155 -0.085875
C53   C     C_R   0.691747 0.496167 0.441617 0.077307
C54   C     C_R   0.757159 0.495941 0.444403 -0.167426
C55   C     C_R   0.816052 0.501642 0.502204 -0.047523
C56   C     C_R   0.811086 0.509054 0.559494 -0.005868
C57   C     C_R   0.613446 0.425489 0.315439 -0.269068
C58   C     C_R   0.051082 0.302402 0.284023 -0.184592
C59   C     C_R   0.559643 0.416436 0.252735 0.465312
C60   C     C_R   0.521976 0.468668 0.252082 -0.329591
C61   C     C_R   0.541376 0.533125 0.313356 0.468528
C62   C     C_R   0.595685 0.540712 0.375567 -0.142587
C63   C     C_R   0.631503 0.486998 0.377020 -0.012531
C64   C     C_R   0.886950 0.433334 0.255652 -0.294368
C65   C     C_R   0.850583 0.400197 0.183884 0.170382
C66   C     C_R   0.817298 0.328018 0.145733 -0.058616
C67   C     C_R   0.819411 0.291554 0.181239 -0.302222
C68   C     C_R   0.856891 0.324509 0.253315 0.430948
C69   C     C_R   0.103265 0.350168 0.350423 -0.185023
C70   C     C_R   0.891630 0.396307 0.291221 -0.140751
C71   C     C_R   0.715531 0.215023 0.929959 0.423633
C72   C     C_R   0.780422 0.289369 0.069647 0.444448
C73   C     C_R   0.715209 0.163189 0.815808 0.158341
C74   C     C_R   0.677665 0.128358 0.743941 -0.208596
C75   C     C_R   0.604427 0.104106 0.708583 -0.064831
C76   C     C_R   0.568819 0.115372 0.746425 -0.209023
C77   C     C_R   0.605704 0.150973 0.818270 -0.189025
C78   C     C_R   0.679003 0.175854 0.853911 0.018462
C79   C     C_R   0.499811 0.618917 0.499790 0.814799
C80   C     C_R   0.123194 0.420712 0.368731 0.007029
C81   C     C_R   0.380862 0.498865 0.500431 0.841713
C82   C     C_R   0.501234 0.381296 0.500144 0.788515
C83   C     C_R   0.619038 0.501615 0.499609 0.778797
C84   C     C_R   0.500734 0.119825 0.502031 0.792120
C85   C     C_R   0.434055 0.934371 0.367693 0.848877
C86   C     C_R   0.500975 0.881756 0.501272 0.806739
C87   C     C_R   0.566153 0.066118 0.632570 0.777974
C88   C     C_R   0.289241 0.551520 0.294348 -0.164357
C89   C     C_R   0.351803 0.603038 0.338602 -0.128732
C90   C     C_R   0.372121 0.644319 0.408645 0.076018
C91   C     C_R   0.088497 0.443254 0.319326 0.436468
C92   C     C_R   0.328478 0.634690 0.434014 0.128005
C93   C     C_R   0.265746 0.583588 0.389246 -0.131338
C94   C     C_R   0.246287 0.541597 0.319702 -0.106042
C95   C     C_R   0.440653 0.762105 0.456390 -0.181430
C96   C     C_R   0.502002 0.815191 0.501774 -0.050620
C97   C     C_R   0.562925 0.803638 0.546279 0.035305
C98   C     C_R   0.560942 0.738946 0.545048 -0.194772
C99   C     C_R   0.499585 0.685687 0.499372 -0.045258
C100  C     C_R   0.438984 0.697306 0.454652 0.046319
C101  C     C_R   0.684960 0.859614 0.583362 0.206246
C102  C     C_R   0.035723 0.394744 0.253133 -0.161434
C103  C     C_R   0.746495 0.912420 0.632501 -0.157498
C104  C     C_R   0.752075 0.963849 0.694671 -0.137045
C105  C     C_R   0.696117 0.962860 0.708019 -0.118245
C106  C     C_R   0.634168 0.910988 0.658965 -0.193898
C107  C     C_R   0.628229 0.858981 0.596541 0.056330
C108  C     C_R   0.593735 0.291382 0.357486 -0.247244
C109  C     C_R   0.552162 0.279849 0.383558 -0.222393
C110  C     C_R   0.583317 0.285825 0.449259 -0.036479
C111  C     C_R   0.657185 0.305422 0.489751 0.389035
C112  C     C_R   0.698447 0.315020 0.462510 -0.238314
Cu1   Cu    Cu3+1 0.000000 0.438230 0.500020 0.969972
Cu2   Cu    Cu3+1 0.000000 0.561770 0.499980 0.928215
Cu3   Cu    Cu3+1 0.465780 0.465820 0.431560 0.977799
Cu4   Cu    Cu3+1 0.534220 0.534230 0.568440 0.966814
Cu5   Cu    Cu3+1 0.561810 0.999860 0.500000 1.019425
Cu6   Cu    Cu3+1 0.438190 0.999810 0.500000 0.997205
H1    H     H_    0.975974 0.287769 0.184380 0.164409
H2    H     H_    0.541738 0.592419 0.802400 0.157041
H3    H     H_    0.499502 0.686444 0.774684 0.151700
H4    H     H_    0.393340 0.656833 0.664962 0.148802
H5    H     H_    0.066501 0.697525 0.717655 0.172582
H6    H     H_    0.128379 0.760819 0.842958 0.166432
H7    H     H_    0.219397 0.584951 0.846230 0.155484
H8    H     H_    0.271120 0.910138 0.156170 0.180332
H9    H     H_    0.037371 0.247781 0.269967 0.144684
H10   H     H_    0.388564 0.749392 0.156619 0.168731
H11   H     H_    0.031678 0.537932 0.789744 0.126220
H12   H     H_    0.980225 0.421786 0.683651 0.129263
H13   H     H_    0.878772 0.407995 0.577346 0.137967
H14   H     H_    0.880163 0.627665 0.683030 0.138890
H15   H     H_    0.981612 0.640534 0.789105 0.143393
H16   H     H_    0.742874 0.516868 0.602202 0.162277
H17   H     H_    0.762170 0.490486 0.400754 0.135256
H18   H     H_    0.641526 0.384616 0.316108 0.175385
H19   H     H_    0.130041 0.331561 0.386991 0.155083
H20   H     H_    0.479621 0.458242 0.202706 0.155149
H21   H     H_    0.610875 0.589313 0.422907 0.156741
H22   H     H_    0.911851 0.488709 0.283695 0.188037
H23   H     H_    0.792452 0.236714 0.152991 0.171046
H24   H     H_    0.706359 0.119068 0.715709 0.181977
H25   H     H_    0.512412 0.096718 0.720574 0.159961
H26   H     H_    0.576621 0.159788 0.846105 0.160398
H27   H     H_    0.197963 0.501487 0.285320 0.183238
H28   H     H_    0.274096 0.519326 0.240460 0.140129
H29   H     H_    0.384714 0.610444 0.318576 0.157101
H30   H     H_    0.232580 0.576758 0.409097 0.193661
H31   H     H_    0.393858 0.771214 0.422258 0.154867
H32   H     H_    0.607522 0.729974 0.579546 0.151231
H33   H     H_    0.790147 0.913506 0.622607 0.155208
H34   H     H_    0.009861 0.411344 0.214801 0.177824
H35   H     H_    0.799850 0.004394 0.732590 0.163160
H36   H     H_    0.700722 0.002304 0.756421 0.159854
H37   H     H_    0.591010 0.910955 0.669790 0.144010
H38   H     H_    0.567597 0.288695 0.307627 0.158290
H39   H     H_    0.495538 0.265713 0.352234 0.186974
H40   H     H_    0.755102 0.328893 0.493343 0.162963
H41   H     H_    0.565689 0.168458 0.454267 0.166054
H42   H     H_    0.441586 0.338000 0.553755 0.151360
H43   H     H_    0.252757 0.442179 0.390205 0.184003
H44   H     H_    0.333206 0.236535 0.510486 0.130553
H45   H     H_    0.282555 0.225741 0.578838 0.132093
H46   H     H_    0.356307 0.212233 0.681257 0.129106
H47   H     H_    0.481362 0.210014 0.715686 0.134848
H48   H     H_    0.532943 0.220198 0.647798 0.110144
H49   H     H_    0.369585 0.437601 0.610620 0.127714
N1    N     N_R   0.262008 0.687709 0.966426 -0.241153
N2    N     N_R   0.296491 0.722318 0.034956 -0.240509
N3    N     N_R   0.240568 0.814346 0.034396 -0.235188
N4    N     N_R   0.206155 0.779768 0.965830 -0.241211
N5    N     N_R   0.723830 0.235133 0.034244 -0.256152
N6    N     N_R   0.691754 0.198948 0.965736 -0.247914
N7    N     N_R   0.771944 0.269253 0.965389 -0.171041
N8    N     N_R   0.804087 0.305252 0.033808 -0.175266
O1    O     O_R   0.049920 0.497760 0.599870 -0.541879
O2    O     O_R   0.528910 0.619050 0.557800 -0.576755
O3    O     O_R   0.380930 0.471140 0.442200 -0.587083
O4    O     O_R   0.438710 0.528900 0.557790 -0.570630
O5    O     O_R   0.471090 0.380990 0.442200 -0.581995
O6    O     O_R   0.528880 0.438760 0.557790 -0.590875
O7    O     O_R   0.561290 0.471140 0.442210 -0.572157
O8    O     O_R   0.619070 0.528910 0.557800 -0.603039
O9    O     O_R   0.552160 0.089990 0.499980 -0.588381
O10   O     O_R   0.447770 0.089950 0.499980 -0.563751
O11   O     O_R   0.502270 0.949920 0.400150 -0.552618
O12   O     O_R   0.049920 0.602100 0.599840 -0.608599
O13   O     O_R   0.397880 0.949890 0.400140 -0.560733
O14   O     O_R   0.552230 0.909720 0.500030 -0.549082
O15   O     O_R   0.447840 0.909680 0.500020 -0.589156
O16   O     O_R   0.602120 0.049780 0.599860 -0.582475
O17   O     O_R   0.497730 0.049740 0.599850 -0.592778
O18   O     O_R   0.090180 0.447830 0.500020 -0.567052
O19   O     O_R   0.090180 0.552170 0.499990 -0.630989
O20   O     O_R   0.950080 0.397900 0.400160 -0.557108
O21   O     O_R   0.950080 0.502240 0.400130 -0.611322
O22   O     O_R   0.909820 0.447830 0.500010 -0.582589
O23   O     O_R   0.909820 0.552170 0.499980 -0.582156
O24   O     O_R   0.471120 0.561280 0.442210 -0.573112
O25   O     O_3   0.157969 0.505216 0.709155 -0.583824
C113  C     C_3   0.152348 0.458959 0.733793 0.069551
H50   H     H_    0.113891 0.468543 0.753460 0.119480
H51   H     H_    0.204747 0.464998 0.775665 0.151575
C114  C     C_3   0.127865 0.383477 0.674793 -0.299962
H52   H     H_    0.076108 0.377309 0.632072 0.221485
H53   H     H_    0.166210 0.372253 0.655217 0.230273
C115  C     C_3   0.120824 0.330642 0.698013 -0.940866
H54   H     H_    0.172212 0.335199 0.740128 0.263731
H55   H     H_    0.103162 0.276450 0.654049 0.260443
H56   H     H_    0.081505 0.339961 0.716350 0.256676
I1    I     I_    0.322241 0.022219 0.304846 -0.367019
I2    I     I_    0.487653 0.788092 0.306010 -0.383584
O26   O     O_3   0.539988 0.354847 0.191708 -0.607155
C116  C     C_3   0.594331 0.347877 0.173892 0.048650
H57   H     H_    0.583771 0.291965 0.135265 0.175867
H58   H     H_    0.647166 0.359200 0.217983 0.123031
C117  C     C_3   0.594868 0.393844 0.141354 -0.377246
H59   H     H_    0.542576 0.379912 0.095862 0.232842
H60   H     H_    0.605712 0.450198 0.179120 0.212226
C118  C     C_3   0.651017 0.383702 0.118974 -0.836216
H61   H     H_    0.703772 0.398711 0.164155 0.263124
H62   H     H_    0.650296 0.417498 0.095690 0.271016
H63   H     H_    0.640889 0.328000 0.080187 0.265466
O27   O     O_3   0.510428 0.590460 0.317204 -0.598902
C119  C     C_3   0.469523 0.589166 0.253424 0.064053
H64   H     H_    0.442400 0.633040 0.263242 0.187974
H65   H     H_    0.426103 0.541438 0.215842 0.116701
C120  C     C_3   0.515051 0.601849 0.224430 -0.336997
H66   H     H_    0.552740 0.653710 0.262009 0.264084
H67   H     H_    0.546042 0.561202 0.216065 0.201037
C121  C     C_3   0.469806 0.600615 0.156006 -0.867659
H68   H     H_    0.433784 0.548049 0.117040 0.249767
H69   H     H_    0.504013 0.611600 0.137131 0.265763
H70   H     H_    0.438379 0.641191 0.162352 0.266892
I3    I     I_    0.844734 0.466176 0.139575 -0.356754
O28   O     O_3   0.853611 0.287895 0.286189 -0.610693
C122  C     C_3   0.902959 0.245264 0.287104 0.070601
H71   H     H_    0.956730 0.278696 0.316338 0.170167
H72   H     H_    0.891671 0.206829 0.233879 0.126554
C123  C     C_3   0.900318 0.204795 0.323613 -0.325991
H73   H     H_    0.906589 0.242184 0.375047 0.231329
H74   H     H_    0.848723 0.167094 0.292857 0.223389
C124  C     C_3   0.958253 0.164120 0.332783 -0.928555
H75   H     H_    0.952630 0.125928 0.281909 0.261359
H76   H     H_    0.954547 0.134793 0.358840 0.262292
H77   H     H_    0.010701 0.200856 0.364898 0.253765
I4    I     I_    0.826418 0.187905 0.860473 -0.361267
O29   O     O_3   0.109653 0.509798 0.331364 -0.651504
C125  C     C_3   0.086496 0.559238 0.374227 0.029382
H78   H     H_    0.128195 0.581400 0.428639 0.177158
H79   H     H_    0.036652 0.536311 0.367886 0.163469
C126  C     C_3   0.074205 0.619058 0.356819 -0.326823
H80   H     H_    0.123633 0.643598 0.363821 0.234221
H81   H     H_    0.033287 0.597600 0.302084 0.239897
C127  C     C_3   0.050378 0.675055 0.402714 -0.868860
H82   H     H_    0.000249 0.651875 0.395481 0.257475
H83   H     H_    0.041989 0.717817 0.388938 0.259691
H84   H     H_    0.090995 0.697882 0.457673 0.255216
I5    I     I_    0.353501 0.696096 0.538586 -0.466654
I6    I     I_    0.679809 0.783022 0.490030 -0.351729
O30   O     O_3   0.712126 0.318344 0.373067 -0.621085
C128  C     C_3   0.694852 0.264081 0.306287 0.045719
H85   H     H_    0.727298 0.282137 0.289371 0.203829
H86   H     H_    0.639625 0.254831 0.267355 0.124841
C129  C     C_3   0.712249 0.195532 0.306362 -0.342929
H87   H     H_    0.768713 0.205756 0.343196 0.223743
H88   H     H_    0.680645 0.175871 0.323087 0.215321
C130  C     C_3   0.696336 0.138847 0.234632 -0.900210
H89   H     H_    0.639237 0.125326 0.198175 0.261579
H90   H     H_    0.711967 0.090788 0.236594 0.257657
H91   H     H_    0.725858 0.157360 0.215512 0.263841
O31   O     O_3   0.690358 0.312179 0.554971 -0.606322
C131  C     C_3   0.685079 0.376182 0.602436 0.067570
H92   H     H_    0.646165 0.364088 0.616187 0.180474
H93   H     H_    0.668085 0.414103 0.582493 0.131229
C132  C     C_3   0.756496 0.411938 0.667399 -0.342375
H94   H     H_    0.773765 0.375749 0.689107 0.239940
H95   H     H_    0.795665 0.423946 0.653916 0.225548
C133  C     C_3   0.753489 0.480076 0.721732 -0.872980
H96   H     H_    0.737090 0.517483 0.701494 0.251112
H97   H     H_    0.806293 0.504919 0.767876 0.262081
H98   H     H_    0.715772 0.469047 0.737175 0.268020
O32   O     O_3   0.242659 0.556065 0.622810 -0.596240
C134  C     C_3   0.241619 0.628195 0.647208 0.039820
H99   H     H_    0.186313 0.633246 0.625730 0.179968
H100  H     H_    0.270220 0.655507 0.632878 0.134681
C135  C     C_3   0.275647 0.665374 0.725714 -0.313184
H101  H     H_    0.250983 0.636832 0.741542 0.247971
H102  H     H_    0.332319 0.664969 0.748082 0.225764
C136  C     C_3   0.267792 0.741254 0.754572 -0.899460
H103  H     H_    0.293856 0.771428 0.740895 0.259762
H104  H     H_    0.292669 0.766423 0.811527 0.265252
H105  H     H_    0.211374 0.742811 0.733792 0.263460
I7    I     I_    0.494929 0.428436 0.730685 -0.410776

loop_
_geom_bond_atom_site_label_1
_geom_bond_atom_site_label_2
_ccdc_geom_bond_type
C101  C107  A    
C55   C56   A    
Cu4   O8    S    
C1    O1    A    
C40   C41   A    
C93   C94   A    
C136  H105  S    
Cu1   O20   S    
C41   C42   A    
C111  C112  A    
C2    C58   A    
C75   C76   A    
C109  H39   S    
O27   C119  S    
C131  C132  S    
C128  C129  S    
C120  H67   S    
C97   C98   A    
Cu5   O9    S    
C7    C8    A    
C31   C32   A    
C53   C54   A    
O29   C125  S    
C117  C118  S    
C85   O13   A    
C82   O6    A    
C125  H78   S    
C62   C63   A    
C112  H40   S    
C114  C115  S    
C118  H62   S    
C8    C82   S    
C72   N5    A    
C130  H89   S    
C79   C99   S    
C134  H99   S    
C24   C26   A    
C81   O3    A    
C51   C56   A    
Cu5   O11   S    
C98   H32   S    
C5    C6    A    
C51   H16   S    
C116  H58   S    
C57   C59   A    
C4    H41   S    
C20   C25   S    
C2    C102  A    
C44   H12   S    
Cu3   Cu4   S    
C72   N8    A    
C101  I6    S    
C85   O11   A    
C119  C120  S    
C18   C19   A    
C108  C109  A    
C93   H30   S    
C136  H103  S    
C73   C74   A    
C133  H98   S    
C49   C50   A    
N7    N8    A    
C104  C105  A    
Cu3   O7    S    
Cu5   O16   S    
C86   C96   S    
C131  H93   S    
C91   O29   S    
C41   I2    S    
Cu6   O17   S    
Cu6   O10   S    
C66   C72   S    
C95   C96   A    
C2    H1    S    
O31   C131  S    
C3    O30   S    
C124  H75   S    
C115  H56   S    
C114  H52   S    
C23   C24   A    
C79   O2    A    
C15   H48   S    
C95   H31   S    
C26   H3    S    
C64   C70   A    
C104  H35   S    
C23   I7    S    
C35   C43   S    
C129  H87   S    
C36   O20   A    
C17   C81   S    
Cu3   O5    S    
C103  H33   S    
C127  H83   S    
C94   H27   S    
C66   C67   A    
C74   H24   S    
C127  H84   S    
C59   C60   A    
C101  C103  A    
C22   C28   A    
C122  H71   S    
C96   C97   A    
C123  H74   S    
C113  H51   S    
C84   O10   A    
C111  O31   S    
C90   C100  S    
C118  H61   S    
C38   H8    S    
C27   H4    S    
C36   C70   S    
C1    C34   S    
C57   C63   A    
C37   N1    A    
C88   C94   A    
C1    O12   A    
C130  H90   S    
C69   H19   S    
C38   C39   A    
C46   C48   A    
C86   O15   A    
C125  H79   S    
C74   C75   A    
C24   H2    S    
C13   C21   A    
C51   C52   A    
C10   H44   S    
C84   O9    A    
C18   C28   S    
C76   C77   A    
C81   O4    A    
C121  H69   S    
O28   C122  S    
C39   C40   A    
C5    C84   S    
Cu6   O13   S    
C116  H57   S    
O25   C113  S    
C128  H86   S    
C7    H42   S    
C33   O25   S    
C124  H76   S    
C117  H59   S    
C77   C78   A    
C73   C78   A    
Cu3   O24   S    
C29   C34   A    
C123  C124  S    
Cu2   O12   S    
C115  H54   S    
C83   O7    A    
C31   C37   S    
C60   C61   A    
C40   C85   S    
C52   C83   S    
C67   C68   A    
C36   O21   A    
C29   C30   A    
C50   H11   S    
C8    C9    A    
C12   H46   S    
C68   O28   S    
C126  H81   S    
C90   C92   A    
C135  H101  S    
C108  H38   S    
C132  C133  S    
O26   C116  S    
C3    C112  A    
C135  H102  S    
C124  H77   S    
Cu4   O6    S    
C126  H80   S    
C11   H45   S    
C17   C18   A    
C26   C27   A    
C135  C136  S    
C39   I1    S    
C47   O23   A    
C106  C107  A    
C20   C21   A    
C14   H47   S    
C13   H43   S    
C92   C93   A    
C129  H88   S    
C6    C7    A    
Cu5   O14   S    
C102  H34   S    
C71   N7    A    
C126  C127  S    
Cu6   O15   S    
C22   H49   S    
C118  H63   S    
C75   C87   S    
N1    N2    A    
C114  H53   S    
C106  H37   S    
Cu1   O1    S    
Cu2   O23   S    
C62   H21   S    
C113  C114  S    
C122  C123  S    
C130  H91   S    
C30   H6    S    
C42   C43   A    
C91   C102  A    
C46   C56   S    
C127  H82   S    
C67   H23   S    
C120  C121  S    
O32   C134  S    
C92   I5    S    
C25   O18   A    
C52   C53   A    
C47   C55   S    
Cu1   Cu2   S    
C64   H22   S    
C44   C50   A    
C9    C110  S    
C89   H29   S    
C49   H15   S    
C54   C55   A    
C83   O8    A    
C125  C126  S    
C71   N6    A    
C32   C33   A    
Cu2   O19   S    
C79   O24   A    
C119  H64   S    
C95   C100  A    
Cu1   O18   S    
C65   I3    S    
C134  C135  S    
C47   O22   A    
C44   C45   A    
C14   C15   A    
C12   C14   A    
C4    C5    A    
C116  C117  S    
C37   N4    A    
C11   C12   A    
C59   O26   S    
C58   C69   A    
C45   H13   S    
C128  H85   S    
C73   I4    S    
C42   H10   S    
C3    C108  A    
C117  H60   S    
C19   O32   S    
C105  C106  A    
Cu5   Cu6   S    
C61   O27   S    
C99   C100  A    
C13   C17   A    
C113  H50   S    
C86   O14   A    
C105  H36   S    
C19   C20   A    
C122  H72   S    
C4    C9    A    
C133  H96   S    
C38   C43   A    
C65   C66   A    
C10   C16   A    
C109  C110  A    
C64   C65   A    
C132  H94   S    
C53   C63   S    
C30   C31   A    
O30   C128  S    
C80   C91   A    
C110  C111  A    
C48   C49   A    
C54   H17   S    
C29   H5    S    
C21   C80   S    
C134  H100  S    
C123  H73   S    
C119  H65   S    
C35   N2    A    
C33   C34   A    
Cu2   O21   S    
C121  H70   S    
C136  H104  S    
C32   H7    S    
C133  H97   S    
C61   C62   A    
C129  C130  S    
C77   H26   S    
Cu3   O3    S    
C10   C11   A    
C120  H66   S    
N5    N6    A    
C97   C107  S    
C76   H25   S    
C45   C46   A    
C58   H9    S    
C87   O16   A    
C103  C104  A    
C88   C89   A    
C68   C70   A    
C98   C99   A    
N3    N4    A    
Cu4   O4    S    
C82   O5    A    
C121  H68   S    
C115  H55   S    
C35   N3    A    
Cu1   O22   S    
C22   C23   A    
C48   H14   S    
C69   C80   A    
C88   H28   S    
C89   C90   A    
Cu4   O2    S    
C132  H95   S    
C6    C16   S    
C71   C78   S    
C25   O19   A    
C15   C16   A    
C57   H18   S    
C60   H20   S    
C87   O17   A    
C27   C28   A    
C131  H92   S    
