data_mof_unit_11159.cif
_audit_creation_date              2013-03-05T15:53:17-0500
_audit_creation_method            fapswitch 2.2
_symmetry_space_group_name_H-M    P1
_symmetry_Int_Tables_number       1
_space_group_crystal_system       triclinic
_cell_length_a                    11.540999
_cell_length_b                    10.67713
_cell_length_c                    9.926348
_cell_angle_alpha                 87.531717
_cell_angle_beta                  90.15892
_cell_angle_gamma                 92.073594
_cell_volume                      1221.23575246

loop_
_atom_site_label
_atom_site_type_symbol
_atom_site_description
_atom_site_fract_x
_atom_site_fract_y
_atom_site_fract_z
_atom_type_partial_charge
O1    O     O_R   0.500000 0.316780 0.614690 -0.666005
O2    O     O_R   0.499990 0.316750 0.385360 -0.585423
C1    C     C_R   0.509736 0.260130 0.504098 0.927712
O3    O     O_R   0.334450 0.500030 0.614670 -0.649339
O4    O     O_R   0.334440 0.500000 0.385330 -0.629885
C2    C     C_R   0.282051 0.499464 0.499882 0.876865
Zn1   Zn    Zn3+2 0.500010 0.500020 0.653130 0.995967
Zn2   Zn    Zn3+2 0.499990 0.499980 0.346870 1.013394
O5    O     O_R   0.500010 0.683250 0.614640 -0.583755
O6    O     O_R   0.500000 0.683220 0.385310 -0.619295
O7    O     O_R   0.665560 0.500000 0.614670 -0.573218
O8    O     O_R   0.665550 0.499970 0.385330 -0.587587
C3    C     C_R   0.492047 0.739484 0.497208 0.891351
C4    C     C_R   0.717962 0.500612 0.500134 0.941411
C5    C     C_1   0.161554 0.499132 0.499678 -0.129013
C6    C     C_1   0.059346 0.499112 0.499876 0.055160
C7    C     C_1   0.940651 0.499503 0.500266 0.069413
C8    C     C_1   0.838457 0.500048 0.500419 -0.076550
C9    C     C_R   0.476465 0.094618 0.760859 -0.204451
C10   C     C_R   0.419203 0.021744 0.863604 0.357431
C11   C     C_R   0.356991 0.912886 0.829468 -0.175104
H1    H     H_    0.306998 0.857821 0.904387 0.191532
C12   C     C_R   0.367210 0.868160 0.700698 -0.161963
C13   C     C_R   0.440621 0.931790 0.604495 0.122621
C14   C     C_R   0.479548 0.054027 0.626815 0.009434
C15   C     C_R   0.527236 0.126477 0.515617 -0.213635
C16   C     C_R   0.573571 0.067315 0.404638 0.317526
H2    H     H_    0.590555 0.891343 0.313571 0.206640
C17   C     C_R   0.550666 0.940036 0.394012 -0.190757
C18   C     C_R   0.484897 0.873086 0.492507 -0.147647
C19   C     C_R   0.337061 0.346558 0.145350 -0.151291
H3    H     H_    0.337593 0.336396 0.252135 0.218741
C20   C     C_R   0.252601 0.274829 0.078415 0.351772
C21   C     C_R   0.254858 0.275210 0.938003 -0.246029
H4    H     H_    0.193638 0.217147 0.883414 0.198882
C22   C     C_R   0.339477 0.345517 0.866078 -0.196575
H5    H     H_    0.341378 0.332728 0.760270 0.218038
C23   C     C_R   0.420262 0.424372 0.930715 0.112693
C24   C     C_R   0.419679 0.424756 0.074974 0.140202
N1    N     N_R   0.498930 0.498800 0.142780 -0.130705
C25   C     C_R   0.575915 0.572944 0.068870 -0.120420
C26   C     C_R   0.576036 0.573539 0.925809 0.350037
N2    N     N_R   0.498900 0.498720 0.857170 -0.178732
N3    N     N_R   0.653971 0.131910 0.312055 0.246159
O9    O     O_R   0.681556 0.081280 0.200144 -0.286878
O10   O     O_R   0.717421 0.226877 0.351136 -0.372062
N4    N     N_R   0.657810 0.653926 0.853676 0.229310
O11   O     O_R   0.763928 0.618796 0.842103 -0.360452
O12   O     O_R   0.635910 0.771967 0.834087 -0.363892
H6    H     H_    0.526154 0.176687 0.789624 0.216087
N5    N     N_R   0.427557 0.055881 0.001993 0.206594
O13   O     O_R   0.497894 0.147006 0.036212 -0.368113
O14   O     O_R   0.370793 0.991217 0.096145 -0.374916
H7    H     H_    0.322912 0.780068 0.679328 0.161382
H8    H     H_    0.637688 0.632566 0.120683 0.176146
N6    N     N_R   0.167656 0.198116 0.153255 0.239654
O15   O     O_R   0.164505 0.198163 0.284337 -0.379402
O16   O     O_R   0.092065 0.127992 0.090913 -0.319061

loop_
_geom_bond_atom_site_label_1
_geom_bond_atom_site_label_2
_geom_bond_distance
_ccdc_geom_bond_type
C9    C10   1.407294 A    
O4    Zn2   1.949429 S    
C12   C13   1.413593 A    
C19   C20   1.401549 A    
N1    C25   1.362738 A    
C17   C18   1.395587 A    
N5    O13   1.300281 A    
Zn1   N2    2.024895 S    
C16   C17   1.383483 A    
C25   C26   1.419814 A    
C4    C8    1.390857 S    
C19   H3    1.060886 S    
C19   C24   1.410709 A    
Zn2   O8    1.947457 S    
C10   C11   1.397658 A    
C20   N6    1.441310 S    
C22   C23   1.405775 A    
C7    C8    1.179654 T    
C14   C15   1.420792 A    
C23   N2    1.374180 A    
N4    O12   1.300694 A    
C11   H1    1.082491 S    
C13   C14   1.391488 A    
Zn1   O7    1.949427 S    
C9    H6    1.078193 S    
C15   C16   1.409327 A    
O4    C2    1.289019 A    
C22   H5    1.065324 S    
O3    Zn1   1.947459 S    
N3    O10   1.301319 A    
O3    C2    1.288619 A    
H2    C17   1.083942 S    
O8    C4    1.288853 A    
O2    C1    1.307714 A    
C10   N5    1.438412 S    
C21   C22   1.389834 A    
C26   N4    1.425566 S    
C11   C12   1.390419 A    
C23   C24   1.432191 A    
C9    C14   1.417941 A    
O7    C4    1.288901 A    
C13   C18   1.405719 A    
C26   N2    1.373663 A    
C5    C6    1.179574 T    
C3    C18   1.430596 S    
C20   C21   1.393921 A    
N6    O15   1.301789 A    
C12   H7    1.082969 S    
Zn2   O6    2.009398 S    
C21   H4    1.082714 S    
C24   N1    1.380104 A    
Zn1   O5    1.977114 S    
O5    C3    1.292619 A    
C25   H8    1.082293 S    
Zn2   N1    2.026450 S    
N5    O14   1.301687 A    
C2    C5    1.390528 S    
O1    Zn1   2.009399 S    
C16   N3    1.443973 S    
C1    C15   1.448089 S    
O2    Zn2   1.977114 S    
N3    O9    1.301449 A    
N4    O11   1.300583 A    
N6    O16   1.301642 A    
C6    C7    1.370039 S    
O1    C1    1.283112 A    
O6    C3    1.290380 A    
