data_mof_unit_55912.cif
_audit_creation_date              2012-12-11T15:52:12-0500
_audit_creation_method            fapswitch 2.2
_symmetry_space_group_name_H-M    P1
_symmetry_Int_Tables_number       1
_space_group_crystal_system       triclinic
_cell_length_a                    11.176418
_cell_length_b                    11.181933
_cell_length_c                    18.764824
_cell_angle_alpha                 89.703442
_cell_angle_beta                  90.204806
_cell_angle_gamma                 119.845915
_cell_volume                      2034.04597371

loop_
_atom_site_label
_atom_site_type_symbol
_atom_type_description
_atom_site_fract_x
_atom_site_fract_y
_atom_site_fract_z
_atom_type_partial_charge
C1    C     C_R   0.520502 0.457702 0.147396 0.546883
C2    C     C_R   0.542635 0.060792 0.148072 0.538658
C3    C     C_R   0.936785 0.480295 0.147620 0.548808
C4    C     C_R   0.450873 0.522686 0.854962 0.563318
C5    C     C_R   0.071368 0.547359 0.854909 0.559390
C6    C     C_R   0.453494 0.875428 0.859745 0.555518
C7    C     C_3   0.737165 0.993228 0.539668 -0.061344
C8    C     C_3   0.994053 0.746437 0.538015 -0.067814
C9    C     C_3   0.271169 0.273695 0.539716 -0.044989
C10   C     C_3   0.019890 0.758699 0.457834 -0.068797
C11   C     C_3   0.735526 0.989722 0.459578 -0.058420
C12   C     C_3   0.271235 0.271723 0.459571 -0.046098
C13   C     C_R   0.545505 0.422056 0.361426 0.546105
C14   C     C_R   0.542261 0.056211 0.350847 0.540088
C15   C     C_R   0.930572 0.478902 0.355649 0.528710
C16   C     C_R   0.460449 0.513855 0.650150 0.557026
C17   C     C_R   0.054227 0.541782 0.649305 0.557277
C18   C     C_R   0.476400 0.925456 0.643057 0.549365
C19   C     C_R   0.456213 0.898800 0.936610 0.051849
C20   C     C_R   0.042179 0.525690 0.930531 0.046761
C21   C     C_R   0.468471 0.510800 0.930536 0.045133
C22   C     C_R   0.005243 0.506395 0.079152 0.021139
C23   C     C_R   0.496911 0.982647 0.081663 0.029624
C24   C     C_R   0.497364 0.505880 0.079143 0.004860
C25   C     C_R   0.372535 0.942304 0.970491 -0.011884
C26   C     C_R   0.031105 0.411476 0.967961 -0.041625
C27   C     C_R   0.593031 0.596556 0.963127 -0.050897
C28   C     C_R   0.999557 0.400062 0.039115 -0.005713
C29   C     C_R   0.404937 0.994992 0.037532 0.017115
C30   C     C_R   0.607889 0.599332 0.036226 -0.018978
C31   C     C_R   0.558620 0.909275 0.053943 -0.119551
C32   C     C_R   0.049876 0.632000 0.044564 -0.157320
C33   C     C_R   0.366004 0.436396 0.048016 -0.145387
C34   C     C_R   0.060957 0.639655 0.970883 -0.159969
C35   C     C_R   0.543693 0.873776 0.981101 -0.118032
C36   C     C_R   0.351910 0.436860 0.974197 -0.144578
C37   C     C_3   0.295650 0.020478 0.957820 -0.090225
C38   C     C_3   0.947450 0.256087 0.960383 -0.077893
C39   C     C_3   0.733733 0.622234 0.947159 -0.083799
C40   C     C_3   0.903162 0.250036 0.038665 -0.053875
C41   C     C_3   0.340321 0.081806 0.033301 -0.079514
C42   C     C_3   0.754225 0.630502 0.028418 -0.066286
C43   C     C_R   0.491540 0.959050 0.567863 0.057566
C44   C     C_R   0.984700 0.516734 0.580190 0.028071
C45   C     C_R   0.493004 0.479494 0.581045 0.048745
C46   C     C_R   0.966170 0.495615 0.430524 0.014396
C47   C     C_R   0.519364 0.996703 0.421136 0.057746
C48   C     C_R   0.530846 0.446907 0.436208 0.064131
C49   C     C_R   0.623885 0.029985 0.537405 -0.075158
C50   C     C_R   0.029072 0.633074 0.536435 -0.052528
C51   C     C_R   0.382725 0.420335 0.534372 0.007646
C52   C     C_R   0.028211 0.626243 0.463311 -0.066298
C53   C     C_R   0.637059 0.044802 0.463967 -0.041716
C54   C     C_R   0.400087 0.411185 0.462211 -0.019291
C55   C     C_R   0.391799 0.901678 0.448569 -0.088473
C56   C     C_R   0.900975 0.378019 0.474804 -0.105890
C57   C     C_R   0.639104 0.483453 0.485530 -0.078381
C58   C     C_R   0.905724 0.388213 0.549429 -0.103925
C59   C     C_R   0.378609 0.882659 0.522408 -0.044766
C60   C     C_R   0.621237 0.502369 0.558139 -0.111678
Cr1   Cr    Cr6+3 0.769160 0.541570 0.250690 1.097015
Cr2   Cr    Cr6+3 0.458430 0.227590 0.250690 1.086712
Cr3   Cr    Cr6+3 0.772410 0.230840 0.250690 1.086655
Cr4   Cr    Cr6+3 0.541570 0.769160 0.749310 1.080047
Cr5   Cr    Cr6+3 0.227590 0.458430 0.749310 1.081980
Cr6   Cr    Cr6+3 0.230840 0.772410 0.749310 1.080108
H1    H     H_    0.624069 0.886642 0.086887 0.198986
H2    H     H_    0.057001 0.718084 0.072630 0.221731
H3    H     H_    0.276265 0.372718 0.079762 0.228231
H4    H     H_    0.078351 0.733186 0.945430 0.157847
H5    H     H_    0.606114 0.834547 0.958807 0.153568
H6    H     H_    0.250660 0.375920 0.951250 0.153890
H7    H     H_    0.182600 0.953228 0.953646 0.130864
H8    H     H_    0.013552 0.208849 0.952469 0.122176
H9    H     H_    0.792944 0.718831 0.915952 0.182376
H10   H     H_    0.795190 0.227182 0.046311 0.164617
H11   H     H_    0.418764 0.193401 0.034843 0.153815
H12   H     H_    0.771234 0.549457 0.052562 0.145029
H13   H     H_    0.305473 0.846336 0.413121 0.098531
H14   H     H_    0.841842 0.278986 0.451139 0.162271
H15   H     H_    0.736332 0.497250 0.467649 0.116382
H16   H     H_    0.859972 0.296516 0.582338 0.127390
H17   H     H_    0.282434 0.805710 0.544510 0.141079
H18   H     H_    0.703619 0.530841 0.596202 0.091987
H19   H     H_    0.831866 0.079165 0.563289 0.143667
H20   H     H_    0.885268 0.706359 0.551762 0.141201
H21   H     H_    0.311945 0.213027 0.567096 0.176705
H22   H     H_    0.121612 0.846534 0.444840 0.152939
H23   H     H_    0.680842 0.885344 0.435186 0.178567
H24   H     H_    0.187765 0.281985 0.433002 0.165632
O1    O     O_R   0.911480 0.572650 0.170990 -0.479657
O2    O     O_R   0.427350 0.338830 0.170990 -0.477047
O3    O     O_R   0.661170 0.088520 0.170990 -0.505193
O4    O     O_R   0.572650 0.911480 0.829010 -0.481652
O5    O     O_R   0.338830 0.427350 0.829010 -0.514274
O6    O     O_R   0.088520 0.661170 0.829010 -0.508200
O7    O     O_R   0.640340 0.528970 0.175680 -0.485424
O8    O     O_R   0.471030 0.111370 0.175680 -0.481779
O9    O     O_R   0.888630 0.359660 0.175680 -0.474171
O10   O     O_R   0.528970 0.640340 0.824320 -0.517081
O11   O     O_R   0.111370 0.471030 0.824320 -0.478778
O12   O     O_R   0.359660 0.888630 0.824320 -0.486157
O13   O     O_R   0.909980 0.572450 0.331530 -0.491764
O14   O     O_R   0.427550 0.337530 0.331530 -0.496124
O15   O     O_R   0.662470 0.090020 0.331530 -0.480968
O16   O     O_R   0.572450 0.909980 0.668470 -0.500321
O17   O     O_R   0.337530 0.427550 0.668470 -0.506384
O18   O     O_R   0.090020 0.662470 0.668470 -0.491682
O19   O     O_R   0.638950 0.528780 0.324500 -0.482167
O20   O     O_R   0.471220 0.110170 0.324500 -0.496255
O21   O     O_R   0.889830 0.361050 0.324500 -0.470280
O22   O     O_R   0.528780 0.638950 0.675500 -0.469347
O23   O     O_R   0.110170 0.471220 0.675500 -0.462541
O24   O     O_R   0.361050 0.889830 0.675500 -0.488762
O25   O     O_3   0.666667 0.333333 0.250560 -0.321526
O26   O     O_3   0.333333 0.666667 0.749440 -0.323654
C61   C     C_2   0.351867 0.122333 0.897293 0.600689
O27   O     O_2   0.475059 0.204899 0.893035 -0.444722
O28   O     O_R   0.261679 0.117860 0.844267 -0.674677
H25   H     H_    0.311377 0.184557 0.803767 0.353379
C62   C     C_2   0.835105 0.208756 0.905011 0.615615
O29   O     O_2   0.715077 0.163441 0.922402 -0.454947
O30   O     O_R   0.869253 0.214206 0.833075 -0.671608
H26   H     H_    0.786256 0.181243 0.800504 0.345218
C63   C     C_2   0.733239 0.500864 0.912541 0.587435
O31   O     O_2   0.719378 0.403419 0.948484 -0.485403
O32   O     O_R   0.748486 0.500602 0.838689 -0.671341
H27   H     H_    0.746782 0.414099 0.821252 0.355224
C64   C     C_2   0.946014 0.180016 0.093382 0.587667
O33   O     O_2   0.041527 0.248329 0.134163 -0.508780
O34   O     O_R   0.863045 0.039641 0.105345 -0.688152
H28   H     H_    0.885569 0.009953 0.152240 0.362594
C65   C     C_2   0.231314 0.037610 0.090316 0.564007
O35   O     O_2   0.193195 0.930977 0.124170 -0.504653
O36   O     O_R   0.187594 0.127952 0.111411 -0.678530
H29   H     H_    0.133067 0.096012 0.157422 0.374332
C66   C     C_2   0.854730 0.773013 0.053919 0.566651
O37   O     O_2   0.875470 0.793873 0.117764 -0.467575
O38   O     O_R   0.927150 0.879531 0.004783 -0.724797
H30   H     H_    0.993852 0.970243 0.027462 0.375377
C67   C     C_2   0.707208 0.857886 0.569278 0.648675
O39   O     O_2   0.608517 0.752811 0.547039 -0.518811
O40   O     O_R   0.793599 0.854202 0.622127 -0.636317
H31   H     H_    0.767957 0.757706 0.637611 0.342492
C68   C     C_2   0.085412 0.870135 0.583055 0.639028
O41   O     O_2   0.185847 0.969173 0.557577 -0.528255
O42   O     O_R   0.050674 0.873377 0.654222 -0.616837
H32   H     H_    0.120958 0.959791 0.679802 0.363960
C69   C     C_2   0.142486 0.253041 0.572549 0.650236
O43   O     O_2   0.090040 0.316524 0.548866 -0.546777
O44   O     O_R   0.085989 0.165962 0.631465 -0.647344
H33   H     H_    0.003079 0.167872 0.651792 0.339683
C70   C     C_2   0.913034 0.770027 0.413141 0.638233
O45   O     O_2   0.804854 0.750316 0.439016 -0.532028
O46   O     O_R   0.946258 0.819971 0.343307 -0.626789
H34   H     H_    0.869937 0.829272 0.319185 0.346026
C71   C     C_2   0.878649 0.070069 0.428676 0.570065
O47   O     O_2   0.972380 0.064233 0.458957 -0.487284
O48   O     O_R   0.902107 0.132619 0.361849 -0.642380
H35   H     H_    0.001568 0.174807 0.345857 0.345342
C72   C     C_2   0.284959 0.155241 0.431211 0.641482
O49   O     O_2   0.375139 0.135241 0.454599 -0.537667
O50   O     O_R   0.199678 0.076129 0.375379 -0.638577
H36   H     H_    0.223256 0.005429 0.357057 0.345197

loop_
_geom_bond_atom_site_label_1
_geom_bond_atom_site_label_2
_ccdc_geom_bond_type
C40   C64   S    
C45   C60   A    
C71   O47   D    
Cr4   O26   S    
C55   C59   A    
C61   O27   D    
C48   C57   A    
Cr6   O12   S    
C44   C58   A    
O42   H32   S    
C9    C51   S    
Cr5   O11   S    
Cr1   O19   S    
C18   O24   A    
C41   C65   S    
C68   O41   D    
C18   C43   S    
C17   O23   A    
O36   H29   S    
C5    C20   S    
C7    H19   S    
C7    C11   S    
C6    C19   S    
C66   O38   S    
C10   H22   S    
C72   O50   S    
Cr6   O26   S    
C39   C63   S    
C23   C29   A    
C12   H24   S    
Cr1   O13   S    
Cr1   O1    S    
C59   H17   S    
C61   O28   S    
C41   H11   S    
Cr4   O22   S    
C28   C40   S    
C36   H6    S    
O40   H31   S    
C46   C52   A    
C33   C36   A    
C3    O1    A    
C13   O19   A    
C16   O17   A    
C25   C37   S    
C12   C72   S    
Cr2   O8    S    
C14   O15   A    
C8    C68   S    
C27   C39   S    
C6    O4    A    
Cr2   O2    S    
Cr1   O25   S    
Cr3   O9    S    
O44   H33   S    
C39   H9    S    
C70   O46   S    
C34   H4    S    
C8    H20   S    
C11   C53   S    
C43   C59   A    
C47   C53   A    
Cr3   O25   S    
C21   C27   A    
C35   H5    S    
C71   O48   S    
C22   C28   A    
C42   C66   S    
C37   C41   S    
C69   O44   S    
C10   C70   S    
C68   O42   S    
C72   O49   D    
C39   C42   S    
Cr2   O14   S    
C25   C29   A    
C5    O11   A    
O46   H34   S    
Cr6   O6    S    
C38   C62   S    
C15   O21   A    
O30   H26   S    
C7    C49   S    
C17   O18   A    
C1    O7    A    
C21   C36   A    
C27   C30   A    
C43   C49   A    
C57   C60   A    
C40   H10   S    
C67   O40   S    
C23   C31   A    
C48   C54   A    
C31   H1    S    
C18   O16   A    
C4    O5    A    
C55   H13   S    
C10   C52   S    
C11   H23   S    
C50   C52   A    
O48   H35   S    
Cr2   O20   S    
C16   O22   A    
Cr5   O5    S    
O28   H25   S    
C9    C69   S    
Cr1   O7    S    
C13   O14   A    
C62   O29   D    
C22   C32   A    
C42   H12   S    
C1    O2    A    
C4    O10   A    
C63   O31   D    
Cr5   O26   S    
C31   C35   A    
Cr3   O15   S    
O34   H28   S    
C8    C50   S    
C7    C67   S    
C5    O6    A    
C11   C71   S    
C47   C55   A    
C64   O33   D    
C38   H8    S    
C44   C50   A    
C14   O20   A    
C37   H7    S    
Cr6   O24   S    
C29   C41   S    
Cr5   O23   S    
C2    O3    A    
C26   C38   S    
Cr6   O18   S    
C16   C45   S    
C13   C48   S    
O38   H30   S    
Cr4   O16   S    
C14   C47   S    
C33   H3    S    
C66   O37   D    
Cr3   O3    S    
C26   C28   A    
C24   C33   A    
C56   H14   S    
C32   H2    S    
C51   C54   A    
C58   H16   S    
C17   C44   S    
Cr4   O4    S    
Cr2   O25   S    
C19   C35   A    
C69   O43   D    
C9    H21   S    
C38   C40   S    
C4    C21   S    
C60   H18   S    
C65   O35   D    
C20   C26   A    
C49   C53   A    
C56   C58   A    
C57   H15   S    
C6    O12   A    
Cr3   O21   S    
C19   C25   A    
C9    C12   S    
C24   C30   A    
C62   O30   S    
O50   H36   S    
C20   C34   A    
C3    O9    A    
Cr4   O10   S    
C37   C61   S    
C2    O8    A    
C1    C24   S    
C8    C10   S    
C46   C56   A    
C2    C23   S    
C63   O32   S    
C65   O36   S    
C45   C51   A    
C30   C42   S    
C3    C22   S    
C15   C46   S    
C15   O13   A    
C70   O45   D    
C67   O39   D    
Cr5   O17   S    
C12   C54   S    
O32   H27   S    
C32   C34   A    
C64   O34   S    
