data_mof_unit_36196.cif
_audit_creation_date              2012-12-11T15:25:58-0500
_audit_creation_method            fapswitch 2.2
_symmetry_space_group_name_H-M    P1
_symmetry_Int_Tables_number       1
_space_group_crystal_system       triclinic
_cell_length_a                    24.859982
_cell_length_b                    17.337283
_cell_length_c                    15.752405
_cell_angle_alpha                 90.003525
_cell_angle_beta                  50.452871
_cell_angle_gamma                 90.002829
_cell_volume                      5235.28159017

loop_
_atom_site_label
_atom_site_type_symbol
_atom_type_description
_atom_site_fract_x
_atom_site_fract_y
_atom_site_fract_z
_atom_type_partial_charge
C1    C     C_R   0.331696 0.095825 0.806931 0.037719
C2    C     C_2   0.360473 0.746633 0.853346 -0.209594
C3    C     C_1   0.589013 0.915457 0.702757 0.012346
C4    C     C_1   0.073303 0.643190 0.702456 0.021072
C5    C     C_1   0.910985 0.415447 0.297244 0.012445
C6    C     C_1   0.926705 0.643151 0.297517 0.020975
C7    C     C_1   0.089013 0.415461 0.702757 0.012339
C8    C     C_2   0.301152 0.140409 0.985506 -0.201259
C9    C     C_2   0.639525 0.746628 0.146651 -0.209607
C10   C     C_2   0.198844 0.640409 0.014500 -0.201264
C11   C     C_2   0.860473 0.246633 0.853348 -0.209593
C12   C     C_2   0.801156 0.640412 0.985505 -0.201260
C13   C     C_2   0.139523 0.246627 0.146648 -0.209603
C14   C     C_2   0.761297 0.167497 0.975653 -0.085921
C15   C     C_2   0.311012 0.702449 0.868103 -0.106780
C16   C     C_2   0.238702 0.167495 0.024347 -0.085929
C17   C     C_R   0.648760 0.858278 0.241399 0.069897
C18   C     C_2   0.688983 0.702446 0.131900 -0.106767
C19   C     C_2   0.261298 0.667494 0.975650 -0.085925
C20   C     C_2   0.811014 0.202447 0.868103 -0.106778
C21   C     C_2   0.738703 0.667493 0.024351 -0.085928
C22   C     C_2   0.188976 0.202439 0.131901 -0.106764
C23   C     C_R   0.594935 0.136645 0.593468 0.046932
C24   C     C_R   0.386725 0.899194 0.406252 0.037458
C25   C     C_R   0.405030 0.136606 0.406536 0.046966
C26   C     C_R   0.613281 0.899210 0.593742 0.037540
C27   C     C_R   0.094934 0.636646 0.593467 0.046925
C28   C     C_R   0.668304 0.095827 0.193070 0.037730
C29   C     C_R   0.886723 0.399198 0.406253 0.037477
C30   C     C_R   0.905028 0.636602 0.406534 0.046964
C31   C     C_R   0.113281 0.399212 0.593743 0.037555
C32   C     C_R   0.667620 0.139517 0.410451 0.026970
C33   C     C_R   0.311013 0.905289 0.587260 0.007816
C34   C     C_R   0.332341 0.139478 0.589553 0.026915
C35   C     C_R   0.688990 0.905320 0.412737 0.007737
C36   C     C_R   0.167617 0.639521 0.410450 0.026987
C37   C     C_R   0.811011 0.405299 0.587260 0.007813
C38   C     C_R   0.832341 0.639478 0.589550 0.026923
C39   C     C_R   0.351237 0.858279 0.758604 0.069868
C40   C     C_R   0.188991 0.405329 0.412738 0.007759
C41   C     C_R   0.579235 0.102400 0.194490 -0.146481
C42   C     C_R   0.443299 0.857651 0.753228 -0.163867
C43   C     C_R   0.420766 0.102404 0.805510 -0.146504
C44   C     C_R   0.556701 0.857649 0.246766 -0.163893
C45   C     C_R   0.079234 0.602403 0.194492 -0.146489
C46   C     C_R   0.943299 0.357652 0.753230 -0.163868
C47   C     C_R   0.920768 0.602406 0.805508 -0.146513
C48   C     C_R   0.056702 0.357651 0.246761 -0.163895
C49   C     C_R   0.350537 0.118036 0.868619 0.091533
C50   C     C_R   0.831697 0.595823 0.806933 0.037714
C51   C     C_R   0.613896 0.815356 0.215224 0.086668
C52   C     C_R   0.649464 0.118035 0.131383 0.091523
C53   C     C_R   0.386102 0.815358 0.784772 0.086662
C54   C     C_R   0.850538 0.618036 0.868619 0.091540
C55   C     C_R   0.113895 0.315355 0.215223 0.086653
C56   C     C_R   0.149463 0.618036 0.131385 0.091528
C57   C     C_R   0.886102 0.315358 0.784773 0.086655
C58   C     C_R   0.648147 0.177401 0.502737 -0.049554
C59   C     C_R   0.318540 0.889487 0.495309 -0.030758
C60   C     C_R   0.351788 0.177335 0.497271 -0.049499
C61   C     C_R   0.148756 0.358274 0.241407 0.069938
C62   C     C_R   0.681468 0.889514 0.504679 -0.030719
C63   C     C_R   0.148143 0.677406 0.502737 -0.049569
C64   C     C_R   0.818538 0.389496 0.495311 -0.030756
C65   C     C_R   0.851787 0.677332 0.497268 -0.049502
C66   C     C_R   0.181469 0.389521 0.504680 -0.030739
C67   C     C_R   0.299550 0.305417 0.546421 -0.167757
C68   C     C_R   0.736318 0.765680 0.455999 -0.183201
C69   C     C_R   0.700256 0.305545 0.453883 -0.167842
C70   C     C_R   0.263847 0.765582 0.543640 -0.183233
C71   C     C_R   0.799563 0.805421 0.546393 -0.167758
C72   C     C_R   0.168304 0.595826 0.193070 0.037729
C73   C     C_R   0.236338 0.265697 0.455970 -0.183196
C74   C     C_R   0.200221 0.805563 0.453944 -0.167868
C75   C     C_R   0.763809 0.265607 0.543710 -0.183217
C76   C     C_R   0.757238 0.858605 0.548668 -0.167977
C77   C     C_R   0.277629 0.212886 0.454711 -0.163184
C78   C     C_R   0.242577 0.858718 0.451653 -0.167919
C79   C     C_R   0.722482 0.212826 0.544999 -0.163120
C80   C     C_R   0.257225 0.358603 0.548695 -0.167986
C81   C     C_R   0.777611 0.712872 0.454735 -0.163180
C82   C     C_R   0.742608 0.358704 0.451594 -0.167929
C83   C     C_R   0.851238 0.358277 0.758601 0.069886
C84   C     C_R   0.222515 0.712805 0.544930 -0.163108
C85   C     C_R   0.726691 0.838190 0.502312 0.151627
C86   C     C_R   0.309911 0.233455 0.498094 0.170121
C87   C     C_R   0.273318 0.838175 0.497649 0.151611
C88   C     C_R   0.690040 0.233499 0.501919 0.170135
C89   C     C_R   0.226695 0.338197 0.502311 0.151614
C90   C     C_R   0.809909 0.733449 0.498092 0.170124
C91   C     C_R   0.773313 0.338184 0.497657 0.151608
C92   C     C_R   0.190038 0.733499 0.501916 0.170140
C93   C     C_1   0.266545 0.055972 0.858075 -0.014068
C94   C     C_2   0.698846 0.140406 0.014498 -0.201261
C95   C     C_1   0.721634 0.849529 0.187754 0.010876
C96   C     C_1   0.733457 0.055980 0.141922 -0.014087
C97   C     C_1   0.278359 0.849533 0.812269 0.010930
C98   C     C_1   0.766547 0.555967 0.858078 -0.014072
C99   C     C_1   0.221617 0.349494 0.187826 0.010851
C100  C     C_1   0.233455 0.555973 0.141920 -0.014091
C101  C     C_1   0.778366 0.349519 0.812237 0.010921
C102  C     C_1   0.573294 0.143196 0.702462 0.021057
C103  C     C_1   0.410986 0.915442 0.297243 0.012466
C104  C     C_1   0.426714 0.143164 0.297516 0.020973
H1    H     H_    0.553420 0.094253 0.160497 0.127968
H2    H     H_    0.710877 0.749796 0.422598 0.124905
H3    H     H_    0.675606 0.320064 0.418853 0.123544
H4    H     H_    0.289423 0.749623 0.576784 0.124915
H5    H     H_    0.824094 0.819867 0.581644 0.123528
H6    H     H_    0.210910 0.249821 0.422546 0.124918
H7    H     H_    0.175543 0.820097 0.418968 0.123552
H8    H     H_    0.789360 0.249661 0.576903 0.124915
H9    H     H_    0.748401 0.914806 0.585636 0.124655
H10   H     H_    0.283759 0.155891 0.421284 0.124378
H11   H     H_    0.251289 0.914991 0.414954 0.124643
H12   H     H_    0.479516 0.841395 0.765884 0.126791
H13   H     H_    0.716439 0.155777 0.578219 0.124360
H14   H     H_    0.248375 0.414795 0.585684 0.124660
H15   H     H_    0.783733 0.655870 0.421325 0.124374
H16   H     H_    0.751345 0.414963 0.414843 0.124645
H17   H     H_    0.216493 0.655744 0.578105 0.124356
H18   H     H_    0.299579 0.704280 0.812121 0.137803
H19   H     H_    0.772896 0.174672 0.030956 0.132798
H20   H     H_    0.700411 0.704280 0.187888 0.137793
H21   H     H_    0.227107 0.174669 0.969040 0.132794
H22   H     H_    0.799585 0.204272 0.812116 0.137805
H23   H     H_    0.446588 0.094271 0.839495 0.127962
H24   H     H_    0.272902 0.674661 0.030947 0.132802
H25   H     H_    0.200398 0.204261 0.187898 0.137802
H26   H     H_    0.727102 0.674657 0.969050 0.132797
H27   H     H_    0.373727 0.740699 0.906879 0.136769
H28   H     H_    0.683067 0.140149 0.964125 0.140245
H29   H     H_    0.626276 0.740691 0.093112 0.136767
H30   H     H_    0.316928 0.140155 0.035883 0.140244
H31   H     H_    0.873724 0.240703 0.906886 0.136769
H32   H     H_    0.183061 0.640161 0.964132 0.140247
H33   H     H_    0.126280 0.240699 0.093100 0.136766
H34   H     H_    0.520487 0.841392 0.234102 0.126782
H35   H     H_    0.816936 0.640167 0.035877 0.140239
H36   H     H_    0.725755 0.177502 0.253456 0.105578
H37   H     H_    0.758631 0.097841 0.272721 0.120724
H38   H     H_    0.257021 0.963432 0.729987 0.124380
H39   H     H_    0.209884 0.897371 0.722154 0.127158
H40   H     H_    0.274239 0.177458 0.746550 0.105548
H41   H     H_    0.241342 0.097799 0.727297 0.120739
H42   H     H_    0.742963 0.963466 0.270020 0.124388
H43   H     H_    0.790120 0.897443 0.277848 0.127150
H44   H     H_    0.225750 0.677507 0.253457 0.105582
H45   H     H_    0.053417 0.594261 0.160501 0.127970
H46   H     H_    0.258627 0.597845 0.272717 0.120724
H47   H     H_    0.757023 0.463443 0.729984 0.124383
H48   H     H_    0.709880 0.397411 0.722145 0.127156
H49   H     H_    0.774261 0.677463 0.746539 0.105554
H50   H     H_    0.741338 0.597822 0.727312 0.120736
H51   H     H_    0.242967 0.463457 0.270009 0.124393
H52   H     H_    0.290132 0.397487 0.277879 0.127151
H53   H     H_    0.979515 0.341397 0.765888 0.126792
H54   H     H_    0.946593 0.594278 0.839490 0.127960
H55   H     H_    0.020488 0.341397 0.234094 0.126786
H56   H     H_    0.324069 0.319855 0.581692 0.123529
N1    N     N_R   0.388930 0.078160 0.705470 -0.065808
N2    N     N_R   0.419500 0.922160 0.443350 -0.065559
N3    N     N_R   0.419500 0.077840 0.443350 -0.065797
N4    N     N_R   0.580500 0.922160 0.556650 -0.065556
N5    N     N_R   0.080500 0.577840 0.556650 -0.065802
N6    N     N_R   0.919500 0.422160 0.443350 -0.065559
N7    N     N_R   0.919500 0.577840 0.443350 -0.065796
N8    N     N_R   0.080500 0.422160 0.556650 -0.065557
N9    N     N_R   0.626210 0.077590 0.443410 -0.065901
N10   N     N_R   0.373790 0.922410 0.556590 -0.066281
N11   N     N_R   0.373790 0.077590 0.556590 -0.065892
N12   N     N_R   0.611070 0.921840 0.294530 -0.067539
N13   N     N_R   0.626210 0.922410 0.443410 -0.066275
N14   N     N_R   0.126210 0.577590 0.443410 -0.065899
N15   N     N_R   0.873790 0.422410 0.556590 -0.066279
N16   N     N_R   0.873790 0.577590 0.556590 -0.065891
N17   N     N_R   0.126210 0.422410 0.443410 -0.066273
N18   N     N_R   0.554800 0.077270 0.294580 -0.052243
N19   N     N_R   0.445200 0.922730 0.705420 -0.050108
N20   N     N_R   0.445200 0.077270 0.705420 -0.052244
N21   N     N_R   0.554800 0.922730 0.294580 -0.050110
N22   N     N_R   0.054800 0.577270 0.294580 -0.052242
N23   N     N_R   0.611070 0.078160 0.294530 -0.065808
N24   N     N_R   0.945200 0.422730 0.705420 -0.050109
N25   N     N_R   0.945200 0.577270 0.705420 -0.052243
N26   N     N_R   0.054800 0.422730 0.294580 -0.050111
N27   N     N_1   0.213419 0.025173 0.903064 -0.088924
N28   N     N_1   0.780563 0.840679 0.141241 -0.091364
N29   N     N_1   0.786584 0.025185 0.096931 -0.088922
N30   N     N_1   0.219429 0.840686 0.858802 -0.091342
N31   N     N_1   0.713421 0.525166 0.903068 -0.088927
N32   N     N_1   0.280534 0.340617 0.141367 -0.091388
N33   N     N_1   0.286580 0.525173 0.096927 -0.088928
N34   N     N_R   0.388930 0.921840 0.705470 -0.067537
N35   N     N_1   0.719440 0.340661 0.858745 -0.091353
N36   N     N_1   0.557493 0.149094 0.788972 -0.089110
N37   N     N_1   0.430407 0.928665 0.209714 -0.086944
N38   N     N_1   0.442546 0.149070 0.210987 -0.089123
N39   N     N_1   0.569586 0.928678 0.790291 -0.086954
N40   N     N_1   0.057510 0.649084 0.788964 -0.089107
N41   N     N_1   0.930407 0.428670 0.209714 -0.086946
N42   N     N_1   0.942533 0.649049 0.210990 -0.089125
N43   N     N_1   0.069585 0.428683 0.790292 -0.086954
N44   N     N_3   0.733550 0.150823 0.304124 -0.210292
N45   N     N_R   0.888930 0.578160 0.705470 -0.065808
N46   N     N_3   0.248044 0.940148 0.679464 -0.212906
N47   N     N_3   0.266424 0.150784 0.695898 -0.210314
N48   N     N_3   0.751948 0.940200 0.320545 -0.212901
N49   N     N_3   0.233547 0.650827 0.304123 -0.210288
N50   N     N_3   0.748049 0.440172 0.679457 -0.212911
N51   N     N_3   0.766432 0.650799 0.695902 -0.210320
N52   N     N_3   0.251943 0.440225 0.320557 -0.212910
N53   N     N_R   0.111070 0.421840 0.294530 -0.067543
N54   N     N_R   0.111070 0.578160 0.294530 -0.065808
N55   N     N_R   0.888930 0.421840 0.705470 -0.067538
N56   N     N_R   0.580500 0.077840 0.556650 -0.065801
Ni1   Ni    Ni4+2 0.382710 0.000000 0.629850 0.203583
Ni2   Ni    Ni4+2 0.617290 0.000000 0.370150 0.203581
Ni3   Ni    Ni4+2 0.882710 0.500000 0.629850 0.203585
Ni4   Ni    Ni4+2 0.117290 0.500000 0.370150 0.203583
Ni5   Ni    Ni4+2 0.513020 0.000000 0.629850 0.216899
Ni6   Ni    Ni4+2 0.486980 0.000000 0.370150 0.216895
Ni7   Ni    Ni4+2 0.013020 0.500000 0.629850 0.216899
Ni8   Ni    Ni4+2 0.986980 0.500000 0.370150 0.216897

loop_
_geom_bond_atom_site_label_1
_geom_bond_atom_site_label_2
_ccdc_geom_bond_type
C78   C87   A    
C29   N6    A    
C23   C58   A    
C72   N54   A    
C32   N9    A    
C36   N14   A    
H47   N50   S    
N1    Ni1   S    
C48   C55   A    
C18   C21   S    
C28   C52   A    
C48   N26   A    
C78   H11   S    
C9    C51   S    
H37   N44   S    
C82   H16   S    
C17   C51   A    
C69   H3    S    
C17   N12   A    
C73   H6    S    
C100  N33   T    
C15   C19   S    
N6    N15   A    
C50   C54   A    
C41   H1    S    
N19   Ni5   S    
C68   C81   A    
N24   Ni7   S    
H51   N52   S    
C15   H18   S    
C28   N23   A    
C10   H32   S    
C30   N7    A    
C6    N42   T    
N55   Ni3   S    
H36   N44   S    
C42   C53   A    
C5    N41   T    
C71   C76   A    
C39   C97   S    
H39   N46   S    
H52   N52   S    
C81   H15   S    
C70   C87   A    
C74   C92   A    
N8    N17   A    
N26   N53   A    
C71   H5    S    
C19   H24   S    
C103  N37   T    
C46   N24   A    
C80   C89   A    
N56   Ni5   S    
C7    N43   T    
C69   C82   A    
N25   N45   A    
H48   N50   S    
N12   N21   A    
N2    Ni6   S    
C45   C56   A    
C56   C72   A    
N16   Ni3   S    
C63   C92   S    
C95   N28   T    
C3    N39   T    
C57   C83   A    
C52   C94   S    
C67   H56   S    
C17   C95   S    
C25   C60   A    
C32   C58   A    
C38   N51   S    
N34   Ni1   S    
C36   C63   A    
C70   C84   A    
C16   H21   S    
C42   N19   A    
C41   C52   A    
N18   N23   A    
C75   C91   A    
C36   N49   S    
H40   N47   S    
N9    Ni2   S    
C33   C59   A    
C29   C64   A    
C1    N1    A    
C8    C16   D    
C40   C66   A    
C34   C60   A    
C68   C85   A    
C61   C99   S    
C61   N53   A    
C68   H2    S    
C33   N10   A    
N4    Ni5   S    
C79   C88   A    
C39   N34   A    
N53   Ni4   S    
C45   N22   A    
C76   H9    S    
C66   C89   S    
C5    C29   S    
C23   N56   A    
C65   C90   S    
C43   N20   A    
C62   C85   S    
C80   H14   S    
C33   N46   S    
C50   C98   S    
C7    C31   S    
C8    H30   S    
C35   N13   A    
H46   N49   S    
C14   C20   S    
C41   N18   A    
N20   Ni5   S    
C23   C102  S    
H42   N48   S    
C10   C56   S    
N6    Ni8   S    
C74   H7    S    
H49   N51   S    
C60   C86   S    
C43   C49   A    
N24   N55   A    
N3    N11   A    
N5    N14   A    
C46   H53   S    
C11   C20   D    
C94   H28   S    
C82   C91   A    
C16   C22   S    
C37   C64   A    
C13   H33   S    
C96   N29   T    
C32   N44   S    
C20   H22   S    
H50   N51   S    
N13   Ni2   S    
C11   H31   S    
C37   N15   A    
C35   N48   S    
C38   N16   A    
N2    N10   A    
C38   C65   A    
C10   C19   D    
C99   N32   T    
C2    H27   S    
C75   H8    S    
C12   H35   S    
N4    N13   A    
N1    N20   A    
C37   N50   S    
C2    C15   D    
N11   Ni1   S    
C69   C88   A    
C27   C63   A    
C27   N5    A    
C47   C54   A    
C81   C90   A    
C93   N27   T    
C44   C51   A    
C42   H12   S    
C97   N30   T    
C6    C30   S    
C77   C86   A    
N23   Ni2   S    
C22   H25   S    
C74   C78   A    
C47   N25   A    
C55   C61   A    
N8    Ni7   S    
C43   H23   S    
C77   H10   S    
C21   H26   S    
H41   N47   S    
C4    C27   S    
N12   Ni2   S    
C48   H55   S    
N5    Ni7   S    
C72   C100  S    
N3    Ni6   S    
N9    N56   A    
N26   Ni8   S    
N45   Ni3   S    
C67   C86   A    
C44   H34   S    
C14   H19   S    
C83   C101  S    
C8    C49   S    
N21   Ni6   S    
C31   C66   A    
N15   Ni3   S    
C3    C26   S    
C24   N2    A    
C67   C80   A    
N19   N34   A    
C98   N31   T    
C2    C53   S    
C58   C88   S    
C83   N55   A    
C25   C104  S    
C34   N47   S    
C40   N52   S    
N22   Ni8   S    
C28   C96   S    
C24   C103  S    
N10   Ni1   S    
C84   H17   S    
C102  N36   T    
C46   C57   A    
C70   H4    S    
H44   N49   S    
C44   N21   A    
C39   C53   A    
C71   C90   A    
C75   C79   A    
C25   N3    A    
C24   C59   A    
C79   H13   S    
C26   N4    A    
C13   C22   D    
C35   C62   A    
C45   H45   S    
H38   N46   S    
C26   C62   A    
H43   N48   S    
C59   C87   S    
N7    Ni8   S    
C30   C65   A    
C104  N38   T    
C73   C89   A    
C40   N17   A    
C12   C21   D    
C50   N45   A    
C9    C18   D    
C4    N40   T    
N14   Ni4   S    
C31   N8    A    
N17   Ni4   S    
C1    C93   S    
N25   Ni7   S    
N22   N54   A    
C73   C77   A    
N18   Ni6   S    
N54   Ni4   S    
C84   C92   A    
C64   C91   S    
C11   C57   S    
C1    C49   A    
C76   C85   A    
C14   C94   D    
C12   C54   S    
C34   N11   A    
C101  N35   T    
C18   H20   S    
N7    N16   A    
C13   C55   S    
C47   H54   S    
C9    H29   S    
