data_mof_unit_54096.cif
_audit_creation_date              2012-12-10T19:45:00-0500
_audit_creation_method            fapswitch 2.2
_symmetry_space_group_name_H-M    P1
_symmetry_Int_Tables_number       1
_space_group_crystal_system       triclinic
_cell_length_a                    15.080172
_cell_length_b                    10.900447
_cell_length_c                    13.759792
_cell_angle_alpha                 90.700692
_cell_angle_beta                  90.835906
_cell_angle_gamma                 87.959001
_cell_volume                      2260.01242155

loop_
_atom_site_label
_atom_site_type_symbol
_atom_type_description
_atom_site_fract_x
_atom_site_fract_y
_atom_site_fract_z
_atom_type_partial_charge
Br1   Br    Br    0.645929 0.320196 0.728998 -0.528111
Br2   Br    Br    0.354071 0.679804 0.271002 -0.528112
Br3   Br    Br    0.601560 0.074047 0.043895 -0.529159
Br4   Br    Br    0.398450 0.925949 0.956108 -0.529160
C1    C     C_R   0.498302 0.262250 0.498904 0.811716
C2    C     C_R   0.526246 0.887931 0.688487 0.084213
C3    C     C_R   0.535057 0.082524 0.238184 -0.207376
C4    C     C_R   0.464948 0.917474 0.761817 -0.207377
C5    C     C_R   0.519279 0.121465 0.142974 0.339535
C6    C     C_R   0.480729 0.878532 0.857026 0.339534
C7    C     C_R   0.442623 0.192117 0.120468 -0.090617
C8    C     C_R   0.557385 0.807879 0.879529 -0.090618
C9    C     C_R   0.491362 0.931866 0.414559 -0.194581
C10   C     C_R   0.508638 0.068133 0.585441 -0.194582
C11   C     C_R   0.503142 0.871586 0.503207 -0.100206
C12   C     C_R   0.501699 0.737750 0.501096 0.811716
C13   C     C_R   0.496858 0.128414 0.496793 -0.100205
C14   C     C_R   0.512505 0.940966 0.590347 0.009269
C15   C     C_R   0.487496 0.059033 0.409653 0.009269
C16   C     C_R   0.328609 0.500241 0.499546 0.826385
C17   C     C_R   0.671390 0.499758 0.500454 0.826385
C18   C     C_R   0.564505 0.432557 0.794794 0.380966
C19   C     C_R   0.435495 0.567443 0.205206 0.380966
C20   C     C_R   0.434418 0.562759 0.792847 -0.030241
C21   C     C_R   0.565582 0.437241 0.207153 -0.030240
C22   C     C_R   0.431739 0.561134 0.895306 -0.015722
C23   C     C_R   0.045610 0.461972 0.325284 -0.166827
C24   C     C_R   0.568261 0.438866 0.104694 -0.015723
C25   C     C_R   0.500111 0.499600 0.948261 0.048965
C26   C     C_R   0.499889 0.500400 0.051738 0.048966
C27   C     C_R   0.568198 0.436264 0.897941 -0.054803
C28   C     C_R   0.431802 0.563736 0.102059 -0.054801
C29   C     C_R   0.362496 0.620481 0.945829 -0.168445
C30   C     C_R   0.637504 0.379519 0.054171 -0.168449
C31   C     C_R   0.362593 0.622460 0.047608 -0.103696
C32   C     C_R   0.637407 0.377540 0.952392 -0.103697
C33   C     C_R   0.815267 0.518219 0.587595 -0.199315
C34   C     C_R   0.954390 0.538027 0.674717 -0.166830
C35   C     C_R   0.184732 0.481781 0.412406 -0.199318
C36   C     C_R   0.768210 0.499214 0.500750 -0.058609
C37   C     C_R   0.231790 0.500783 0.499250 -0.058611
C38   C     C_R   0.813598 0.480186 0.413355 -0.243379
C39   C     C_R   0.186402 0.519807 0.586647 -0.243376
C40   C     C_R   0.906292 0.480114 0.411523 0.064827
C41   C     C_R   0.093708 0.519880 0.588479 0.064827
C42   C     C_R   0.953472 0.499661 0.499773 0.034629
C43   C     C_R   0.046527 0.500333 0.500228 0.034628
C44   C     C_R   0.907589 0.518623 0.587721 0.055437
C45   C     C_R   0.381377 0.222471 0.193036 -0.185226
C46   C     C_R   0.092411 0.481374 0.412280 0.055437
C47   C     C_R   0.953194 0.461109 0.323893 0.143813
C48   C     C_R   0.046806 0.538885 0.676109 0.143817
C49   C     C_R   0.618629 0.777527 0.806959 -0.185226
C50   C     C_R   0.396045 0.181067 0.287981 -0.066271
C51   C     C_R   0.603959 0.818932 0.712016 -0.066272
C52   C     C_R   0.473757 0.112068 0.311512 0.084211
Cu1   Cu    Cu3+1 0.500010 0.499980 0.597420 0.983779
Cu2   Cu    Cu3+1 0.499990 0.500020 0.402580 0.983779
H1    H     H_    0.780084 0.533624 0.655089 0.167314
H2    H     H_    0.692612 0.329909 0.917603 0.199217
H3    H     H_    0.776055 0.465047 0.346957 0.150630
H4    H     H_    0.223945 0.534947 0.653045 0.150631
H5    H     H_    0.080973 0.447358 0.257820 0.165051
H6    H     H_    0.919026 0.552643 0.742180 0.165051
H7    H     H_    0.430365 0.223060 0.046872 0.175666
H8    H     H_    0.569645 0.776935 0.953125 0.175665
H9    H     H_    0.321987 0.276851 0.175439 0.147720
H10   H     H_    0.678019 0.723147 0.824555 0.147720
H11   H     H_    0.347042 0.202445 0.343008 0.123129
H12   H     H_    0.219915 0.466381 0.344911 0.167317
H13   H     H_    0.652961 0.797556 0.656987 0.123127
H14   H     H_    0.594279 0.027103 0.254774 0.161322
H15   H     H_    0.405725 0.972896 0.745229 0.161321
H16   H     H_    0.866663 0.516471 0.217749 0.224019
H17   H     H_    0.871348 0.362475 0.237586 0.220079
H18   H     H_    0.133333 0.483509 0.782254 0.224022
H19   H     H_    0.128657 0.637506 0.762424 0.220078
H20   H     H_    0.483422 0.879664 0.347616 0.203544
H21   H     H_    0.516579 0.120336 0.652384 0.203544
H22   H     H_    0.383505 0.613259 0.752102 0.139614
H23   H     H_    0.616495 0.386742 0.247897 0.139613
H24   H     H_    0.308525 0.666909 0.906599 0.159203
H25   H     H_    0.691475 0.333091 0.093401 0.159206
H26   H     H_    0.307388 0.670091 0.082397 0.199216
N1    N     N_R   0.499960 0.499900 0.743810 -0.201808
N2    N     N_R   0.500040 0.500100 0.256190 -0.201809
N3    N     N_3   0.909027 0.440750 0.232439 -0.585574
N4    N     N_3   0.090973 0.559234 0.767565 -0.585578
O1    O     O_R   0.500000 0.319630 0.582270 -0.547311
O2    O     O_R   0.500000 0.680370 0.417730 -0.547311
O3    O     O_R   0.499990 0.319660 0.417730 -0.588503
O4    O     O_R   0.500010 0.680340 0.582270 -0.588502
O5    O     O_R   0.370260 0.499960 0.582280 -0.601960
O6    O     O_R   0.629740 0.500040 0.417720 -0.601960
O7    O     O_R   0.370250 0.499990 0.417740 -0.552296
O8    O     O_R   0.629750 0.500010 0.582260 -0.552296

loop_
_geom_bond_atom_site_label_1
_geom_bond_atom_site_label_2
_ccdc_geom_bond_type
C15   C52   S    
C11   C14   A    
C16   O5    A    
C12   O2    A    
Cu1   O4    S    
C10   C14   A    
C2    C51   A    
C16   C37   S    
C35   C37   A    
C21   C24   A    
C50   H11   S    
Cu1   O1    S    
C7    C45   A    
C20   C22   A    
C33   C36   A    
C1    C13   S    
C17   O6    A    
C45   C50   A    
C18   N1    A    
C49   H10   S    
C21   N2    A    
C29   C31   A    
C9    H20   S    
C20   H22   S    
H19   N4    S    
C23   C47   A    
Cu1   O8    S    
H16   N3    S    
Cu2   O3    S    
H18   N4    S    
C34   C44   A    
C8    C49   A    
C23   C46   A    
C41   C43   A    
C24   C30   A    
Br1   C18   S    
Cu1   O5    S    
C21   H23   S    
C37   C39   A    
C10   C13   A    
C38   C40   A    
C3    C52   A    
Cu2   N2    S    
C40   C42   A    
C43   C46   A    
C34   H6    S    
C49   C51   A    
C2    C14   S    
C50   C52   A    
C18   C27   A    
C9    C15   A    
C28   C31   A    
C48   N4    S    
C47   N3    S    
C3    H14   S    
C2    C4    A    
C41   C48   A    
C8    H8    S    
C19   N2    A    
Cu2   O7    S    
C25   C26   A    
Br3   C5    S    
C39   C41   A    
C22   C29   A    
C1    O3    A    
C10   H21   S    
C33   C44   A    
Cu2   O2    S    
C38   H3    S    
C33   H1    S    
C6    C8    A    
C40   C47   A    
H17   N3    S    
C16   O7    A    
C12   O4    A    
C5    C7    A    
C30   H25   S    
Br4   C6    S    
C20   N1    A    
C3    C5    A    
C42   C43   A    
C45   H9    S    
C32   H2    S    
C31   H26   S    
C17   O8    A    
C19   C28   A    
C9    C11   A    
Cu2   O6    S    
C24   C26   A    
C25   C27   A    
C26   C28   A    
Cu1   Cu2   S    
C17   C36   S    
C11   C12   S    
C36   C38   A    
C4    H15   S    
C13   C15   A    
C35   H12   S    
Cu1   N1    S    
C30   C32   A    
C29   H24   S    
C51   H13   S    
C42   C44   A    
C35   C46   A    
C34   C48   A    
C22   C25   A    
C4    C6    A    
Br2   C19   S    
C27   C32   A    
C23   H5    S    
C1    O1    A    
C7    H7    S    
C39   H4    S    
