data_mof_unit_18374.cif
_audit_creation_date              2012-12-11T20:46:24-0500
_audit_creation_method            fapswitch 2.2
_symmetry_space_group_name_H-M    P1
_symmetry_Int_Tables_number       1
_space_group_crystal_system       triclinic
_cell_length_a                    8.330627
_cell_length_b                    18.892747
_cell_length_c                    19.010529
_cell_angle_alpha                 102.525774
_cell_angle_beta                  94.740013
_cell_angle_gamma                 90.668256
_cell_volume                      2909.48676191

loop_
_atom_site_label
_atom_site_type_symbol
_atom_type_description
_atom_site_fract_x
_atom_site_fract_y
_atom_site_fract_z
_atom_type_partial_charge
Ba1   Ba    Ba6+2 0.153490 0.533960 0.468530 1.728666
Ba2   Ba    Ba6+2 0.656680 0.466030 0.531410 1.763347
C1    C     C_3   0.380236 0.706128 0.215111 -0.348392
C2    C     C_3   0.403401 0.687692 0.289138 0.299764
C3    C     C_3   0.520393 0.693349 0.690003 0.237254
C4    C     C_3   0.530521 0.768431 0.741985 0.453401
C5    C     C_3   0.806676 0.299120 0.766702 0.483524
C6    C     C_3   0.811631 0.294399 0.847048 -0.053793
C7    C     C_3   0.343711 0.270710 0.703022 0.278655
C8    C     C_3   0.392773 0.279621 0.783372 -0.338048
C9    C     C_R   0.984430 0.955202 0.545679 -0.073532
C10   C     C_R   0.058321 0.912900 0.592440 0.348967
C11   C     C_R   0.212974 0.043876 0.558184 -0.005764
C12   C     C_3   0.892176 0.714276 0.321914 0.354620
C13   C     C_R   0.049249 0.023531 0.538491 0.034937
C14   C     C_R   0.272208 0.113321 0.559122 -0.081148
C15   C     C_R   0.173371 0.163596 0.534302 -0.096176
C16   C     C_R   0.013635 0.141378 0.503758 -0.003180
C17   C     C_R   0.952284 0.070609 0.505271 0.033361
C18   C     C_R   0.232730 0.233547 0.532998 -0.063628
C19   C     C_R   0.143254 0.271711 0.489754 0.153443
C20   C     C_R   0.977845 0.260745 0.471257 -0.022040
C21   C     C_R   0.916088 0.189922 0.471574 -0.075263
C22   C     C_R   0.835093 0.928824 0.506977 -0.001995
C23   C     C_3   0.863452 0.786431 0.300625 -0.385716
C24   C     C_R   0.780033 0.856053 0.504431 0.031909
C25   C     C_R   0.876967 0.808945 0.537987 -0.040277
C26   C     C_R   0.013596 0.839313 0.583017 0.013673
C27   C     C_R   0.767829 0.163311 0.435155 -0.002081
C28   C     C_R   0.708360 0.094269 0.436134 -0.091253
C29   C     C_R   0.796553 0.046832 0.472099 0.011160
C30   C     C_R   0.738032 0.975351 0.472563 0.046515
C31   C     C_R   0.583206 0.949088 0.441203 -0.098712
C32   C     C_R   0.626199 0.831053 0.469817 0.019299
C33   C     C_R   0.528850 0.879085 0.440249 -0.082582
C34   C     C_3   0.908353 0.361463 0.306709 0.353057
C35   C     C_R   0.572711 0.759080 0.466929 0.026041
C36   C     C_R   0.674861 0.711806 0.494976 -0.250603
C37   C     C_R   0.825977 0.734818 0.530449 0.083697
C38   C     C_2   0.604096 0.515515 0.298919 -0.232296
C39   C     C_3   0.739677 0.505810 0.249754 -0.021599
C40   C     C_2   0.677576 0.507479 0.173054 -0.120354
C41   C     C_2   0.518753 0.495513 0.150861 -0.066667
C42   C     C_2   0.405999 0.482814 0.205339 -0.166087
C43   C     C_1   0.462740 0.484255 0.273326 0.007056
C44   C     C_R   0.362712 0.484975 0.931310 0.452542
C45   C     C_3   0.895582 0.339136 0.223946 -0.056388
C46   C     C_R   0.460392 0.493733 0.073904 0.454916
C47   C     C_R   0.407789 0.504525 0.806003 -0.117894
C48   C     C_R   0.352874 0.498543 0.732789 0.066525
C49   C     C_R   0.107912 0.437636 0.750666 0.007474
C50   C     C_R   0.158517 0.447135 0.824238 -0.163316
C51   C     C_R   0.311234 0.477636 0.852655 -0.068233
C52   C     C_R   0.208179 0.461689 0.704942 -0.238958
C53   C     C_3   0.013660 0.622055 0.686780 0.301285
C54   C     C_3   0.040966 0.640800 0.768853 -0.369554
C55   C     C_3   0.470020 0.316415 0.266589 0.383858
C56   C     C_3   0.410281 0.288389 0.187467 -0.432424
H1    H     H_    0.350944 0.632399 0.284426 0.080400
H2    H     H_    0.770181 0.342457 0.200826 0.045975
H3    H     H_    0.970967 0.378389 0.203995 0.055836
H4    H     H_    0.124128 0.599289 0.663630 0.005401
H5    H     H_    0.913923 0.581089 0.670847 0.098417
H6    H     H_    0.137624 0.683125 0.786276 0.125470
H7    H     H_    0.077538 0.592352 0.789437 0.082505
H8    H     H_    0.928399 0.661276 0.792510 0.113784
H9    H     H_    0.517075 0.269843 0.288043 0.104636
H10   H     H_    0.572086 0.355417 0.271414 -0.091888
H11   H     H_    0.249814 0.704373 0.196827 0.133698
H12   H     H_    0.317306 0.244622 0.182649 0.150972
H13   H     H_    0.512106 0.266132 0.156215 0.080341
H14   H     H_    0.357134 0.332771 0.164325 0.102554
H15   H     H_    0.534863 0.688364 0.305254 -0.026929
H16   H     H_    0.442486 0.666161 0.175471 0.093601
H17   H     H_    0.644795 0.673744 0.683722 0.019773
H18   H     H_    0.461075 0.696966 0.636332 0.027183
H19   H     H_    0.599043 0.762447 0.793137 -0.024067
H20   H     H_    0.431518 0.761244 0.217674 0.114108
H21   H     H_    0.886194 0.831474 0.348988 0.070394
H22   H     H_    0.710645 0.258844 0.741614 0.087827
H23   H     H_    0.688116 0.290678 0.863971 0.059114
H24   H     H_    0.867780 0.242477 0.852635 0.079255
H25   H     H_    0.269330 0.220142 0.685032 0.048469
H26   H     H_    0.273606 0.318240 0.695027 -0.040453
H27   H     H_    0.286349 0.281051 0.814811 0.084894
H28   H     H_    0.463366 0.331219 0.803730 0.123069
H29   H     H_    0.018401 0.714806 0.345893 0.107491
H30   H     H_    0.464775 0.232810 0.792296 0.121111
H31   H     H_    0.397947 0.126321 0.576888 0.101764
H32   H     H_    0.078009 0.807888 0.616773 0.142350
H33   H     H_    0.696735 0.194778 0.403783 0.124221
H34   H     H_    0.408431 0.863484 0.415819 0.102812
H35   H     H_    0.634045 0.656364 0.490858 0.053716
H36   H     H_    0.298559 0.005514 0.571447 0.138967
H37   H     H_    0.593108 0.079326 0.406300 0.067583
H38   H     H_    0.807901 0.708806 0.362812 -0.046624
H39   H     H_    0.498443 0.981641 0.417501 0.062953
H40   H     H_    0.764302 0.514199 0.135181 0.095500
H41   H     H_    0.279589 0.469967 0.188403 0.113554
H42   H     H_    0.520249 0.533699 0.827095 0.096272
H43   H     H_    0.075570 0.435473 0.860152 0.128476
H44   H     H_    0.624751 0.544433 0.355019 0.041479
H45   H     H_    0.164549 0.459802 0.649291 0.040420
H46   H     H_    0.946177 0.793695 0.259649 0.134445
H47   H     H_    0.736835 0.788258 0.277848 0.116148
H48   H     H_    0.865205 0.417229 0.323884 -0.056257
H49   H     H_    0.035545 0.360283 0.325153 0.170781
N1    N     N_R   0.504676 0.518815 0.961234 -0.263178
N2    N     N_R   0.552498 0.522893 0.030795 -0.256019
N3    N     N_R   0.317050 0.460990 0.044411 -0.254402
N4    N     N_R   0.269627 0.456611 0.974710 -0.256133
O1    O     O_2   0.117290 0.676350 0.548250 -0.465466
O2    O     O_3   0.341197 0.344500 0.306201 -0.507976
O3    O     O_3   0.864723 0.657485 0.260442 -0.600580
O4    O     O_2   0.693010 0.323600 0.451730 -0.405907
O5    O     O_3   0.941240 0.413050 0.457220 -0.474317
O6    O     O_3   0.453310 0.371360 0.582690 -0.420181
O7    O     O_3   0.820639 0.313746 0.336966 -0.651347
O8    O     O_3   0.371310 0.539060 0.587050 -0.459614
O9    O     O_3   0.867330 0.408540 0.621000 -0.480566
O10   O     O_2   0.832538 0.495109 0.745224 -0.486911
O11   O     O_3   0.756956 0.367696 0.753724 -0.571187
O12   O     O_3   0.869060 0.586940 0.542720 -0.513003
O13   O     O_3   0.438990 0.460930 0.412890 -0.411974
O14   O     O_2   0.623700 0.539890 0.674570 -0.455577
O15   O     O_3   0.428078 0.647793 0.721224 -0.688460
O16   O     O_2   0.574918 0.242758 0.537715 -0.452991
O17   O     O_3   0.482022 0.264809 0.665371 -0.603712
O18   O     O_3   0.356990 0.628630 0.417250 -0.491672
O19   O     O_2   0.234797 0.756213 0.470215 -0.491434
O20   O     O_3   0.974623 0.685263 0.662983 -0.608710
O21   O     O_3   0.324226 0.738451 0.338949 -0.619093
O22   O     O_2   0.186600 0.460070 0.325400 -0.491288
O23   O     O_3   0.942970 0.591450 0.378940 -0.496522
O24   O     O_2   0.065645 0.552342 0.252893 -0.498808
P1    P     P_3+3 0.945300 0.665790 0.568510 1.002846
P2    P     P_3+3 0.360080 0.438780 0.334620 1.114049
P3    P     P_3+3 0.904548 0.574755 0.285226 0.950045
P4    P     P_3+3 0.865000 0.334200 0.431430 1.075188
P5    P     P_3+3 0.895179 0.418882 0.716557 0.968800
P6    P     P_3+3 0.371931 0.721945 0.425249 0.944964
P7    P     P_3+3 0.441282 0.556299 0.679013 0.952817
P8    P     P_3+3 0.431931 0.277106 0.578129 1.049712
N5    N     N_2   0.952427 0.266402 0.199826 -0.386056
H50   H     H_    0.891008 0.227474 0.218552 0.230907
C57   C     C_3   0.969183 0.245491 0.123054 -0.237862
H51   H     H_    0.021530 0.190889 0.110245 0.115468
H52   H     H_    0.051277 0.284458 0.106409 0.120004
H53   H     H_    0.849509 0.243634 0.092059 0.103393
S1    S     S_3+6 0.640589 0.833333 0.708161 -0.066862
O25   O     O_2   0.574398 0.833743 0.632421 -0.290307
O26   O     O_2   0.626657 0.907520 0.755349 -0.218810
O27   O     O_3   0.835234 0.812058 0.708904 -0.534631
H54   H     H_    0.867941 0.809597 0.759590 0.326486
N6    N     N_2   0.370865 0.795582 0.756004 -0.348399
H55   H     H_    0.276472 0.772922 0.719073 0.222585
C58   C     C_3   0.334852 0.812130 0.830886 -0.118584
H56   H     H_    0.346078 0.762987 0.853902 0.056969
H57   H     H_    0.209966 0.831473 0.834922 0.135121
H58   H     H_    0.419294 0.855470 0.862772 0.136336
N7    N     N_2   0.952988 0.272951 0.735920 -0.464166
H59   H     H_    0.057443 0.300752 0.758236 0.158518
C59   C     C_3   0.941690 0.239111 0.659769 -0.219495
H60   H     H_    0.000799 0.186186 0.653054 0.137414
H61   H     H_    0.001483 0.274716 0.629971 0.032106
H62   H     H_    0.815156 0.228460 0.636097 0.149812
N8    N     N_2   0.901413 0.354003 0.895330 -0.439986
H63   H     H_    0.985265 0.338022 0.931394 0.210951
C60   C     C_3   0.806752 0.413623 0.929088 -0.186199
H64   H     H_    0.888168 0.458298 0.960698 0.126663
H65   H     H_    0.727323 0.395525 0.966390 0.108529
H66   H     H_    0.732541 0.434730 0.887377 0.158208
S2    S     S_3+6 0.242884 0.290787 0.421371 -0.108088
O28   O     O_2   0.240799 0.371290 0.437456 -0.290379
O29   O     O_2   0.411661 0.264864 0.419419 -0.310640
O30   O     O_3   0.141841 0.251297 0.341909 -0.567845
H67   H     H_    0.146048 0.198503 0.339776 0.312998
S3    S     S_3+6 0.168384 0.952790 0.676195 -0.040791
O31   O     O_2   0.345373 0.942817 0.669824 -0.193444
O32   O     O_2   0.137114 0.032417 0.698770 -0.307012
O33   O     O_3   0.113573 0.911801 0.740933 -0.492233
H68   H     H_    0.015000 0.936362 0.757863 0.375441

loop_
_geom_bond_atom_site_label_1
_geom_bond_atom_site_label_2
_ccdc_geom_bond_type
O24   P3    D    
C46   N3    A    
C53   C54   S    
C8    H27   S    
O22   P2    D    
C58   H56   S    
N6    C58   S    
C32   C35   A    
C60   H64   S    
C10   S3    S    
C59   H60   S    
C17   C29   A    
Ba1   O12   S    
S3    O31   D    
C23   H47   S    
C5    C6    S    
N8    C60   S    
Ba2   O12   S    
C42   C43   D    
C13   C17   A    
C3    C4    S    
C5    N7    S    
C8    H30   S    
C24   C25   A    
C35   C36   A    
C35   P6    S    
C10   C26   A    
C6    H24   S    
Ba2   P4    S    
C21   C27   A    
O10   P5    D    
C1    H11   S    
C55   H9    S    
C12   H29   S    
Ba1   Ba2   S    
Ba1   O18   S    
C40   H40   S    
Ba1   O1    S    
Ba1   O8    S    
C36   C37   A    
C42   H41   S    
C54   H8    S    
C56   H13   S    
O18   P6    S    
C54   H7    S    
C53   H4    S    
C9    C22   A    
C15   C18   A    
N1    N2    A    
C44   C51   S    
C34   C45   S    
C32   C33   A    
C39   C40   S    
O19   P6    D    
C1    H16   S    
N3    N4    A    
C45   H2    S    
C9    C13   A    
C24   C32   A    
C25   C37   A    
C14   C15   A    
S1    O27   S    
C53   H5    S    
C3    O15   S    
C54   H6    S    
O9    P5    S    
Ba1   O5    S    
Ba1   P1    S    
C34   O7    S    
C7    C8    S    
C31   H39   S    
C4    N6    S    
O5    P4    S    
C33   H34   S    
C46   N2    A    
C14   H31   S    
C58   H57   S    
S2    O28   D    
C19   C20   A    
C34   H49   S    
C60   H65   S    
C18   P8    S    
Ba2   O5    S    
O1    P1    D    
Ba1   O22   S    
C12   H38   S    
N7    C59   S    
Ba2   O6    S    
N7    H59   S    
C57   H52   S    
C37   P1    S    
S2    O29   D    
C38   C43   D    
C50   H43   S    
C7    O17   S    
C34   H48   S    
C6    H23   S    
C52   H45   S    
C59   H62   S    
N5    C57   S    
O20   P1    S    
N8    H63   S    
C38   C39   S    
Ba2   O9    S    
C36   H35   S    
C16   C17   A    
C4    H19   S    
C55   O2    S    
O33   H68   S    
C38   H44   S    
C45   N5    S    
O15   P7    S    
C16   C21   A    
C44   N1    A    
C3    H17   S    
C41   C42   S    
C22   C30   A    
C45   H3    S    
C28   H37   S    
C6    N8    S    
C57   H53   S    
Ba2   O4    S    
O13   P2    S    
C29   C30   A    
O14   P7    D    
Ba2   O8    S    
C43   P2    S    
C15   C16   A    
C39   P3    S    
O16   P8    D    
C2    H15   S    
C7    H25   S    
O30   H67   S    
O4    P4    D    
C58   H58   S    
C53   O20   S    
C11   C13   A    
C60   H66   S    
S1    O26   D    
C40   C41   D    
C5    O11   S    
C1    C2    S    
C27   H33   S    
Ba1   P2    S    
C50   C51   A    
C57   H51   S    
C41   C46   S    
S2    O30   S    
O21   P6    S    
C8    H28   S    
O7    P4    S    
C59   H61   S    
C23   H21   S    
C56   H12   S    
C22   C24   A    
N5    H50   S    
O23   P3    S    
S3    O32   D    
C9    C10   A    
C23   H46   S    
Ba2   O13   S    
O12   P1    S    
C19   S2    S    
S1    O25   D    
C11   H36   S    
C49   C52   A    
C30   C31   A    
C3    H18   S    
Ba1   O13   S    
O11   P5    S    
C49   C50   A    
C48   C52   A    
C12   O3    S    
C49   P5    S    
C47   H42   S    
C2    O21   S    
C56   H14   S    
C55   C56   S    
C28   C29   A    
C47   C51   A    
C20   P4    S    
C2    H1    S    
C31   C33   A    
O2    P2    S    
O3    P3    S    
C12   C23   S    
O17   P8    S    
S3    O33   S    
C7    H26   S    
C27   C28   A    
C4    S1    S    
Ba2   O14   S    
C48   P7    S    
C18   C19   A    
O6    P8    S    
C47   C48   A    
C11   C14   A    
N6    H55   S    
O8    P7    S    
C20   C21   A    
C26   H32   S    
C55   H10   S    
O27   H54   S    
C44   N4    A    
C1    H20   S    
Ba1   O23   S    
C5    H22   S    
C25   C26   A    
