data_mof_unit_12205.cif
_audit_creation_date              2012-10-26T18:47:36-0400
_audit_creation_method            fapswitch 2.2
_symmetry_space_group_name_H-M    P1
_symmetry_Int_Tables_number       1
_space_group_crystal_system       triclinic
_cell_length_a                    10.978721
_cell_length_b                    12.991527
_cell_length_c                    11.667721
_cell_angle_alpha                 99.92666
_cell_angle_beta                  94.496075
_cell_angle_gamma                 90.203118
_cell_volume                      1633.96612495

loop_
_atom_site_label
_atom_site_type_symbol
_atom_type_description
_atom_site_fract_x
_atom_site_fract_y
_atom_site_fract_z
_atom_type_partial_charge
C1    C     C_R   0.498130 0.299023 0.478545 0.547892
C2    C     C_R   0.482165 0.984530 0.653231 -0.092551
C3    C     C_R   0.513108 0.123527 0.357109 -0.114724
C4    C     C_R   0.486889 0.876473 0.642890 -0.114730
C5    C     C_R   0.486511 0.139002 0.564184 -0.118730
C6    C     C_R   0.513486 0.860997 0.435816 -0.118745
C7    C     C_R   0.491982 0.031113 0.554764 0.059656
C8    C     C_R   0.508014 0.968887 0.445235 0.059656
C9    C     C_R   0.429301 0.375760 0.019347 -0.163681
C10   C     C_R   0.570695 0.624242 0.980653 -0.163719
C11   C     C_R   0.430278 0.390819 0.141786 0.046541
C12   C     C_R   0.501869 0.700977 0.521455 0.547897
C13   C     C_R   0.569719 0.609182 0.858214 0.046535
C14   C     C_R   0.523822 0.557681 0.158276 0.068883
C15   C     C_R   0.476177 0.442319 0.841724 0.068901
C16   C     C_R   0.262159 0.506061 0.500519 0.559730
C17   C     C_R   0.737842 0.493945 0.499482 0.559722
C18   C     C_R   0.523777 0.546188 0.035144 -0.000635
C19   C     C_R   0.476220 0.453814 0.964856 -0.000609
C20   C     C_R   0.188315 0.640909 0.169739 0.013281
C21   C     C_R   0.811651 0.359156 0.830284 0.013290
C22   C     C_R   0.142883 0.622230 0.273850 -0.075094
C23   C     C_R   0.872267 0.488750 0.498850 -0.046508
C24   C     C_R   0.857099 0.377817 0.726172 -0.075071
C25   C     C_R   0.105019 0.521316 0.284931 0.073677
C26   C     C_R   0.894982 0.478724 0.715079 0.073688
C27   C     C_R   0.110350 0.438793 0.190603 -0.067124
C28   C     C_R   0.889662 0.561257 0.809399 -0.067124
C29   C     C_R   0.150971 0.457458 0.085748 -0.111845
C30   C     C_R   0.849034 0.542609 0.914258 -0.111853
C31   C     C_R   0.190895 0.557425 0.075730 -0.079926
C32   C     C_R   0.809086 0.442650 0.924286 -0.079926
C33   C     C_R   0.927745 0.486996 0.392796 0.036464
C34   C     C_R   0.127734 0.511268 0.501154 -0.046502
C35   C     C_R   0.072258 0.513030 0.607208 0.036455
C36   C     C_2   0.229716 0.747216 0.156362 0.576140
C37   C     C_2   0.770209 0.252860 0.843668 0.576131
C38   C     C_2   0.855728 0.462409 0.277902 0.595627
C39   C     C_2   0.144275 0.537635 0.722102 0.595618
C40   C     C_R   0.946111 0.495941 0.605355 -0.070463
C41   C     C_R   0.053892 0.504083 0.394650 -0.070460
C42   C     C_R   0.501489 0.814394 0.533985 -0.006799
C43   C     C_R   0.498509 0.185606 0.466015 -0.006802
C44   C     C_R   0.517831 0.015469 0.346769 -0.092543
Cu1   Cu    Cu3+1 0.509250 0.507730 0.615930 0.976633
Cu2   Cu    Cu3+1 0.490750 0.492270 0.384070 0.976635
H1    H     H_    0.436552 0.372501 0.787401 0.134128
H2    H     H_    0.918992 0.639385 0.802113 0.135557
H3    H     H_    0.153446 0.393942 0.012577 0.153679
H4    H     H_    0.846569 0.606132 0.987424 0.153669
H5    H     H_    0.525952 0.813405 0.351708 0.131623
H6    H     H_    0.474048 0.186595 0.648292 0.131648
H7    H     H_    0.477640 0.841531 0.719685 0.146346
H8    H     H_    0.522357 0.158469 0.280315 0.146350
H9    H     H_    0.529693 0.968509 0.262251 0.138120
H10   H     H_    0.470303 0.031491 0.737749 0.138131
H11   H     H_    0.225776 0.569183 0.995012 0.168167
H12   H     H_    0.563447 0.627499 0.212599 0.134137
H13   H     H_    0.774196 0.430908 0.005005 0.168173
H14   H     H_    0.277885 0.797735 0.328883 0.293979
H15   H     H_    0.722106 0.202311 0.671132 0.293971
H16   H     H_    0.747644 0.357018 0.167608 0.348881
H17   H     H_    0.252357 0.643039 0.832385 0.348848
H18   H     H_    0.606475 0.670221 0.818009 0.134550
H19   H     H_    0.393522 0.329780 0.181991 0.134549
H20   H     H_    0.391694 0.303665 0.967833 0.108863
H21   H     H_    0.608302 0.696336 0.032167 0.108859
H22   H     H_    0.133863 0.685513 0.346068 0.104540
H23   H     H_    0.866111 0.314528 0.653959 0.104515
H24   H     H_    0.081034 0.360660 0.197881 0.135555
N1    N     N_R   0.523180 0.519350 0.790130 -0.233708
N2    N     N_R   0.476820 0.480650 0.209870 -0.233709
O1    O     O_R   0.506570 0.354460 0.582000 -0.527017
O2    O     O_R   0.267531 0.824070 0.252161 -0.666913
O3    O     O_2   0.768300 0.231242 0.941322 -0.476190
O4    O     O_R   0.732411 0.175993 0.747871 -0.666909
O5    O     O_2   0.842333 0.528970 0.215776 -0.551746
O6    O     O_R   0.800740 0.363480 0.243535 -0.672245
O7    O     O_2   0.157651 0.471090 0.784257 -0.551751
O8    O     O_R   0.199279 0.636562 0.756441 -0.672248
O9    O     O_R   0.493430 0.645540 0.418000 -0.527017
O10   O     O_R   0.490940 0.341410 0.386200 -0.508308
O11   O     O_R   0.509060 0.658590 0.613800 -0.508308
O12   O     O_R   0.327460 0.506540 0.597900 -0.461411
O13   O     O_R   0.672540 0.493460 0.402100 -0.461408
O14   O     O_R   0.311830 0.493480 0.402100 -0.507332
O15   O     O_R   0.688170 0.506520 0.597900 -0.507336
O16   O     O_2   0.231573 0.768853 0.058717 -0.476170

loop_
_geom_bond_atom_site_label_1
_geom_bond_atom_site_label_2
_ccdc_geom_bond_type
C4    H7    S    
C27   C29   A    
C14   C18   A    
C35   C39   S    
C2    C7    A    
C15   H1    S    
C7    C8    A    
C29   H3    S    
Cu1   Cu2   S    
C36   O16   D    
C15   C19   A    
C3    C43   A    
C17   C23   S    
C17   O13   A    
Cu1   O15   S    
C24   C26   A    
C18   C19   A    
C3    H8    S    
Cu1   N1    S    
C23   C40   A    
C16   O12   A    
Cu1   O1    S    
C34   C35   A    
C9    H20   S    
C12   C42   S    
C16   C34   S    
Cu2   O10   S    
C1    C43   S    
C23   C33   A    
C22   C25   A    
C5    H6    S    
C6    H5    S    
Cu2   N2    S    
Cu2   O13   S    
C5    C43   A    
C16   O14   A    
Cu1   O11   S    
C34   C41   A    
C13   N1    A    
C9    C19   A    
C24   H23   S    
H17   O8    S    
H15   O4    S    
C14   H12   S    
C21   C32   A    
C3    C44   A    
C25   C41   S    
C5    C7    A    
C11   N2    A    
C6    C8    A    
C38   O6    S    
C1    O10   A    
C10   H21   S    
C12   O11   A    
C39   O7    D    
C2    C4    A    
Cu2   O9    S    
C9    C11   A    
C22   H22   S    
C27   H24   S    
C36   O2    S    
C37   O4    S    
C20   C22   A    
Cu1   O12   S    
C28   H2    S    
C17   O15   A    
C14   N2    A    
H16   O6    S    
C8    C44   A    
C10   C13   A    
C38   O5    D    
C25   C27   A    
C15   N1    A    
C26   C28   A    
C33   C38   S    
C1    O1    A    
C39   O8    S    
C31   H11   S    
C28   C30   A    
C35   C40   A    
C33   C41   A    
C29   C31   A    
C2    H10   S    
C30   C32   A    
C30   H4    S    
C44   H9    S    
C26   C40   S    
C13   H18   S    
C4    C42   A    
C10   C18   A    
H14   O2    S    
C12   O9    A    
C37   O3    D    
C20   C36   S    
C21   C37   S    
C6    C42   A    
C21   C24   A    
C32   H13   S    
C11   H19   S    
Cu2   O14   S    
C20   C31   A    
