data_mof_unit_50602.cif
_audit_creation_date              2012-12-10T16:46:48-0500
_audit_creation_method            fapswitch 2.2
_symmetry_space_group_name_H-M    P1
_symmetry_Int_Tables_number       1
_space_group_crystal_system       triclinic
_cell_length_a                    15.847708
_cell_length_b                    8.691567
_cell_length_c                    7.464939
_cell_angle_alpha                 103.09729
_cell_angle_beta                  94.249679
_cell_angle_gamma                 92.370709
_cell_volume                      996.938255848

loop_
_atom_site_label
_atom_site_type_symbol
_atom_type_description
_atom_site_fract_x
_atom_site_fract_y
_atom_site_fract_z
_atom_type_partial_charge
C1    C     C_R   0.497457 0.199727 0.453193 0.875244
C2    C     C_3   0.952682 0.411588 0.641788 -0.381597
C3    C     C_3   0.917097 0.499783 0.496477 0.335159
C4    C     C_3   0.956548 0.671850 0.547185 -0.381159
C5    C     C_3   0.054431 0.672088 0.551388 -0.376991
C6    C     C_1   0.824815 0.499613 0.493261 -0.121072
C7    C     C_1   0.175190 0.500354 0.506755 -0.106693
C8    C     C_1   0.250807 0.500266 0.506632 -0.140391
C9    C     C_2   0.496247 0.031728 0.427024 -0.371775
C10   C     C_2   0.503701 0.968273 0.572984 -0.339972
C11   C     C_R   0.340337 0.499821 0.502262 0.823314
C12   C     C_R   0.502521 0.800273 0.546809 0.848704
C13   C     C_R   0.659664 0.500164 0.497737 0.798153
C14   C     C_3   0.050559 0.411824 0.645944 -0.371158
C15   C     C_3   0.041842 0.416472 0.308974 -0.375374
C16   C     C_3   0.943965 0.416230 0.304817 -0.379745
C17   C     C_1   0.749197 0.499704 0.493373 -0.167540
C18   C     C_3   0.082910 0.500189 0.503543 0.323481
Cu1   Cu    Cu3+1 0.509300 0.517380 0.684380 1.031064
Cu2   Cu    Cu3+1 0.490700 0.482620 0.315620 1.036639
H1    H     H_    0.925337 0.287351 0.608335 0.160197
H2    H     H_    0.079078 0.469949 0.787130 0.164863
H3    H     H_    0.934249 0.469555 0.781046 0.159124
H4    H     H_    0.932073 0.737818 0.444584 0.158797
H5    H     H_    0.489233 0.959915 0.286468 0.181934
H6    H     H_    0.510713 0.040085 0.713541 0.202963
H7    H     H_    0.565728 0.622686 0.051168 0.166521
H8    H     H_    0.070181 0.287718 0.614393 0.164402
H9    H     H_    0.064077 0.477936 0.203931 0.162261
H10   H     H_    0.061282 0.292436 0.271287 0.163517
H11   H     H_    0.916437 0.292100 0.265249 0.160493
H12   H     H_    0.919249 0.477631 0.197881 0.159167
H13   H     H_    0.083009 0.734846 0.690878 0.164699
H14   H     H_    0.076933 0.738187 0.450804 0.162290
H15   H     H_    0.938151 0.734536 0.684669 0.159681
N1    N     N_2   0.476670 0.456430 0.038530 0.190303
N2    N     N_2   0.523330 0.543570 0.961470 -0.146367
O1    O     O_R   0.506050 0.286130 0.619770 -0.524019
O2    O     O_R   0.490330 0.256780 0.308370 -0.568636
O3    O     O_R   0.387300 0.514690 0.655770 -0.519051
O4    O     O_R   0.371580 0.485340 0.344370 -0.557615
O5    O     O_R   0.509670 0.743220 0.691630 -0.595286
O6    O     O_R   0.493950 0.713870 0.380230 -0.606842
O7    O     O_R   0.628420 0.514660 0.655630 -0.590538
O8    O     O_R   0.612700 0.485310 0.344230 -0.608387
F1    F     F_    0.420708 0.353512 0.925227 -0.522764

loop_
_geom_bond_atom_site_label_1
_geom_bond_atom_site_label_2
_ccdc_geom_bond_type
C15   C18   S    
N1    F1    S    
Cu1   O1    S    
C16   H12   S    
C15   H9    S    
C9    C10   D    
C14   C18   S    
Cu1   Cu2   S    
Cu1   O5    S    
C13   C17   S    
C3    C6    S    
C5    H14   S    
C14   H2    S    
C2    H1    S    
C2    C3    S    
C4    H15   S    
C9    H5    S    
C7    C8    T    
C7    C18   S    
C16   H11   S    
C13   O8    A    
C10   H6    S    
C10   C12   S    
C1    O1    A    
H7    N2    S    
C8    C11   S    
C2    C14   S    
C15   C16   S    
N1    N2    D    
Cu2   O4    S    
C12   O6    A    
C11   O3    A    
C4    H4    S    
Cu1   O3    S    
C1    O2    A    
C3    C4    S    
Cu2   N1    S    
Cu2   O6    S    
C1    C9    S    
Cu1   O7    S    
C15   H10   S    
C11   O4    A    
C2    H3    S    
C6    C17   T    
Cu2   O2    S    
C12   O5    A    
C5    C18   S    
Cu1   N2    S    
C14   H8    S    
C13   O7    A    
C3    C16   S    
Cu2   O8    S    
C4    C5    S    
C5    H13   S    
