data_mof_unit_60039.cif
_audit_creation_date              2012-12-10T21:21:40-0500
_audit_creation_method            fapswitch 2.2
_symmetry_space_group_name_H-M    P1
_symmetry_Int_Tables_number       1
_space_group_crystal_system       triclinic
_cell_length_a                    17.468332
_cell_length_b                    16.738702
_cell_length_c                    23.40939
_cell_angle_alpha                 89.917265
_cell_angle_beta                  90.237922
_cell_angle_gamma                 90.347722
_cell_volume                      6844.64822334

loop_
_atom_site_label
_atom_site_type_symbol
_atom_type_description
_atom_site_fract_x
_atom_site_fract_y
_atom_site_fract_z
_atom_type_partial_charge
C1    C     C_R   0.352783 0.499777 0.502276 0.890731
C2    C     C_R   0.647555 0.500128 0.501708 0.884378
C3    C     C_R   0.561171 0.464298 0.238626 -0.164161
C4    C     C_R   0.444597 0.535976 0.762221 -0.165583
C5    C     C_R   0.560765 0.463550 0.297906 -0.074859
C6    C     C_R   0.442953 0.536873 0.702948 -0.075466
C7    C     C_R   0.500176 0.500194 0.327287 -0.204264
C8    C     C_R   0.502236 0.499731 0.672487 -0.199574
C9    C     C_R   0.440142 0.537190 0.296963 0.179679
C10   C     C_R   0.563192 0.462320 0.701499 0.183378
C11   C     C_R   0.441329 0.537683 0.237195 0.311372
C12   C     C_R   0.564092 0.461778 0.761262 0.310960
C13   C     C_R   0.502048 0.501090 0.208559 0.166992
C14   C     C_R   0.504540 0.498639 0.791099 0.167149
C15   C     C_R   0.846180 0.564998 0.548701 -0.169434
C16   C     C_R   0.158891 0.436017 0.557549 -0.172585
C17   C     C_R   0.147014 0.565789 0.512700 -0.177085
C18   C     C_R   0.851045 0.426925 0.518889 -0.165886
C19   C     C_R   0.768892 0.568463 0.534709 -0.017565
C20   C     C_R   0.236481 0.434613 0.544704 -0.033758
C21   C     C_R   0.224329 0.565938 0.499063 -0.025848
C22   C     C_R   0.773838 0.428401 0.504380 -0.011506
C23   C     C_R   0.731037 0.499707 0.512155 -0.126988
C24   C     C_R   0.270182 0.499372 0.514142 -0.129715
C25   C     C_R   0.886408 0.494730 0.540910 0.121873
C26   C     C_R   0.114925 0.501042 0.541329 0.118205
C27   C     C_R   0.499612 0.500055 0.389316 0.954611
C28   C     C_R   0.500719 0.499932 0.610606 0.944972
C29   C     C_1   0.966714 0.495644 0.547466 -0.018211
C30   C     C_1   0.034702 0.497727 0.547607 -0.019368
C31   C     C_R   0.472624 0.831915 0.452326 -0.095536
C32   C     C_R   0.550282 0.168290 0.535616 -0.091284
C33   C     C_R   0.525807 0.832212 0.547934 -0.083592
C34   C     C_R   0.449280 0.167939 0.464467 -0.082766
C35   C     C_R   0.473562 0.747708 0.453416 -0.002560
C36   C     C_R   0.549169 0.252484 0.534809 0.012277
C37   C     C_R   0.525257 0.748014 0.546857 -0.005843
C38   C     C_R   0.450624 0.252144 0.465268 -0.008364
C39   C     C_R   0.499296 0.875602 0.500077 0.041518
C40   C     C_R   0.499718 0.124583 0.500040 0.044535
C41   C     C_1   0.499400 0.963619 0.500027 0.003481
C42   C     C_1   0.499554 0.036567 0.500035 0.005917
C43   C     C_R   0.538415 0.560272 0.879975 0.584776
C44   C     C_R   0.470503 0.438212 0.119695 0.585264
C45   C     C_R   0.469885 0.436226 0.879740 0.593111
C46   C     C_R   0.538886 0.562346 0.119961 0.592803
C47   C     C_R   0.469050 0.434085 0.939881 -0.101597
C48   C     C_R   0.540534 0.564019 0.059816 -0.101067
C49   C     C_R   0.504518 0.498337 0.969737 -0.047355
C50   C     C_R   0.505206 0.499688 0.029953 -0.047236
C51   C     C_R   0.539286 0.561541 0.939480 -0.062908
C52   C     C_R   0.470338 0.436541 0.060202 -0.062973
C53   C     C_R   0.434603 0.371042 0.971420 0.316024
C54   C     C_R   0.575394 0.626815 0.028276 0.316135
C55   C     C_R   0.435733 0.373165 0.030784 -0.163954
C56   C     C_R   0.574255 0.624699 0.968905 -0.164447
H1    H     H_    0.452796 0.714363 0.416881 0.178032
H2    H     H_    0.587835 0.286146 0.562024 0.170542
H3    H     H_    0.545434 0.714914 0.583635 0.155590
H4    H     H_    0.412031 0.285556 0.438066 0.146660
H5    H     H_    0.408979 0.324475 0.053996 0.222124
H6    H     H_    0.601132 0.673315 0.945693 0.221969
H7    H     H_    0.607578 0.436627 0.215408 0.169958
H8    H     H_    0.399143 0.563832 0.786349 0.169663
H9    H     H_    0.875642 0.617727 0.564781 0.150691
H10   H     H_    0.132385 0.385986 0.579616 0.154127
H11   H     H_    0.111176 0.615531 0.499890 0.149755
H12   H     H_    0.884314 0.373288 0.511767 0.149281
N1    N     N_R   0.504361 0.498328 0.851860 -0.346260
N2    N     N_R   0.503912 0.500528 0.147819 -0.346541
N3    N     N_R   0.500000 0.707230 0.500000 -0.109682
N4    N     N_R   0.500000 0.292770 0.500000 -0.107530
O1    O     O_R   0.389110 0.566570 0.500000 -0.601796
O2    O     O_R   0.610890 0.433430 0.500000 -0.605954
O3    O     O_R   0.610890 0.566570 0.500000 -0.612675
O4    O     O_R   0.389110 0.433430 0.500000 -0.620011
O5    O     O_R   0.499970 0.566560 0.416150 -0.602912
O6    O     O_R   0.500030 0.433440 0.583850 -0.591073
O7    O     O_R   0.500030 0.566560 0.583850 -0.630272
O8    O     O_R   0.499970 0.433440 0.416150 -0.614679
O9    O     O_2   0.571406 0.620280 0.850121 -0.520862
O10   O     O_2   0.437279 0.378327 0.149533 -0.519430
O11   O     O_2   0.437019 0.377499 0.848738 -0.467630
O12   O     O_2   0.571240 0.621359 0.150977 -0.468708
Zn1   Zn    Zn3+2 0.500000 0.588860 0.500000 0.992478
Zn2   Zn    Zn3+2 0.500000 0.411140 0.500000 0.998435
Br1   Br    Br    0.384420 0.278885 0.938815 -0.321203
Br2   Br    Br    0.626129 0.718633 0.060893 -0.321492
C57   C     C_1   0.624246 0.427032 0.327579 0.225540
N5    N     N_1   0.675247 0.397872 0.351201 -0.179454
C58   C     C_1   0.378924 0.574074 0.674241 0.215570
N6    N     N_1   0.327706 0.603742 0.651163 -0.182469
Br3   Br    Br    0.354840 0.583466 0.336709 -0.435760
Br4   Br    Br    0.646787 0.415324 0.659830 -0.441517
Br5   Br    Br    0.360625 0.587273 0.193791 -0.336196
Br6   Br    Br    0.645986 0.411599 0.803006 -0.338017
C59   C     C_1   0.731332 0.643718 0.544974 0.239489
N7    N     N_1   0.702040 0.704376 0.553316 -0.191072
C60   C     C_1   0.279690 0.366930 0.565360 0.217469
N8    N     N_1   0.314171 0.312751 0.581961 -0.161258
C61   C     C_1   0.253883 0.635147 0.469217 0.271231
N9    N     N_1   0.277194 0.690948 0.445601 -0.146254
C62   C     C_1   0.741638 0.355678 0.480889 0.239363
N10   N     N_1   0.716187 0.297220 0.462249 -0.171377
C63   C     C_1   0.444058 0.871927 0.401978 0.220440
N11   N     N_1   0.421152 0.903996 0.361611 -0.124854
C64   C     C_1   0.603583 0.128315 0.573091 0.216798
N12   N     N_1   0.646329 0.096270 0.603130 -0.134725
C65   C     C_1   0.553762 0.872535 0.598411 0.202796
N13   N     N_1   0.576176 0.904862 0.638875 -0.135628
C66   C     C_1   0.395898 0.127563 0.426983 0.195814
N14   N     N_1   0.353100 0.095178 0.396940 -0.143323

loop_
_geom_bond_atom_site_label_1
_geom_bond_atom_site_label_2
_ccdc_geom_bond_type
C61   N9    T    
C9    Br3   S    
C41   C42   T    
C66   N14   T    
C59   N7    T    
C19   C59   S    
C47   C49   A    
C48   C54   A    
C33   C39   A    
C34   C40   A    
C17   C26   A    
C32   C36   A    
C44   O10   S    
C15   C25   A    
C13   N2    S    
C10   Br4   S    
C18   H12   S    
C6    C58   S    
C15   H9    S    
C7    C27   S    
C51   C56   A    
C45   C47   A    
C28   O7    A    
O8    Zn2   S    
C62   N10   T    
C15   C19   A    
O3    Zn1   S    
C20   C24   A    
C49   C51   A    
C32   C64   S    
C50   C52   A    
C64   N12   T    
C44   N2    A    
C28   O6    A    
C3    C13   A    
C52   C55   A    
C47   C53   A    
C21   C61   S    
O6    Zn2   S    
C48   C50   A    
C35   N3    A    
C43   N1    A    
N3    Zn1   S    
C25   C29   S    
C34   C66   S    
C31   C63   S    
C45   O11   S    
C18   C25   A    
C46   C48   A    
C53   C55   A    
C16   C26   A    
C38   N4    A    
C17   H11   S    
C45   N1    A    
C4    C6    A    
C27   O8    A    
C58   N6    T    
C5    C7    A    
C6    C8    A    
C27   O5    A    
C33   C37   A    
C22   C62   S    
C19   C23   A    
C29   C30   T    
C60   N8    T    
C16   C20   A    
C53   Br1   S    
O2    Zn2   S    
C9    C11   A    
O1    Zn1   S    
C37   H3    S    
C10   C12   A    
C38   H4    S    
C12   C14   A    
C26   C30   S    
C37   N3    A    
C43   O9    S    
C14   N1    S    
C31   C35   A    
C33   C65   S    
O4    Zn2   S    
O7    Zn1   S    
C11   Br5   S    
C7    C9    A    
C34   C38   A    
C1    O4    A    
C3    C5    A    
C2    O2    A    
C44   C52   A    
N4    Zn2   S    
C54   C56   A    
C3    H7    S    
C63   N11   T    
C4    H8    S    
C36   H2    S    
C35   H1    S    
C1    O1    A    
C18   C22   A    
C65   N13   T    
C54   Br2   S    
C11   C13   A    
C43   C51   A    
C20   C60   S    
C8    C28   S    
C55   H5    S    
C40   C42   S    
C31   C39   A    
C46   O12   S    
C56   H6    S    
C32   C40   A    
C4    C14   A    
C17   C21   A    
C46   N2    A    
O5    Zn1   S    
C16   H10   S    
C39   C41   S    
C1    C24   S    
C8    C10   A    
C49   C50   A    
C21   C24   A    
C2    C23   S    
C22   C23   A    
C12   Br6   S    
C57   N5    T    
C5    C57   S    
C2    O3    A    
C36   N4    A    
