data_mof_unit_68536.cif
_audit_creation_date              2013-03-05T16:01:58-0500
_audit_creation_method            fapswitch 2.2
_symmetry_space_group_name_H-M    P1
_symmetry_Int_Tables_number       1
_space_group_crystal_system       triclinic
_cell_length_a                    8.356004
_cell_length_b                    14.466897
_cell_length_c                    15.170292
_cell_angle_alpha                 97.044554
_cell_angle_beta                  97.191919
_cell_angle_gamma                 91.928515
_cell_volume                      1803.46670565

loop_
_atom_site_label
_atom_site_type_symbol
_atom_site_description
_atom_site_fract_x
_atom_site_fract_y
_atom_site_fract_z
_atom_type_partial_charge
P1    P     P_3+3 0.018620 0.416870 0.295980 0.516864
O1    O     O_2   0.841250 0.444240 0.280450 -0.372488
O2    O     O_3   0.112870 0.447390 0.393710 -0.352440
O3    O     O_3   0.597960 0.615760 0.327700 -0.318056
O4    O     O_2   0.714340 0.552790 0.180930 -0.347183
O5    O     O_3   0.001107 0.294385 0.274282 -0.583367
O6    O     O_3   0.591207 0.716139 0.183920 -0.470977
H1    H     H_    0.429875 0.761996 0.271868 0.001538
C1    C     C_3   0.473447 0.865796 0.186385 0.349536
P2    P     P_3+3 0.635650 0.716500 0.560900 0.534994
P3    P     P_3+3 0.040223 0.786362 0.378863 0.557323
O7    O     O_2   0.802240 0.729720 0.532850 -0.338326
O8    O     O_3   0.017190 0.664840 0.371090 -0.346236
O9    O     O_2   0.929250 0.829847 0.444001 -0.323030
O10   O     O_3   0.688080 0.737315 0.677397 -0.595128
O11   O     O_3   0.962846 0.823619 0.278807 -0.485890
C2    C     C_3   0.995891 0.759495 0.207629 0.339175
H2    H     H_    0.908684 0.698581 0.198098 0.131613
H3    H     H_    0.120380 0.734912 0.218468 -0.052591
C3    C     C_3   0.977364 0.809347 0.125265 0.550191
H4    H     H_    0.848247 0.826536 0.111452 0.147523
C4    C     C_3   0.067768 0.751728 0.718630 0.696362
H5    H     H_    0.968245 0.714110 0.672273 0.126481
C5    C     C_3   0.022403 0.770011 0.812947 -0.841754
H6    H     H_    0.130635 0.795888 0.860978 0.294539
H7    H     H_    0.929957 0.822966 0.816464 0.252708
H8    H     H_    0.970592 0.705043 0.831972 0.254400
Ba1   Ba    Ba6+2 0.833410 0.543320 0.453520 1.682113
C6    C     C_3   0.025208 0.252605 0.353342 0.434346
H9    H     H_    0.910909 0.250390 0.381749 0.011143
H10   H     H_    0.118710 0.289307 0.404354 0.164676
C7    C     C_3   0.076533 0.153244 0.331493 -0.937408
H11   H     H_    0.986719 0.112553 0.280156 0.267013
H12   H     H_    0.088306 0.118119 0.392892 0.234179
H13   H     H_    0.194376 0.154166 0.305081 0.273845
C8    C     C_3   0.570308 0.787408 0.718656 0.788778
H14   H     H_    0.447671 0.770207 0.683047 0.105911
C9    C     C_3   0.605779 0.892413 0.727436 -1.017005
H15   H     H_    0.737624 0.910084 0.737923 0.274291
H16   H     H_    0.550000 0.928961 0.783874 0.296486
H17   H     H_    0.549708 0.918830 0.666539 0.204799
P4    P     P_3+3 0.171070 0.583210 0.704020 0.526679
O12   O     O_2   0.348460 0.555790 0.719610 -0.296831
O13   O     O_3   0.076820 0.552690 0.606290 -0.358662
O14   O     O_3   0.591740 0.384320 0.672310 -0.364924
O15   O     O_3   0.210210 0.703853 0.718664 -0.558805
P5    P     P_3+3 0.143094 0.214053 0.620348 0.465711
O16   O     O_3   0.629090 0.386360 0.459240 -0.334736
O17   O     O_3   0.172500 0.335240 0.628910 -0.384538
O18   O     O_2   0.266953 0.170254 0.562536 -0.406009
O19   O     O_3   0.206136 0.180083 0.725172 -0.447489
Ba2   Ba    Ba6+2 0.356410 0.456750 0.546480 1.646647
P6    P     P_3+3 0.566161 0.602786 0.211100 0.550854
C10   C     C_3   0.452825 0.763934 0.201381 0.299516
H18   H     H_    0.347212 0.732138 0.154663 0.064556
H19   H     H_    0.368699 0.903948 0.206650 0.105513
O20   O     O_3   0.560600 0.613720 0.540760 -0.294637
C11   C     C_3   0.603386 0.255460 0.260078 0.368874
H20   H     H_    0.553380 0.290205 0.202032 0.095708
H21   H     H_    0.705954 0.300339 0.295397 0.135515
C12   C     C_3   0.657944 0.160717 0.224595 -0.981116
H22   H     H_    0.553882 0.117627 0.185979 0.281137
H23   H     H_    0.751807 0.169011 0.180042 0.240669
H24   H     H_    0.708316 0.125312 0.281854 0.281207
P7    P     P_3+3 0.553274 0.268514 0.427934 0.474321
O21   O     O_2   0.387470 0.270310 0.467210 -0.329932
O22   O     O_3   0.480527 0.244249 0.313302 -0.542174
C13   C     C_3   0.137792 0.237282 0.790788 0.406218
H25   H     H_    0.171093 0.312304 0.789969 -0.001265
H26   H     H_    0.004650 0.226252 0.779837 0.006259
C14   C     C_3   0.201753 0.211869 0.882909 0.273040
H27   H     H_    0.330545 0.237285 0.898747 0.091610
H28   H     H_    0.132834 0.248280 0.933807 -0.026790
P8    P     P_3+3 0.632570 0.403944 0.789839 0.476546
C15   C     C_3   0.646510 0.227462 0.806339 1.063653
H29   H     H_    0.733951 0.241503 0.758667 -0.226091
O23   O     O_2   0.519222 0.478005 0.822699 -0.333478
O24   O     O_3   0.569612 0.307530 0.837799 -0.636394
C16   C     C_3   0.743502 0.192027 0.885933 0.077627
H30   H     H_    0.660553 0.182333 0.936727 0.056254
H31   H     H_    0.840048 0.245063 0.916637 0.011722
C17   C     C_R   0.370210 0.537864 0.161166 0.091009
C18   C     C_R   0.123584 0.467023 0.204496 0.225383
C19   C     C_R   0.924640 0.486873 0.769476 -0.399020
C20   C     C_R   0.838545 0.449830 0.830608 0.235728
C21   C     C_R   0.903186 0.453619 0.921050 -0.267962
C22   C     C_R   0.058036 0.496214 0.953087 0.124754
C23   C     C_R   0.141996 0.537221 0.888982 -0.061065
C24   C     C_R   0.131294 0.500506 0.046208 0.061387
C25   C     C_R   0.294794 0.538592 0.070706 -0.180463
C26   C     C_R   0.373821 0.575295 0.003061 0.375945
C27   C     C_R   0.291597 0.581648 0.918732 -0.094210
C28   C     C_R   0.047418 0.468572 0.115523 -0.307788
C29   C     C_R   0.287953 0.493948 0.221802 -0.019929
C30   C     C_R   0.075095 0.531833 0.795915 0.150448
H32   H     H_    0.923329 0.442755 0.101676 0.176731
H33   H     H_    0.870700 0.483379 0.700368 0.161871
H34   H     H_    0.829955 0.422721 0.964380 0.142134
H35   H     H_    0.352450 0.617407 0.873603 0.226655
C31   C     C_R   0.712079 0.937506 0.531306 -0.102043
C32   C     C_R   0.508560 0.803404 0.503058 0.059771
C33   C     C_R   0.346927 0.775678 0.472749 0.013104
C34   C     C_R   0.247021 0.829260 0.420863 0.192578
C35   C     C_R   0.300678 0.916677 0.405210 -0.362345
C36   C     C_R   0.454085 0.952720 0.443433 0.117841
C37   C     C_R   0.561490 0.896316 0.491630 -0.015640
C38   C     C_R   0.644969 0.087457 0.479083 -0.013314
C39   C     C_R   0.755150 0.031066 0.524517 0.066489
C40   C     C_R   0.683914 0.184488 0.482573 0.148699
C41   C     C_R   0.829444 0.222307 0.532033 -0.473259
C42   C     C_R   0.941899 0.165359 0.570548 0.218851
C43   C     C_R   0.904924 0.070288 0.567033 -0.249830
C44   C     C_R   0.497064 0.046133 0.436546 -0.118535
H36   H     H_    0.219412 0.958296 0.366945 0.189137
H37   H     H_    0.992494 0.027522 0.598805 0.206472
H38   H     H_    0.859782 0.296232 0.536551 0.157133
H39   H     H_    0.793163 0.899272 0.572682 0.189905
H40   H     H_    0.411634 0.087066 0.400547 0.160507
Br1   Br    Br    0.577463 0.753327 0.837880 -0.432139
Br2   Br    Br    0.661920 0.926441 0.259442 -0.525298
Br3   Br    Br    0.487708 0.876746 0.061557 -0.497775
Br4   Br    Br    0.030182 0.727133 0.024978 -0.590089
O25   O     O_3   0.183731 0.114327 0.882250 -0.528484
C45   C     C_3   0.278542 0.087748 0.957643 -0.090312
H41   H     H_    0.249072 0.126715 0.021061 0.080070
H42   H     H_    0.409344 0.097521 0.952311 0.139794
H43   H     H_    0.253056 0.012409 0.959690 0.188368
O26   O     O_3   0.524624 0.158309 0.769843 -0.601700
C46   C     C_3   0.553069 0.118002 0.684656 -0.014549
H44   H     H_    0.667871 0.081516 0.689307 0.120400
H45   H     H_    0.555658 0.171973 0.638766 0.140508
H46   H     H_    0.453136 0.066270 0.656859 0.188956
O27   O     O_3   0.814269 0.109083 0.854582 -0.590985
C47   C     C_3   0.834027 0.050881 0.922252 -0.058353
H47   H     H_    0.715042 0.025128 0.937874 0.145408
H48   H     H_    0.907602 0.087649 0.983518 0.101612
H49   H     H_    0.898299 0.989385 0.896939 0.177338
Br5   Br    Br    0.409886 0.452809 0.322296 -0.363263
Br6   Br    Br    0.600639 0.605075 0.005298 -0.391641
Br7   Br    Br    0.250735 0.673407 0.516605 -0.336678
O28   O     O_3   0.084767 0.888815 0.142306 -0.610361
C48   C     C_3   0.029052 0.957532 0.090027 -0.168266
H50   H     H_    0.908390 0.980281 0.105132 0.160883
H51   H     H_    0.026825 0.931763 0.017961 0.160459
H52   H     H_    0.114289 0.019376 0.106715 0.152872
Br8   Br    Br    0.110521 0.870462 0.677755 -0.568811

loop_
_geom_bond_atom_site_label_1
_geom_bond_atom_site_label_2
_geom_bond_distance
_ccdc_geom_bond_type
C22   C23   1.440216 A    
C32   C33   1.399737 A    
C17   C29   1.412258 A    
P2    Ba1   3.407760 S    
O3    P6    1.741327 S    
P3    O8    1.749963 S    
C42   C43   1.392573 A    
C5    H8    1.106595 S    
O26   C46   1.402862 S    
C47   H49   1.107873 S    
O25   C45   1.408933 S    
P5    O17   1.748742 S    
Ba1   O20   2.926849 S    
O7    Ba1   2.849160 S    
C19   H33   1.082577 S    
C4    C5    1.520075 S    
C36   C44   1.406240 A    
O2    Ba1   2.939738 S    
C5    H7    1.107519 S    
C15   O26   1.413884 S    
C6    C7    1.523236 S    
P2    O10   1.752909 S    
C9    H15   1.109768 S    
P3    O9    1.532434 D    
O12   Ba2   2.842981 S    
C11   H21   1.097915 S    
C18   C28   1.421508 A    
C2    C3    1.511776 S    
P1    O1    1.543979 D    
P4    O15   1.746648 S    
C12   H23   1.110256 S    
C8    Br1   1.926537 S    
C41   C42   1.391342 A    
C38   C44   1.399006 A    
C23   C27   1.383092 A    
O11   C2    1.396051 S    
P7    O22   1.757297 S    
P8    O23   1.532663 D    
P1    Ba1   3.390816 S    
C1    Br3   1.937558 S    
C38   C39   1.420500 A    
O8    Ba1   2.801955 S    
O16   P7    1.785166 S    
C3    Br4   1.919285 S    
C46   H46   1.107964 S    
C44   H40   1.081046 S    
O13   Ba2   2.940727 S    
C11   C12   1.516174 S    
C23   C30   1.443736 A    
C38   C40   1.423326 A    
C48   H52   1.108262 S    
C12   H22   1.110974 S    
P4    O13   1.592779 S    
C35   C36   1.395009 A    
O3    Ba1   2.881212 S    
P5    O18   1.541729 D    
C16   O27   1.412067 S    
C31   C39   1.408140 A    
P4    C30   1.906042 S    
C7    H13   1.108859 S    
C4    Br8   1.933411 S    
P2    O20   1.573327 S    
C5    H6    1.110980 S    
C9    H17   1.099687 S    
H1    C10   1.113247 S    
C26   C27   1.389291 A    
C16   H31   1.110445 S    
C21   C22   1.416187 A    
C13   H25   1.113274 S    
C47   H48   1.112829 S    
O14   Ba2   2.880625 S    
C11   H20   1.110506 S    
C20   C21   1.404001 A    
C18   C29   1.398460 A    
Ba1   O13   2.872368 S    
C39   C43   1.401632 A    
P6    C17   1.883713 S    
P1    O2    1.592779 S    
C19   C30   1.385354 A    
C7    H12   1.109954 S    
C12   H24   1.107300 S    
C15   H29   1.120921 S    
C6    H9    1.096946 S    
P3    O11   1.729420 S    
O17   Ba2   2.802493 S    
C2    H2    1.107980 S    
C1    H19   1.106134 S    
C33   Br7   1.890253 S    
C19   C20   1.388460 A    
P7    C40   1.861802 S    
P2    O7    1.518469 D    
C45   H43   1.108417 S    
C35   H36   1.084062 S    
C4    O15   1.397071 S    
C28   H32   1.076526 S    
C22   C24   1.460695 A    
O27   C47   1.403211 S    
C29   Br5   1.894976 S    
C26   Br6   1.924640 S    
P4    O12   1.544420 D    
O6    P6    1.751379 S    
C41   H38   1.082649 S    
O10   C8    1.405830 S    
C34   C35   1.385233 A    
Ba2   O21   2.849227 S    
C45   H42   1.111608 S    
C46   H44   1.109087 S    
C14   O25   1.412774 S    
C32   C37   1.438316 A    
C10   H18   1.108515 S    
Ba1   O16   2.811241 S    
C4    H5    1.100698 S    
C3    O28   1.411932 S    
P2    C32   1.898821 S    
P5    O19   1.745620 S    
O2    Ba2   2.873037 S    
C47   H47   1.113188 S    
C31   H39   1.078366 S    
P1    C18   1.931507 S    
P3    C34   1.825452 S    
C36   C37   1.427318 A    
C31   C37   1.404512 A    
C17   C25   1.438023 A    
C7    H11   1.108048 S    
C8    C9    1.524276 S    
O4    P6    1.544890 D    
C14   H27   1.112679 S    
C6    H10   1.100514 S    
C40   C41   1.402566 A    
C9    H16   1.111449 S    
Ba1   Ba2   4.576964 S    
C25   C26   1.432064 A    
C8    H14   1.102327 S    
C13   C14   1.525143 S    
P5    C42   1.834430 S    
C2    H3    1.109957 S    
C48   H51   1.108611 S    
O19   C13   1.404928 S    
P8    C20   1.827930 S    
C24   C28   1.446457 A    
C33   C34   1.395012 A    
C21   H34   1.077358 S    
C15   O24   1.404875 S    
Ba2   O20   2.810722 S    
C16   H30   1.116927 S    
C11   O22   1.400229 S    
O16   Ba2   2.925882 S    
O5    C6    1.403525 S    
C3    H4    1.115347 S    
C13   H26   1.107278 S    
P7    O21   1.574962 D    
P8    O24   1.745566 S    
C14   H28   1.112338 S    
P1    O5    1.759855 S    
C1    Br2   1.926084 S    
C48   H50   1.113138 S    
O14   P8    1.758671 S    
O1    Ba1   2.842275 S    
C1    C10   1.525757 S    
O6    C10   1.403890 S    
C24   C25   1.442290 A    
O28   C48   1.402170 S    
C15   C16   1.520649 S    
C43   H37   1.079745 S    
C27   H35   1.072944 S    
P4    Ba2   3.391495 S    
C45   H41   1.113397 S    
C46   H45   1.109367 S    
