data_mof_unit_7198.cif
_audit_creation_date              2012-12-11T17:01:12-0500
_audit_creation_method            fapswitch 2.2
_symmetry_space_group_name_H-M    P1
_symmetry_Int_Tables_number       1
_space_group_crystal_system       triclinic
_cell_length_a                    19.310382
_cell_length_b                    7.110593
_cell_length_c                    17.671119
_cell_angle_alpha                 90.001994
_cell_angle_beta                  108.44499
_cell_angle_gamma                 90.001115
_cell_volume                      2301.74185033

loop_
_atom_site_label
_atom_site_type_symbol
_atom_type_description
_atom_site_fract_x
_atom_site_fract_y
_atom_site_fract_z
_atom_type_partial_charge
O1    O     O_R   0.413720 0.494330 0.415730 -0.534305
O2    O     O_R   0.586280 0.994330 0.584270 -0.534303
O3    O     O_R   0.560210 0.819300 0.430070 -0.543227
O4    O     O_R   0.439790 0.319300 0.569930 -0.543229
C1    C     C_R   0.581628 0.655449 0.414682 0.715707
C2    C     C_R   0.418370 0.155449 0.585315 0.715700
O5    O     O_R   0.412670 0.823730 0.406310 -0.543130
O6    O     O_R   0.587330 0.323730 0.593690 -0.543128
O7    O     O_R   0.437690 0.998790 0.560340 -0.539920
O8    O     O_R   0.562310 0.498790 0.439660 -0.539914
C3    C     C_R   0.385139 0.655353 0.383908 0.697675
C4    C     C_R   0.614857 0.155353 0.616099 0.697677
O9    O     O_3   0.508380 0.662350 0.550560 -0.375816
O10   O     O_3   0.491620 0.162350 0.449440 -0.375815
V1    V     V_3+5 0.498450 0.935370 0.490620 1.386079
V2    V     V_3+5 0.501550 0.435370 0.509380 1.386076
C5    C     C_R   0.698463 0.991201 0.736394 0.023013
C6    C     C_R   0.301528 0.491207 0.263623 0.022950
C7    C     C_R   0.682240 0.147309 0.685800 -0.092342
C8    C     C_R   0.317754 0.647311 0.314211 -0.092333
C9    C     C_R   0.731317 0.299791 0.705814 -0.173540
C10   C     C_R   0.268679 0.799789 0.294195 -0.173495
H1    H     H_    0.721143 0.424216 0.668844 0.124248
H2    H     H_    0.278854 0.924218 0.331163 0.124247
C11   C     C_R   0.796842 0.287600 0.770260 -0.102350
C12   C     C_R   0.203155 0.787593 0.229746 -0.102327
H3    H     H_    0.835012 0.403439 0.780845 0.136254
H4    H     H_    0.164986 0.903427 0.219160 0.136229
C13   C     C_R   0.814870 0.123561 0.817467 -0.152904
C14   C     C_R   0.185131 0.623558 0.182534 -0.152874
C15   C     C_R   0.761721 0.981850 0.802132 0.022338
C16   C     C_R   0.238279 0.481850 0.197873 0.022353
C17   C     C_3   0.767753 0.774549 0.790892 0.307734
C18   C     C_3   0.232257 0.274533 0.209122 0.307698
C19   C     C_3   0.699946 0.786999 0.717347 -0.462604
C20   C     C_3   0.300048 0.287011 0.282680 -0.462551
H5    H     H_    0.817706 0.738811 0.775480 0.074437
H6    H     H_    0.182296 0.238764 0.224515 0.074445
H7    H     H_    0.651447 0.708433 0.721054 0.176780
H8    H     H_    0.348555 0.208463 0.278981 0.176808
H9    H     H_    0.712263 0.764460 0.660656 0.137664
H10   H     H_    0.287716 0.264473 0.339364 0.137650
C21   C     C_R   0.322931 0.302694 0.634645 -0.222886
C22   C     C_R   0.677069 0.802671 0.365353 -0.222883
C23   C     C_R   0.368673 0.148595 0.634286 -0.082726
C24   C     C_R   0.631319 0.648596 0.365705 -0.082738
C25   C     C_R   0.366493 0.989277 0.680676 -0.225516
C26   C     C_R   0.633485 0.489311 0.319300 -0.225538
C27   C     C_R   0.319847 0.984077 0.727629 0.091377
C28   C     C_R   0.680120 0.484124 0.272334 0.091388
C29   C     C_R   0.273444 0.138206 0.726736 0.054489
C30   C     C_R   0.726534 0.638221 0.273239 0.054527
C31   C     C_R   0.274831 0.297692 0.679793 0.089662
C32   C     C_R   0.725168 0.797667 0.320205 0.089652
C33   C     C_R   0.318803 0.827599 0.775616 -0.191199
C34   C     C_R   0.681146 0.327690 0.224328 -0.191141
C35   C     C_R   0.271419 0.822402 0.821287 -0.191924
C36   C     C_R   0.728532 0.322492 0.178659 -0.191971
C37   C     C_R   0.224084 0.973156 0.819635 0.086991
C38   C     C_R   0.775881 0.473200 0.180326 0.086778
C39   C     C_R   0.225455 0.132646 0.772720 0.055894
C40   C     C_R   0.774519 0.632662 0.227250 0.055940
C41   C     C_R   0.178931 0.286524 0.771714 0.091196
C42   C     C_R   0.821056 0.786505 0.228270 0.091249
C43   C     C_R   0.180402 0.443692 0.724240 -0.193903
C44   C     C_R   0.819618 0.943620 0.275781 -0.193888
C45   C     C_R   0.227864 0.449134 0.678619 -0.188181
C46   C     C_R   0.772161 0.949060 0.321409 -0.188168
C47   C     C_R   0.175645 0.967344 0.864306 -0.208729
C48   C     C_R   0.824329 0.467372 0.135663 -0.208691
C49   C     C_R   0.129347 0.120551 0.864110 -0.092066
C50   C     C_R   0.870625 0.620560 0.135858 -0.091874
C51   C     C_R   0.131774 0.280399 0.818081 -0.223878
C52   C     C_R   0.868201 0.780388 0.181891 -0.223923
H11   H     H_    0.323905 0.425633 0.598686 0.123282
H12   H     H_    0.676104 0.925589 0.401321 0.123292
H13   H     H_    0.401857 0.870543 0.681132 0.126351
H14   H     H_    0.598120 0.370593 0.318845 0.126359
H15   H     H_    0.354328 0.708523 0.777459 0.133770
H16   H     H_    0.645612 0.208646 0.222475 0.133762
H17   H     H_    0.271379 0.699653 0.857483 0.131097
H18   H     H_    0.728564 0.199782 0.142455 0.131077
H19   H     H_    0.175059 0.844685 0.900562 0.127973
H20   H     H_    0.824926 0.344713 0.099420 0.127976
H21   H     H_    0.096464 0.399159 0.817728 0.126757
H22   H     H_    0.903513 0.899132 0.182246 0.126753
H23   H     H_    0.144993 0.562907 0.722586 0.134108
H24   H     H_    0.855049 0.062792 0.277461 0.134094
H25   H     H_    0.228027 0.572369 0.642601 0.134257
H26   H     H_    0.772025 0.072254 0.357457 0.134237
O11   O     O_R   0.937800 0.775460 0.060470 -0.540866
O12   O     O_R   0.062200 0.275460 0.939530 -0.540817
O13   O     O_R   0.087350 0.441340 0.093710 -0.537310
O14   O     O_R   0.912650 0.941340 0.906290 -0.537306
C53   C     C_R   0.115087 0.610296 0.116022 0.685967
C54   C     C_R   0.884914 0.110295 0.883977 0.685992
O15   O     O_R   0.939820 0.446010 0.069950 -0.541833
O16   O     O_R   0.060180 0.946010 0.930050 -0.541834
O17   O     O_R   0.913690 0.271230 0.915700 -0.530380
O18   O     O_R   0.086310 0.771230 0.084300 -0.530377
C55   C     C_R   0.919544 0.614234 0.085900 0.702616
C56   C     C_R   0.080445 0.114236 0.914087 0.702595
O19   O     O_3   0.991670 0.603050 0.949510 -0.374445
O20   O     O_3   0.008330 0.103050 0.050490 -0.374453
V3    V     V_3+5 0.001550 0.329940 0.009370 1.427587
V4    V     V_3+5 0.998450 0.829940 0.990630 1.427574
O21   O     O_3   0.760909 0.658349 0.854063 -0.560655
C57   C     C_3   0.704531 0.708788 0.886113 0.109525
H27   H     H_    0.681430 0.575501 0.900559 0.139618
H28   H     H_    0.658088 0.786324 0.844584 0.101360
C58   C     C_3   0.735554 0.823142 0.962766 -0.303377
H29   H     H_    0.787453 0.759206 0.998969 0.211263
H30   H     H_    0.747080 0.969481 0.948456 0.176524
C59   C     C_3   0.683001 0.828170 0.011575 -0.832958
H31   H     H_    0.630720 0.895326 0.976693 0.227931
H32   H     H_    0.707628 0.910495 0.066881 0.232869
H33   H     H_    0.672138 0.683524 0.028738 0.238492
O22   O     O_3   0.239144 0.158310 0.145978 -0.560642
C60   C     C_3   0.295530 0.208823 0.113948 0.109335
H34   H     H_    0.318756 0.075577 0.099646 0.139536
H35   H     H_    0.341889 0.286728 0.155429 0.101495
C61   C     C_3   0.264456 0.322719 0.037185 -0.303109
H36   H     H_    0.212729 0.258087 0.000937 0.211158
H37   H     H_    0.252609 0.468921 0.051334 0.176602
C62   C     C_3   0.317143 0.328308 0.988542 -0.833079
H38   H     H_    0.369236 0.396318 0.023442 0.227957
H39   H     H_    0.292427 0.410116 0.933106 0.232915
H40   H     H_    0.328368 0.183764 0.971600 0.238411

loop_
_geom_bond_atom_site_label_1
_geom_bond_atom_site_label_2
_ccdc_geom_bond_type
C18   O22   S    
C44   C46   A    
C41   C43   A    
C2    C23   S    
C20   H10   S    
C58   H29   S    
O1    C3    A    
O2    C4    A    
C2    O7    A    
O20   V4    S    
C59   H31   S    
C25   C27   A    
O5    C3    A    
C7    C9    A    
C36   H18   S    
C44   H24   S    
C17   C19   S    
C35   C37   A    
C32   C46   A    
C50   C55   S    
C36   C38   A    
C54   O17   A    
C45   H25   S    
C57   H27   S    
C38   C40   A    
C26   H14   S    
C47   C49   A    
O22   C60   S    
C40   C42   A    
O13   V3    S    
C21   C31   A    
C58   H30   S    
C30   C32   A    
C27   C29   A    
C17   O21   S    
C62   H40   S    
C46   H26   S    
O21   C57   S    
C15   C17   S    
O19   V4    S    
C48   H20   S    
C18   C20   S    
O12   C56   A    
O15   V3    S    
O5    V1    S    
O6    V2    S    
C21   H11   S    
O11   V4    S    
O11   C55   A    
C19   H9    S    
O20   V3    S    
C22   C24   A    
C43   H23   S    
C23   C25   A    
C11   C13   A    
O17   V3    S    
C24   C26   A    
C3    C8    S    
C37   C39   A    
C48   C50   A    
C20   H8    S    
C50   C52   A    
C49   C51   A    
C53   O18   A    
C41   C51   A    
C43   C45   A    
O16   C56   A    
C17   H5    S    
C29   C31   A    
C42   C44   A    
O4    V2    S    
C19   H7    S    
C14   C53   S    
C47   H19   S    
C33   H15   S    
C28   C30   A    
C38   C48   A    
O6    C4    A    
C27   C33   A    
C39   C41   A    
O19   V3    S    
O1    V2    S    
C52   H22   S    
O14   C54   A    
O2    V1    S    
C21   C23   A    
C51   H21   S    
C60   H35   S    
C37   C47   A    
O4    C2    A    
C49   C56   S    
C8    C10   A    
C12   C14   A    
C33   C35   A    
C62   H38   S    
C5    C15   A    
C10   H2    S    
C6    C16   A    
C25   H13   S    
C61   H37   S    
O3    V1    S    
C60   C61   S    
C9    C11   A    
O14   V4    S    
C18   H6    S    
O18   V4    S    
O3    C1    A    
C34   H16   S    
C13   C54   S    
C59   H32   S    
C60   H34   S    
C57   H28   S    
C11   H3    S    
C1    C24   S    
C12   H4    S    
O16   V4    S    
C57   C58   S    
C61   C62   S    
C9    H1    S    
O7    V1    S    
C1    O8    A    
C13   C15   A    
C30   C40   A    
C14   C16   A    
C29   C39   A    
C4    C7    S    
C26   C28   A    
C5    C7    A    
C34   C36   A    
C58   C59   S    
C6    C8    A    
C31   C45   A    
C35   H17   S    
C28   C34   A    
C59   H33   S    
C22   C32   A    
O12   V3    S    
O13   C53   A    
C10   C12   A    
O9    V2    S    
C62   H39   S    
C42   C52   A    
O10   V1    S    
O8    V2    S    
C5    C19   S    
C22   H12   S    
C61   H36   S    
C6    C20   S    
O15   C55   A    
C16   C18   S    
