data_mof_unit_33702.cif
_audit_creation_date              2012-12-10T16:54:59-0500
_audit_creation_method            fapswitch 2.2
_symmetry_space_group_name_H-M    P1
_symmetry_Int_Tables_number       1
_space_group_crystal_system       triclinic
_cell_length_a                    7.771203
_cell_length_b                    8.57786
_cell_length_c                    15.724163
_cell_angle_alpha                 90.834021
_cell_angle_beta                  85.888482
_cell_angle_gamma                 93.625926
_cell_volume                      1043.3339825

loop_
_atom_site_label
_atom_site_type_symbol
_atom_type_description
_atom_site_fract_x
_atom_site_fract_y
_atom_site_fract_z
_atom_type_partial_charge
C1    C     C_R   0.545766 0.794728 0.497797 0.960660
C2    C     C_2   0.430138 0.041801 0.503394 -0.377034
C3    C     C_R   0.502062 0.499968 0.661584 0.902958
C4    C     C_R   0.454232 0.205272 0.502171 0.963913
C5    C     C_R   0.497919 0.499992 0.338428 0.906181
C6    C     C_3   0.391910 0.629634 0.954005 -0.400940
C7    C     C_3   0.688308 0.522485 0.946485 -0.410968
C8    C     C_3   0.684077 0.528169 0.045005 -0.507024
C9    C     C_1   0.493496 0.500031 0.249736 -0.170044
C10   C     C_3   0.501896 0.496835 0.917152 0.297482
C11   C     C_3   0.130152 0.345610 0.096699 -0.301223
C12   C     C_3   0.392901 0.634604 0.052014 -0.404938
C13   C     C_3   0.494905 0.498563 0.083002 0.243982
C14   C     C_3   0.427657 0.334541 0.048775 0.440929
C15   C     C_3   0.419123 0.338340 0.950753 -0.471756
C16   C     C_1   0.492623 0.499605 0.174450 -0.069057
C17   C     C_1   0.505967 0.497649 0.825636 -0.092237
C18   C     C_1   0.506082 0.498665 0.750307 -0.184809
C19   C     C_2   0.569856 0.958198 0.496523 -0.379261
H1    H     H_    0.456233 0.748234 0.071720 0.185166
H2    H     H_    0.739272 0.643987 0.066322 0.197440
H3    H     H_    0.767612 0.438868 0.067602 0.158747
H4    H     H_    0.284375 0.320224 0.931714 0.181895
H5    H     H_    0.490845 0.240658 0.921037 0.142832
H6    H     H_    0.298165 0.990777 0.509946 0.180830
H7    H     H_    0.986573 0.618001 0.563424 0.191765
H8    H     H_    0.112644 0.408446 0.037131 0.146693
H9    H     H_    0.129885 0.426396 0.152442 0.177293
H10   H     H_    0.015544 0.262649 0.107502 0.181934
H11   H     H_    0.256555 0.611117 0.935369 0.165827
H12   H     H_    0.259289 0.634470 0.081534 0.164412
H13   H     H_    0.531821 0.254918 0.059362 0.089721
H14   H     H_    0.701830 0.009222 0.489965 0.181198
H15   H     H_    0.013429 0.382017 0.436564 0.194439
H16   H     H_    0.444480 0.744177 0.927705 0.177447
H17   H     H_    0.768087 0.426068 0.921855 0.170555
H18   H     H_    0.750678 0.633771 0.920346 0.182598
N1    N     N_2   0.950340 0.457950 0.477370 -0.173156
N2    N     N_2   0.049660 0.542050 0.522630 -0.173601
O1    O     O_R   0.389240 0.738570 0.505550 -0.613093
O2    O     O_R   0.678400 0.711630 0.491050 -0.630776
O3    O     O_R   0.355360 0.513470 0.630110 -0.613572
O4    O     O_R   0.644510 0.486530 0.615610 -0.622363
O5    O     O_R   0.321600 0.288370 0.508950 -0.630161
O6    O     O_R   0.610760 0.261430 0.494450 -0.612883
O7    O     O_R   0.355490 0.513470 0.384390 -0.619577
O8    O     O_R   0.644640 0.486530 0.369890 -0.614839
O9    O     O_3   0.279136 0.259392 0.092882 -0.605414
Zn1   Zn    Zn3+2 0.306930 0.517990 0.509680 0.946493
Zn2   Zn    Zn3+2 0.693070 0.482010 0.490320 0.945337

loop_
_geom_bond_atom_site_label_1
_geom_bond_atom_site_label_2
_ccdc_geom_bond_type
O5    Zn1   S    
C6    C10   S    
C7    C10   S    
C2    C4    S    
C3    O3    A    
C5    C9    S    
C8    C13   S    
N1    Zn2   S    
O8    Zn2   S    
C4    O5    A    
C7    H17   S    
C8    H3    S    
C11   H8    S    
C10   C15   S    
C12   H1    S    
C15   H4    S    
C17   C18   T    
C7    H18   S    
C7    C8    S    
O4    Zn2   S    
C13   C14   S    
C12   C13   S    
C5    O8    A    
O7    Zn1   S    
C3    O4    A    
C11   O9    S    
C11   H9    S    
O6    Zn2   S    
C1    O2    A    
C15   H5    S    
N2    Zn1   S    
C9    C16   T    
C8    H2    S    
C2    H6    S    
C4    O6    A    
C12   H12   S    
C6    C12   S    
N1    N2    D    
H7    N2    S    
C1    C19   S    
C10   C17   S    
O1    Zn1   S    
O2    Zn2   S    
C6    H16   S    
C11   H10   S    
C3    C18   S    
C5    O7    A    
C13   C16   S    
C14   H13   S    
C14   C15   S    
C14   O9    S    
O3    Zn1   S    
C1    O1    A    
C6    H11   S    
C2    C19   D    
H15   N1    S    
C19   H14   S    
