data_mof_unit_48948.cif
_audit_creation_date              2012-12-10T19:07:04-0500
_audit_creation_method            fapswitch 2.2
_symmetry_space_group_name_H-M    P1
_symmetry_Int_Tables_number       1
_space_group_crystal_system       triclinic
_cell_length_a                    27.805826
_cell_length_b                    10.788123
_cell_length_c                    9.57344
_cell_angle_alpha                 90.502433
_cell_angle_beta                  90.82628
_cell_angle_gamma                 90.541765
_cell_volume                      2871.22948787

loop_
_atom_site_label
_atom_site_type_symbol
_atom_type_description
_atom_site_fract_x
_atom_site_fract_y
_atom_site_fract_z
_atom_type_partial_charge
C1    C     C_R   0.501091 0.262487 0.499878 0.845163
C2    C     C_R   0.278557 0.444331 0.600938 -0.167437
C3    C     C_R   0.253913 0.500763 0.490164 0.255952
C4    C     C_R   0.101997 0.499389 0.483679 -0.043682
C5    C     C_R   0.127394 0.387675 0.470634 -0.024410
C6    C     C_R   0.102004 0.275952 0.456410 -0.140843
C7    C     C_R   0.127892 0.611756 0.497084 -0.029767
C8    C     C_R   0.354784 0.500437 0.497423 -0.153298
C9    C     C_R   0.645417 0.499268 0.501494 -0.049274
C10   C     C_R   0.974341 0.382967 0.482572 0.043281
C11   C     C_R   0.974674 0.612054 0.488639 0.043547
C12   C     C_R   0.407596 0.499885 0.499219 0.904404
C13   C     C_R   0.949263 0.497106 0.486933 0.065461
C14   C     C_R   0.947273 0.271284 0.487552 -0.206988
C15   C     C_R   0.897389 0.271756 0.492169 -0.152453
C16   C     C_R   0.872396 0.383326 0.492537 -0.018524
C17   C     C_R   0.898140 0.496290 0.489921 -0.045073
C18   C     C_R   0.872630 0.608429 0.490259 -0.022185
C19   C     C_R   0.822188 0.605562 0.493692 0.538969
C20   C     C_R   0.821976 0.384586 0.496998 0.508155
C21   C     C_R   0.720163 0.453952 0.385242 -0.108852
C22   C     C_R   0.670120 0.455598 0.384533 -0.221642
C23   C     C_R   0.500996 0.737545 0.500572 0.823407
C24   C     C_R   0.671625 0.541278 0.619106 -0.209900
C25   C     C_R   0.721985 0.536710 0.622845 0.032574
C26   C     C_R   0.746409 0.493847 0.503521 0.310300
C27   C     C_R   0.025367 0.383993 0.474939 0.042678
C28   C     C_R   0.050843 0.498694 0.483766 0.069151
C29   C     C_R   0.025809 0.612665 0.493120 0.042574
C30   C     C_R   0.052078 0.273879 0.458236 -0.205041
C31   C     C_R   0.102998 0.722916 0.510054 -0.140996
C32   C     C_R   0.947784 0.722841 0.485284 -0.205404
C33   C     C_R   0.897849 0.720774 0.486322 -0.154002
C34   C     C_R   0.592482 0.500238 0.500694 0.786724
C35   C     C_R   0.053054 0.723646 0.508287 -0.203770
C36   C     C_R   0.495129 0.064623 0.623332 -0.107628
C37   C     C_R   0.505872 0.129470 0.502071 0.011333
C38   C     C_R   0.524178 0.064197 0.387295 -0.211849
C39   C     C_R   0.523597 0.934735 0.386927 -0.213798
C40   C     C_R   0.505764 0.870757 0.502926 0.008866
C41   C     C_R   0.495219 0.937288 0.623959 -0.126352
C42   C     C_3   0.452579 0.930523 0.717110 0.462932
C43   C     C_3   0.452536 0.071509 0.716505 0.479023
C44   C     C_R   0.526135 0.586727 0.075947 0.140491
C45   C     C_R   0.177889 0.390331 0.471458 0.545252
C46   C     C_R   0.470379 0.422247 0.069785 0.056306
C47   C     C_R   0.470566 0.423440 0.921694 -0.039542
C48   C     C_R   0.526800 0.585032 0.928675 0.143086
C49   C     C_3   0.580248 0.598777 0.929086 0.405788
C50   C     C_3   0.579127 0.606473 0.086795 -0.494681
C51   C     C_R   0.178387 0.610215 0.498935 0.552133
C52   C     C_R   0.279799 0.557682 0.383532 -0.100773
C53   C     C_R   0.329918 0.557920 0.387390 -0.306418
C54   C     C_R   0.328714 0.444043 0.604999 0.612837
Cu1   Cu    Cu3+1 0.500000 0.499980 0.640670 1.033052
Cu2   Cu    Cu3+1 0.500000 0.500020 0.359330 0.958791
H1    H     H_    0.261025 0.601719 0.297706 0.167972
H2    H     H_    0.122065 0.810503 0.522130 0.189489
H3    H     H_    0.964110 0.813468 0.479428 0.135027
H4    H     H_    0.652958 0.577786 0.708289 0.198676
H5    H     H_    0.879049 0.808282 0.484281 0.185295
H6    H     H_    0.037004 0.813229 0.522132 0.136149
H7    H     H_    0.537184 0.112538 0.296639 0.148144
H8    H     H_    0.535445 0.885298 0.294844 0.147440
H9    H     H_    0.258706 0.400546 0.683892 0.174889
H10   H     H_    0.460946 0.889713 0.820755 0.000122
H11   H     H_    0.460913 0.115029 0.819779 -0.003807
H12   H     H_    0.447574 0.360049 0.862396 0.188734
H13   H     H_    0.593251 0.684469 0.877630 0.043141
H14   H     H_    0.598184 0.528666 0.137473 0.241813
H15   H     H_    0.588614 0.700038 0.128856 0.138444
H16   H     H_    0.120667 0.188907 0.444023 0.188993
H17   H     H_    0.650805 0.421577 0.292852 0.162772
H18   H     H_    0.738745 0.421565 0.293398 0.151923
H19   H     H_    0.878453 0.183623 0.495944 0.186224
H20   H     H_    0.963467 0.181121 0.490942 0.135478
H21   H     H_    0.035580 0.183934 0.443889 0.135975
H22   H     H_    0.349261 0.604140 0.305130 0.182368
N1    N     N_R   0.202290 0.500489 0.486348 -0.454092
N2    N     N_R   0.798012 0.494715 0.498870 -0.466181
N3    N     N_R   0.500300 0.500930 0.147930 -0.184690
N4    N     N_R   0.500310 0.500890 0.852020 -0.173408
O1    O     O_R   0.500000 0.319640 0.618810 -0.572411
O2    O     O_2   0.797057 0.276718 0.500955 -0.542930
O3    O     O_2   0.203415 0.717363 0.514669 -0.514193
O4    O     O_2   0.797442 0.712580 0.491305 -0.546630
O5    O     O_R   0.500010 0.319680 0.381230 -0.590099
O6    O     O_R   0.430260 0.500000 0.618780 -0.521314
O7    O     O_R   0.430270 0.500040 0.381190 -0.601157
O8    O     O_R   0.499990 0.680320 0.618770 -0.593353
O9    O     O_R   0.500000 0.680360 0.381190 -0.591037
O10   O     O_R   0.569730 0.499960 0.618810 -0.529600
O11   O     O_R   0.569740 0.500000 0.381220 -0.600860
O12   O     O_2   0.202437 0.283764 0.456788 -0.527410
F1    F     F_    0.351577 0.386510 0.712268 -0.634111
C55   C     C_R   0.748041 0.574718 0.752844 0.131722
C56   C     C_R   0.739013 0.690331 0.815605 -0.105080
C57   C     C_R   0.762525 0.724720 0.940334 -0.117857
C58   C     C_R   0.795021 0.643962 0.003774 -0.100558
C59   C     C_R   0.804054 0.528642 0.942566 -0.144147
C60   C     C_R   0.780605 0.493836 0.817907 -0.132189
H23   H     H_    0.713922 0.753939 0.767722 0.129185
H24   H     H_    0.755463 0.813926 0.987986 0.141154
H25   H     H_    0.813057 0.670516 0.100599 0.143802
H26   H     H_    0.828975 0.465789 0.992286 0.140557
H27   H     H_    0.787223 0.403046 0.773691 0.155532
F2    F     F_    0.412685 0.878442 0.649971 -0.592489
F3    F     F_    0.412622 0.120080 0.648950 -0.572658
C61   C     C_R   0.437999 0.330585 0.133167 0.158117
C62   C     C_R   0.452269 0.206571 0.143801 -0.160553
C63   C     C_R   0.420372 0.116783 0.193596 -0.118692
C64   C     C_R   0.373482 0.149509 0.228098 -0.027230
C65   C     C_R   0.358084 0.271214 0.209051 -0.122912
C66   C     C_R   0.389937 0.360802 0.158606 -0.097520
H28   H     H_    0.488000 0.179758 0.112811 0.115069
H29   H     H_    0.431869 0.021726 0.204250 0.149884
H30   H     H_    0.348807 0.080066 0.266731 0.167103
H31   H     H_    0.321363 0.295848 0.231926 0.161050
H32   H     H_    0.377288 0.453712 0.139351 0.134141
F4    F     F_    0.602306 0.490864 0.885579 -0.644867

loop_
_geom_bond_atom_site_label_1
_geom_bond_atom_site_label_2
_ccdc_geom_bond_type
C10   C27   A    
C1    O5    A    
C15   H19   S    
C21   C26   A    
C41   C42   S    
C63   C64   A    
C34   O11   A    
Cu1   Cu2   S    
C2    H9    S    
C3    N1    S    
C51   O3    S    
C56   C57   A    
Cu2   N3    S    
C6    H16   S    
C39   H8    S    
C59   H26   S    
Cu1   O10   S    
C31   H2    S    
C28   C29   A    
C65   C66   A    
Cu1   O8    S    
C5    C6    A    
C9    C22   A    
C49   F4    S    
C15   C16   A    
C18   C19   A    
C47   N4    A    
Cu1   O6    S    
C62   C63   A    
C30   H21   S    
Cu2   O9    S    
C16   C17   A    
C57   H24   S    
C36   C37   A    
C63   H29   S    
C42   F2    S    
C56   H23   S    
C16   C20   A    
C19   O4    S    
C58   H25   S    
C49   H13   S    
C21   C22   A    
C27   C30   A    
C36   C41   A    
C4    C7    A    
C45   O12   S    
C64   C65   A    
C4    C28   A    
C51   N1    A    
Cu2   O11   S    
C7    C31   A    
C20   N2    A    
C12   O7    A    
C24   C25   A    
C44   N3    A    
C10   C14   A    
C8    C54   A    
C39   C40   A    
C12   O6    A    
Cu2   O5    S    
C25   C26   A    
C5    C45   A    
C21   H18   S    
C26   N2    S    
C14   H20   S    
C50   H15   S    
C37   C38   A    
C46   N3    A    
C58   C59   A    
C8    C12   S    
C55   C56   A    
C17   C18   A    
C23   O8    A    
C45   N1    A    
Cu1   N4    S    
C54   F1    S    
C61   C66   A    
C33   H5    S    
C48   C49   S    
C6    C30   A    
C11   C32   A    
C49   C50   S    
C20   O2    S    
C2    C54   A    
C9    C34   S    
C31   C35   A    
C42   C43   S    
Cu1   O1    S    
C47   H12   S    
C52   C53   A    
C38   H7    S    
C44   C50   S    
C60   H27   S    
Cu2   O7    S    
C46   C47   A    
C40   C41   A    
C66   H32   S    
C4    C5    A    
C10   C13   A    
C8    C53   A    
C3    C52   A    
C9    C24   A    
C1    C37   S    
C1    O1    A    
C29   C35   A    
C32   H3    S    
C13   C17   A    
C64   H30   S    
C32   C33   A    
C2    C3    A    
C50   H14   S    
C7    C51   A    
C61   C62   A    
C11   C13   A    
C38   C39   A    
C59   C60   A    
C48   N4    A    
C53   H22   S    
C35   H6    S    
C23   O9    A    
C43   F3    S    
C19   N2    A    
C18   C33   A    
C34   O10   A    
C52   H1    S    
C65   H31   S    
C44   C48   A    
C11   C29   A    
C25   C55   S    
C43   H11   S    
C57   C58   A    
C46   C61   S    
C27   C28   A    
C42   H10   S    
C14   C15   A    
C36   C43   S    
C24   H4    S    
C22   H17   S    
C55   C60   A    
C62   H28   S    
C23   C40   S    
