data_mof_unit_18106.cif
_audit_creation_date              2013-03-05T16:15:16-0500
_audit_creation_method            fapswitch 2.2
_symmetry_space_group_name_H-M    P1
_symmetry_Int_Tables_number       1
_space_group_crystal_system       triclinic
_cell_length_a                    27.8457
_cell_length_b                    10.706759
_cell_length_c                    9.459847
_cell_angle_alpha                 89.259843
_cell_angle_beta                  90.962439
_cell_angle_gamma                 92.193604
_cell_volume                      2817.65527147

loop_
_atom_site_label
_atom_site_type_symbol
_atom_site_description
_atom_site_fract_x
_atom_site_fract_y
_atom_site_fract_z
_atom_type_partial_charge
O1    O     O_R   0.500020 0.316850 0.620870 -0.583215
O2    O     O_R   0.499980 0.683150 0.379130 -0.567358
O3    O     O_R   0.500000 0.316860 0.379090 -0.574553
O4    O     O_R   0.500000 0.683140 0.620910 -0.596034
C1    C     C_R   0.500025 0.259472 0.500861 0.853548
C2    C     C_R   0.500475 0.740435 0.498994 0.814771
O5    O     O_R   0.430270 0.500020 0.620880 -0.576866
O6    O     O_R   0.569730 0.499980 0.379120 -0.525836
O7    O     O_R   0.430250 0.500030 0.379090 -0.555725
O8    O     O_R   0.569750 0.499970 0.620910 -0.593025
C3    C     C_R   0.407842 0.498363 0.499125 0.881629
C4    C     C_R   0.592659 0.503805 0.500979 0.846115
Cu1   Cu    Cu3+1 0.500010 0.499990 0.643150 0.961516
Cu2   Cu    Cu3+1 0.499990 0.500010 0.356850 1.015569
C5    C     C_R   0.179250 0.417960 0.602304 0.567057
C6    C     C_R   0.825683 0.626920 0.506808 0.553649
O9    O     O_2   0.204579 0.330168 0.670335 -0.525741
O10   O     O_2   0.802479 0.734166 0.487628 -0.542489
N1    N     N_R   0.203385 0.505426 0.520383 -0.455830
N2    N     N_R   0.799994 0.519783 0.544430 -0.447615
C7    C     C_R   0.179890 0.598833 0.452294 0.577111
C8    C     C_R   0.823491 0.414483 0.584190 0.578150
C9    C     C_R   0.283537 0.603596 0.562863 -0.075029
C10   C     C_R   0.719221 0.458737 0.637265 -0.064998
C11   C     C_R   0.333381 0.601372 0.555887 -0.289669
C12   C     C_R   0.669420 0.449867 0.619854 -0.288891
C13   C     C_R   0.326753 0.395956 0.448069 0.404470
C14   C     C_R   0.675091 0.573429 0.403916 0.366777
C15   C     C_R   0.276615 0.400240 0.453296 -0.144993
C16   C     C_R   0.725155 0.568505 0.414051 -0.185142
C17   C     C_R   0.254870 0.503300 0.511242 0.256636
C18   C     C_R   0.747917 0.516030 0.532742 0.260104
C19   C     C_R   0.104006 0.515848 0.542540 -0.082363
C20   C     C_R   0.900582 0.521948 0.544672 -0.082954
C21   C     C_R   0.128557 0.420621 0.616061 -0.021635
C22   C     C_R   0.876147 0.625991 0.490944 -0.023652
C23   C     C_R   0.101549 0.337195 0.705212 0.149928
C24   C     C_R   0.902681 0.720138 0.415623 0.123068
C25   C     C_R   0.130241 0.607799 0.465592 -0.079823
C26   C     C_R   0.873851 0.416421 0.593258 -0.071087
C27   C     C_R   0.355313 0.498533 0.498195 -0.159930
C28   C     C_R   0.646161 0.509096 0.505798 -0.154914
H1    H     H_    0.254180 0.322458 0.415595 0.209547
H2    H     H_    0.746801 0.609439 0.330172 0.202709
C29   C     C_R   0.975593 0.416690 0.601554 -0.060553
C30   C     C_R   0.029561 0.624978 0.487769 -0.049978
C31   C     C_R   0.978262 0.622828 0.483885 0.039286
C32   C     C_R   0.026503 0.424470 0.616040 0.042046
C33   C     C_R   0.951651 0.521550 0.545838 0.036490
C34   C     C_R   0.053147 0.520910 0.546972 0.043210
C35   C     C_R   0.947446 0.305501 0.630766 0.327301
C36   C     C_R   0.059003 0.729213 0.442226 0.286465
C37   C     C_R   0.897623 0.309760 0.636057 -0.182038
C38   C     C_R   0.107294 0.713260 0.414849 -0.190691
O11   O     O_2   0.798435 0.306618 0.611048 -0.539033
O12   O     O_2   0.204685 0.683395 0.372118 -0.523713
C39   C     C_R   0.051454 0.344389 0.707331 -0.088558
C40   C     C_R   0.952560 0.711935 0.406345 -0.079690
H3    H     H_    0.649162 0.395317 0.696098 0.174458
H4    H     H_    0.354986 0.679688 0.596549 0.157599
H5    H     H_    0.735266 0.418526 0.731494 0.184572
H6    H     H_    0.267110 0.683062 0.609342 0.167181
H7    H     H_    0.877101 0.225117 0.663322 0.208213
H8    H     H_    0.128348 0.791336 0.371131 0.231017
H9    H     H_    0.031697 0.287416 0.782849 0.186681
H10   H     H_    0.971092 0.774378 0.334102 0.193486
C41   C     C_3   0.496875 0.035932 0.632489 0.228764
C42   C     C_3   0.504374 0.963617 0.366542 0.209260
C43   C     C_3   0.538360 0.960079 0.576654 -0.178614
C44   C     C_3   0.462952 0.039316 0.422224 -0.133759
H11   H     H_    0.569092 0.925717 0.640433 0.161436
H12   H     H_    0.432613 0.070930 0.355249 0.209706
C45   C     C_3   0.500855 0.877251 0.496714 -0.041256
C46   C     C_3   0.500312 0.122441 0.502346 -0.038372
C47   C     C_3   0.459384 0.951582 0.553950 -0.200980
C48   C     C_3   0.541845 0.048131 0.444923 -0.211023
H13   H     H_    0.425691 0.910518 0.599104 0.153002
H14   H     H_    0.575476 0.089305 0.399528 0.158803
C49   C     C_3   0.534017 0.573044 0.051708 -0.013280
C50   C     C_3   0.465475 0.427283 0.947907 -0.039453
C51   C     C_3   0.493967 0.611265 0.947050 -0.124116
C52   C     C_3   0.505554 0.388523 0.052899 -0.068875
H15   H     H_    0.488707 0.705164 0.899393 0.142185
H16   H     H_    0.510960 0.294678 0.100509 0.138572
H17   H     H_    0.560213 0.641534 0.097386 0.213925
H18   H     H_    0.436468 0.366724 0.900056 0.149564
N3    N     N_3   0.500040 0.499970 0.858290 -0.178456
N4    N     N_3   0.499960 0.500030 0.141710 -0.177740
C53   C     C_3   0.539601 0.461772 0.954671 0.263794
C54   C     C_3   0.460052 0.538296 0.045884 0.265544
S1    S     S_3+6 0.352573 0.256035 0.395914 -0.027253
O13   O     O_2   0.384573 0.281020 0.271573 -0.323371
O14   O     O_2   0.381864 0.207865 0.518363 -0.344581
O15   O     O_3   0.309706 0.147914 0.351763 -0.514240
H19   H     H_    0.327233 0.070694 0.335504 0.373749
S2    S     S_3+6 0.652314 0.667858 0.266333 -0.013418
O16   O     O_2   0.642652 0.586781 0.140051 -0.301740
O17   O     O_2   0.607112 0.728375 0.309384 -0.343442
O18   O     O_3   0.693303 0.780464 0.221944 -0.492997
H20   H     H_    0.697779 0.831879 0.307841 0.360048
C55   C     C_3   0.492471 0.074732 0.785800 -0.826175
H21   H     H_    0.490204 0.990180 0.854861 0.221565
H22   H     H_    0.524406 0.133480 0.817853 0.226874
H23   H     H_    0.459538 0.128516 0.798065 0.253788
C56   C     C_3   0.508112 0.925855 0.212646 -0.816634
H24   H     H_    0.509444 0.010849 0.144176 0.220329
H25   H     H_    0.541241 0.873751 0.197772 0.276224
H26   H     H_    0.476331 0.866068 0.181738 0.222735
C57   C     C_3   0.586894 0.413233 0.907719 -0.763075
H27   H     H_    0.606119 0.372344 0.999942 0.231325
H28   H     H_    0.580249 0.339431 0.827747 0.218661
H29   H     H_    0.609236 0.492636 0.865589 0.259050
C58   C     C_3   0.412822 0.588269 0.094857 -0.766508
H30   H     H_    0.393062 0.627293 0.002541 0.206484
H31   H     H_    0.390143 0.511557 0.141464 0.270984
H32   H     H_    0.419831 0.663623 0.172793 0.228404
C59   C     C_3   0.124022 0.240421 0.800439 -0.651832
H33   H     H_    0.096869 0.187697 0.864753 0.221749
H34   H     H_    0.142109 0.170818 0.735947 0.273446
H35   H     H_    0.149966 0.286462 0.875414 0.244117
C60   C     C_3   0.879141 0.823811 0.333211 -0.645205
H36   H     H_    0.905329 0.879589 0.268605 0.235058
H37   H     H_    0.851278 0.783831 0.259676 0.231246
H38   H     H_    0.862869 0.889510 0.406619 0.277492
S3    S     S_3+6 0.969405 0.153595 0.614182 0.056520
O19   O     O_2   0.013730 0.158014 0.525709 -0.158196
O20   O     O_2   0.980758 0.099363 0.757818 -0.295913
O21   O     O_3   0.927408 0.060926 0.533458 -0.487487
H39   H     H_    0.910836 0.013847 0.610435 0.364199
S4    S     S_3+6 0.044390 0.885568 0.473152 0.058193
O22   O     O_2   0.028746 0.947561 0.337462 -0.222191
O23   O     O_2   0.005042 0.888197 0.579569 -0.216740
O24   O     O_3   0.092990 0.965800 0.537117 -0.477202
H40   H     H_    0.098122 0.931648 0.633847 0.350588

loop_
_geom_bond_atom_site_label_1
_geom_bond_atom_site_label_2
_geom_bond_distance
_ccdc_geom_bond_type
C10   H5    1.082110 S    
C53   C57   1.509825 S    
C13   C15   1.400360 A    
S4    O23   1.501626 D    
N1    C17   1.438771 S    
O21   H39   0.990598 S    
C41   C47   1.541621 S    
C32   C39   1.403565 A    
C31   C33   1.415998 A    
O5    C3    1.300942 A    
C56   H25   1.108062 S    
C41   C55   1.521976 S    
C55   H21   1.109975 S    
C52   C53   1.526824 S    
C46   C48   1.538925 S    
O1    C1    1.297793 A    
N1    C7    1.364682 A    
C10   C12   1.393524 A    
C50   N3    1.484508 S    
C57   H28   1.109277 S    
C25   C38   1.394483 A    
C29   C35   1.426623 A    
S2    O18   1.682356 S    
C30   C36   1.425709 A    
C1    C46   1.467374 S    
C43   C48   1.554935 S    
C54   C58   1.520296 S    
C14   C28   1.420822 A    
O4    Cu1   1.969503 S    
C43   H11   1.110284 S    
C60   H38   1.109021 S    
C50   H18   1.110375 S    
C24   C40   1.399337 A    
C40   H10   1.074221 S    
C9    H6    1.082905 S    
S2    O17   1.502131 D    
C44   C46   1.539125 S    
S3    O21   1.684021 S    
C4    C28   1.488677 S    
C43   C45   1.539109 S    
C11   H4    1.083951 S    
C12   H3    1.075688 S    
O6    C4    1.308695 A    
C58   H32   1.109531 S    
C32   C34   1.408445 A    
C55   H22   1.109692 S    
Cu1   Cu2   2.708341 S    
C15   H1    1.082304 S    
C45   C47   1.537080 S    
C16   H2    1.082519 S    
O2    C2    1.295719 A    
C5    C21   1.421147 A    
C49   N4    1.479367 S    
C51   H15   1.110302 S    
C36   C38   1.390988 A    
C56   H26   1.109595 S    
C60   H37   1.110513 S    
C35   S3    1.769096 S    
C50   C52   1.546550 S    
C59   H35   1.110174 S    
C11   C27   1.400488 A    
S1    O13   1.502647 D    
C49   C51   1.542323 S    
C19   C34   1.420649 A    
C58   H31   1.108189 S    
C35   C37   1.391610 A    
C9    C17   1.401313 A    
C5    N1    1.371040 A    
O7    Cu2   1.956841 S    
C10   C18   1.402068 A    
S1    O14   1.502681 D    
C47   H13   1.110415 S    
C13   C27   1.413297 A    
O18   H20   0.990831 S    
C7    C25   1.397387 A    
C29   C33   1.418790 A    
C6    N2    1.374535 A    
C8    C26   1.402857 A    
S2    O16   1.500386 D    
Cu1   N3    2.035176 S    
C41   C46   1.533112 S    
C19   C25   1.406088 A    
C13   S1    1.765820 S    
O7    C3    1.304395 A    
C60   H36   1.110931 S    
C51   N3    1.483112 S    
O3    Cu2   1.969502 S    
O8    C4    1.310294 A    
C51   C54   1.526650 S    
O4    C2    1.299315 A    
N4    C54   1.488592 S    
C55   H23   1.109853 S    
C52   H16   1.110267 S    
N3    C53   1.484315 S    
O24   H40   0.991166 S    
C20   C26   1.405542 A    
C57   H29   1.108037 S    
S4    O24   1.682978 S    
O1    Cu1   1.974848 S    
C42   C56   1.522252 S    
N2    C8    1.370357 A    
C49   H17   1.101461 S    
C12   C28   1.405708 A    
C2    C45   1.464374 S    
C58   H30   1.109949 S    
N2    C18   1.451544 S    
C29   C32   1.421302 A    
C5    O9    1.347230 S    
C30   C31   1.427618 A    
C20   C33   1.422087 A    
O6    Cu2   1.949843 S    
C21   C23   1.423068 A    
C6    O10   1.347717 S    
C48   H14   1.110290 S    
O3    C1    1.298540 A    
O8    Cu1   1.956841 S    
S1    O15   1.682048 S    
C7    O12   1.350426 S    
C8    O11   1.349743 S    
C42   C48   1.541529 S    
C56   H24   1.109965 S    
C30   C34   1.419182 A    
C14   S2    1.762312 S    
C36   S4    1.767041 S    
C59   H34   1.109972 S    
S4    O22   1.503094 D    
C42   C45   1.532556 S    
Cu2   N4    2.035176 S    
C14   C16   1.398711 A    
C15   C17   1.400933 A    
C57   H27   1.109838 S    
C6    C22   1.416135 A    
C31   C40   1.406063 A    
C16   C18   1.401837 A    
C37   H7    1.083336 S    
S3    O19   1.501767 D    
C38   H8    1.084082 S    
C52   N4    1.483239 S    
C22   C24   1.418382 A    
C19   C21   1.417634 A    
C3    C27   1.462670 S    
C20   C22   1.412074 A    
C9    C11   1.391741 A    
C50   C54   1.530190 S    
O15   H19   0.991012 S    
O2    Cu2   1.974847 S    
C49   C53   1.527545 S    
C24   C60   1.511855 S    
O5    Cu1   1.949843 S    
C23   C59   1.511050 S    
C42   C44   1.538760 S    
C26   C37   1.393980 A    
C44   C47   1.553001 S    
S3    O20   1.504188 D    
C44   H12   1.108170 S    
C41   C43   1.541558 S    
C59   H33   1.111023 S    
C23   C39   1.400469 A    
C39   H9    1.077674 S    
