data_mof_unit_53325.cif
_audit_creation_date              2013-03-05T16:21:59-0500
_audit_creation_method            fapswitch 2.2
_symmetry_space_group_name_H-M    P1
_symmetry_Int_Tables_number       1
_space_group_crystal_system       triclinic
_cell_length_a                    15.139774
_cell_length_b                    13.823388
_cell_length_c                    10.679649
_cell_angle_alpha                 90.00005
_cell_angle_beta                  89.915738
_cell_angle_gamma                 90.0
_cell_volume                      2235.06624677

loop_
_atom_site_label
_atom_site_type_symbol
_atom_site_description
_atom_site_fract_x
_atom_site_fract_y
_atom_site_fract_z
_atom_type_partial_charge
O1    O     O_R   0.371460 0.581430 0.500010 -0.575796
O2    O     O_R   0.628540 0.418570 0.499990 -0.574639
O3    O     O_R   0.628540 0.581430 0.499990 -0.575797
O4    O     O_R   0.371460 0.418570 0.500010 -0.574639
C1    C     C_R   0.329828 0.499990 0.500181 0.842975
C2    C     C_R   0.670172 0.499990 0.499819 0.842976
O5    O     O_R   0.499990 0.581440 0.319660 -0.591837
O6    O     O_R   0.500010 0.418560 0.680340 -0.582751
O7    O     O_R   0.500010 0.581440 0.680340 -0.591837
O8    O     O_R   0.499990 0.418560 0.319660 -0.582751
C3    C     C_R   0.487598 0.499957 0.261991 0.861865
C4    C     C_R   0.512401 0.499957 0.738009 0.861865
Cu1   Cu    Cu3+1 0.500000 0.596430 0.500000 1.022811
Cu2   Cu    Cu3+1 0.500000 0.403570 0.500000 1.029634
H1    H     H_    0.446907 0.166487 0.085636 0.198891
H2    H     H_    0.553827 0.832709 0.915209 0.199577
H3    H     H_    0.553095 0.166487 0.914363 0.198891
H4    H     H_    0.446171 0.832709 0.084792 0.199577
C5    C     C_R   0.442968 0.676968 0.104348 0.376039
C6    C     C_R   0.556278 0.322181 0.894842 0.376900
C7    C     C_R   0.557031 0.676968 0.895652 0.376038
C8    C     C_R   0.443723 0.322180 0.105158 0.376900
C9    C     C_R   0.470397 0.764144 0.049793 -0.295683
C10   C     C_R   0.529172 0.235065 0.949749 -0.284515
C11   C     C_R   0.529602 0.764144 0.950207 -0.295683
C12   C     C_R   0.470830 0.235065 0.050250 -0.284516
C13   C     C_R   0.521934 0.588187 0.941760 -0.088742
C14   C     C_R   0.478248 0.411119 0.058450 -0.091922
C15   C     C_R   0.478066 0.588187 0.058240 -0.088742
C16   C     C_R   0.521753 0.411119 0.941550 -0.091922
C17   C     C_R   0.528171 0.499733 0.875370 -0.052704
C18   C     C_R   0.471829 0.499732 0.124630 -0.052703
C19   C     C_R   0.095249 0.582634 0.462509 -0.157869
C20   C     C_R   0.904728 0.416876 0.462781 -0.140925
C21   C     C_R   0.904751 0.582634 0.537491 -0.157869
C22   C     C_R   0.095272 0.416876 0.537219 -0.140925
H5    H     H_    0.060894 0.646871 0.431063 0.142173
H6    H     H_    0.939073 0.352590 0.431339 0.140235
H7    H     H_    0.939105 0.646871 0.568937 0.142173
H8    H     H_    0.060926 0.352590 0.568661 0.140235
C23   C     C_R   0.187034 0.582990 0.463636 -0.110129
C24   C     C_R   0.812929 0.416713 0.463736 -0.144577
C25   C     C_R   0.812966 0.582990 0.536364 -0.110129
C26   C     C_R   0.187071 0.416713 0.536264 -0.144577
H9    H     H_    0.221634 0.647786 0.434457 0.197944
H10   H     H_    0.778281 0.352037 0.434328 0.150177
H11   H     H_    0.778366 0.647786 0.565544 0.197944
H12   H     H_    0.221719 0.352037 0.565672 0.150177
C27   C     C_R   0.233423 0.499909 0.500011 -0.019283
C28   C     C_R   0.766577 0.499909 0.499989 -0.019282
C29   C     C_R   0.048575 0.499730 0.499904 0.097637
C30   C     C_R   0.951425 0.499730 0.500096 0.097637
C31   C     C_R   0.566220 0.107986 0.437462 -0.249702
C32   C     C_R   0.460371 0.892104 0.597790 -0.249990
C33   C     C_R   0.433780 0.107986 0.562539 -0.249702
C34   C     C_R   0.539629 0.892104 0.402210 -0.249991
H13   H     H_    0.620063 0.072065 0.389807 0.130344
H14   H     H_    0.430521 0.928005 0.677225 0.126626
H15   H     H_    0.379937 0.072065 0.610193 0.130344
H16   H     H_    0.569478 0.928004 0.322775 0.126626
C35   C     C_R   0.564494 0.209551 0.437654 0.169017
C36   C     C_R   0.460121 0.790543 0.595112 0.161406
C37   C     C_R   0.435506 0.209552 0.562346 0.169016
C38   C     C_R   0.539879 0.790543 0.404888 0.161406
H17   H     H_    0.615386 0.249103 0.388272 0.103848
H18   H     H_    0.428553 0.751157 0.670338 0.112669
H19   H     H_    0.384614 0.249103 0.611728 0.103848
H20   H     H_    0.571447 0.751157 0.329662 0.112669
N1    N     N_R   0.500000 0.258690 0.500000 -0.159768
N2    N     N_R   0.500000 0.741310 0.500000 -0.162353
C39   C     C_R   0.500000 0.054753 0.500000 0.130263
C40   C     C_R   0.500000 0.945340 0.500000 0.135379
N3    N     N_R   0.373048 0.679016 0.196108 0.129107
O9    O     O_R   0.316939 0.607924 0.203291 -0.349054
O10   O     O_R   0.357880 0.757029 0.260898 -0.384194
N4    N     N_R   0.625134 0.319664 0.801533 0.135292
O11   O     O_R   0.637484 0.242395 0.734101 -0.372634
O12   O     O_R   0.682326 0.389698 0.793942 -0.333760
N5    N     N_R   0.626951 0.679017 0.803893 0.129108
O13   O     O_R   0.683060 0.607925 0.796709 -0.349054
O14   O     O_R   0.642119 0.757030 0.739103 -0.384194
N6    N     N_R   0.374867 0.319663 0.198466 0.135292
O15   O     O_R   0.362517 0.242394 0.265899 -0.372634
O16   O     O_R   0.317675 0.389696 0.206056 -0.333759

loop_
_geom_bond_atom_site_label_1
_geom_bond_atom_site_label_2
_geom_bond_distance
_ccdc_geom_bond_type
C26   C27   1.401489 A    
C33   H15   1.081141 S    
C13   C15   1.409298 A    
N3    O9    1.301183 A    
C5    C9    1.401207 A    
C20   C24   1.389836 A    
O3    C2    1.290216 A    
C6    C16   1.425749 A    
O5    C3    1.297523 A    
C36   N2    1.362962 A    
O1    C1    1.290217 A    
C8    N6    1.441491 S    
C10   C12   1.389025 A    
C15   C18   1.416524 A    
C16   C17   1.417483 A    
Cu1   N2    2.002731 S    
C6    N4    1.441492 S    
C24   H10   1.083334 S    
O7    Cu1   1.937083 S    
C22   H8    1.082742 S    
C31   C35   1.404224 A    
C37   N1    1.362433 A    
C34   C40   1.410803 A    
C33   C37   1.404225 A    
C34   C38   1.404214 A    
C38   N2    1.362962 A    
C21   C25   1.389683 A    
O3    Cu1   1.957082 S    
C7    C13   1.424848 A    
C8    C14   1.425750 A    
Cu1   Cu2   2.665980 S    
N3    O10   1.301532 A    
C1    C27   1.459560 S    
O2    C2    1.289969 A    
C23   C27   1.401399 A    
C37   H19   1.081447 S    
H3    C10   1.082711 S    
C36   H18   1.081274 S    
C13   C17   1.416523 A    
C29   C30   1.470820 S    
C6    C10   1.400621 A    
C14   C18   1.417485 A    
N4    O11   1.301568 A    
O8    Cu2   1.937084 S    
N5    O14   1.301532 A    
C31   H13   1.081141 S    
H1    C12   1.082711 S    
C32   C36   1.404214 A    
C19   H5    1.082742 S    
H4    C9    1.082662 S    
C21   H7    1.082742 S    
C35   H17   1.081447 S    
C5    N3    1.441750 S    
O6    C4    1.296489 A    
C7    N5    1.441751 S    
C2    C28   1.459560 S    
C22   C29   1.404014 A    
C24   C28   1.401489 A    
C3    C18   1.486618 S    
N6    O16   1.301283 A    
C4    C17   1.486618 S    
Cu2   N1    2.002731 S    
C22   C26   1.389836 A    
O1    Cu1   1.957082 S    
C31   C39   1.410927 A    
C38   H20   1.081274 S    
C32   H14   1.081229 S    
C35   N1    1.362433 A    
H2    C11   1.082661 S    
C7    C11   1.401207 A    
O6    Cu2   1.937083 S    
C20   H6    1.082741 S    
N4    O12   1.301283 A    
O4    C1    1.289970 A    
C25   C28   1.401399 A    
C19   C29   1.404039 A    
C20   C30   1.404014 A    
C19   C23   1.389683 A    
C14   C16   1.410685 A    
C39   C40   1.512461 S    
C9    C11   1.389880 A    
O4    Cu2   1.957082 S    
O2    Cu2   1.957082 S    
O7    C4    1.297523 A    
O8    C3    1.296488 A    
N5    O13   1.301182 A    
C34   H16   1.081229 S    
O5    Cu1   1.937084 S    
C32   C40   1.410803 A    
N6    O15   1.301566 A    
C8    C12   1.400620 A    
C21   C30   1.404039 A    
C23   H9    1.083196 S    
C25   H11   1.083197 S    
C33   C39   1.410926 A    
C26   H12   1.083333 S    
C5    C15   1.424848 A    
