data_mof_unit_6198.cif
_audit_creation_date              2012-12-10T17:23:37-0500
_audit_creation_method            fapswitch 2.2
_symmetry_space_group_name_H-M    P1
_symmetry_Int_Tables_number       1
_space_group_crystal_system       triclinic
_cell_length_a                    10.166991
_cell_length_b                    10.790907
_cell_length_c                    15.728596
_cell_angle_alpha                 89.997101
_cell_angle_beta                  80.689666
_cell_angle_gamma                 94.993378
_cell_volume                      1696.23065969

loop_
_atom_site_label
_atom_site_type_symbol
_atom_type_description
_atom_site_fract_x
_atom_site_fract_y
_atom_site_fract_z
_atom_type_partial_charge
C1    C     C_R   0.555861 0.732670 0.491660 0.934097
C2    C     C_3   0.493963 0.382595 0.973413 0.023280
C3    C     C_3   0.611546 0.564581 0.957195 -0.295480
C4    C     C_3   0.388476 0.435866 0.042922 -0.295337
C5    C     C_1   0.497543 0.498204 0.751036 -0.179569
C6    C     C_1   0.502475 0.501926 0.249011 -0.176272
C7    C     C_3   0.391259 0.553268 0.985629 0.017170
C8    C     C_3   0.608754 0.447192 0.014494 0.017266
C9    C     C_3   0.495561 0.499141 0.917275 0.105195
C10   C     C_3   0.504452 0.501271 0.082817 0.105209
C11   C     C_1   0.495681 0.497910 0.826423 -0.071399
C12   C     C_R   0.444193 0.267341 0.502870 0.937049
C13   C     C_1   0.504338 0.502353 0.173643 -0.071763
C14   C     C_2   0.587508 0.864564 0.477878 -0.366401
C15   C     C_2   0.412749 0.135470 0.495455 -0.369352
C16   C     C_R   0.508906 0.748173 0.060970 0.121242
C17   C     C_R   0.405105 0.780547 0.125060 -0.139647
C18   C     C_R   0.406667 0.900869 0.157903 -0.145594
C19   C     C_R   0.511917 0.989605 0.127180 -0.101532
C20   C     C_R   0.615667 0.958239 0.063400 -0.108995
C21   C     C_R   0.614351 0.837962 0.030269 -0.164329
C22   C     C_R   0.491353 0.252014 0.939611 0.120899
C23   C     C_2   0.488261 0.933790 0.469040 -0.151144
C24   C     C_R   0.595405 0.219335 0.875821 -0.138313
C25   C     C_R   0.594592 0.098522 0.843856 -0.145786
C26   C     C_R   0.489778 0.009627 0.875102 -0.103208
C27   C     C_R   0.385698 0.041330 0.938517 -0.108372
C28   C     C_R   0.386316 0.162076 0.970820 -0.164436
C29   C     C_R   0.729625 0.384547 0.030447 0.116744
C30   C     C_R   0.850698 0.402512 0.972689 -0.165339
C31   C     C_R   0.961318 0.341044 0.986139 -0.124986
C32   C     C_R   0.952159 0.261627 0.057373 -0.128250
C33   C     C_R   0.831822 0.242402 0.114707 -0.143834
C34   C     C_2   0.512340 0.066275 0.466553 -0.159998
C35   C     C_R   0.720647 0.302717 0.100947 -0.145893
C36   C     C_R   0.270369 0.616025 0.969862 0.116365
C37   C     C_R   0.149600 0.598501 0.027953 -0.165710
C38   C     C_R   0.038993 0.660159 0.014739 -0.125096
C39   C     C_R   0.047881 0.739393 0.943437 -0.128978
C40   C     C_R   0.167928 0.758213 0.885783 -0.142664
C41   C     C_R   0.279075 0.697643 0.899273 -0.146429
C42   C     C_2   0.927134 0.509577 0.506714 0.108186
C43   C     C_2   0.072893 0.490491 0.493230 0.106363
C44   C     C_R   0.499412 0.499442 0.662058 0.905867
C45   C     C_R   0.500589 0.500566 0.337954 0.898007
C46   C     C_3   0.506056 0.617833 0.026725 0.023150
H1    H     H_    0.701281 0.616460 0.919641 0.137379
H2    H     H_    0.326298 0.925303 0.207221 0.134991
H3    H     H_    0.512431 0.082666 0.152562 0.119728
H4    H     H_    0.696626 0.027295 0.039079 0.147670
H5    H     H_    0.695428 0.815702 0.980828 0.114649
H6    H     H_    0.677040 0.287480 0.850807 0.135547
H7    H     H_    0.675262 0.073801 0.794862 0.135681
H8    H     H_    0.489912 0.916151 0.850467 0.119819
H9    H     H_    0.305097 0.972142 0.963249 0.147940
H10   H     H_    0.305094 0.184538 0.020087 0.114764
H11   H     H_    0.859640 0.462975 0.916802 0.136060
H12   H     H_    0.298713 0.384043 0.080488 0.137319
H13   H     H_    0.054357 0.355342 0.941450 0.147154
H14   H     H_    0.038051 0.214577 0.067883 0.120027
H15   H     H_    0.824287 0.179974 0.169482 0.135964
H16   H     H_    0.627815 0.285480 0.145294 0.123272
H17   H     H_    0.140895 0.538224 0.083918 0.135892
H18   H     H_    0.946180 0.646166 0.059672 0.147168
H19   H     H_    0.962008 0.786618 0.933118 0.120134
H20   H     H_    0.175252 0.820504 0.830956 0.137256
H21   H     H_    0.371677 0.714564 0.854663 0.123609
H22   H     H_    0.188189 0.669200 0.616797 0.370609
H23   H     H_    0.614927 0.106436 0.447694 0.191842
H24   H     H_    0.811730 0.330603 0.383338 0.367159
H25   H     H_    0.385814 0.893649 0.470944 0.195464
H26   H     H_    0.310497 0.094805 0.514489 0.157919
H27   H     H_    0.689615 0.905208 0.476241 0.157248
H28   H     H_    0.111050 0.422790 0.446736 0.146765
H29   H     H_    0.888998 0.577342 0.553164 0.146277
H30   H     H_    0.323222 0.712474 0.149756 0.135223
N1    N     N_2   0.842700 0.448880 0.465440 0.023020
N2    N     N_2   0.157300 0.551120 0.534560 0.021780
O1    O     O_R   0.431060 0.692470 0.506960 -0.618783
O2    O     O_3   0.890623 0.365713 0.407701 -0.724687
O3    O     O_R   0.568940 0.307530 0.493040 -0.616755
O4    O     O_R   0.651120 0.659650 0.484770 -0.622609
O5    O     O_R   0.348880 0.340350 0.515230 -0.622435
O6    O     O_R   0.389990 0.516420 0.634310 -0.610556
O7    O     O_R   0.610010 0.483580 0.365690 -0.613822
O8    O     O_R   0.610050 0.483600 0.612130 -0.621626
O9    O     O_R   0.389950 0.516400 0.387870 -0.625323
O10   O     O_3   0.109325 0.634159 0.592380 -0.724390
Zn1   Zn    Zn3+2 0.353060 0.521920 0.514810 0.966279
Zn2   Zn    Zn3+2 0.646940 0.478080 0.485190 0.967396

loop_
_geom_bond_atom_site_label_1
_geom_bond_atom_site_label_2
_ccdc_geom_bond_type
C24   H6    S    
C16   C21   A    
C6    C45   S    
C7    C36   S    
C2    C4    S    
C19   C20   A    
C28   H10   S    
C41   H21   S    
C43   N2    D    
C15   H26   S    
C42   H29   S    
C37   C38   A    
C8    C29   S    
C36   C37   A    
C45   O9    A    
C25   H7    S    
C5    C11   T    
C30   C31   A    
C27   H9    S    
C30   H11   S    
C18   C19   A    
C31   H13   S    
C20   H4    S    
C16   C17   A    
C10   C46   S    
C17   H30   S    
C15   C34   D    
C43   H28   S    
C22   C28   A    
C39   H19   S    
C36   C41   A    
C4    C7    S    
C44   O8    A    
C26   H8    S    
C37   H17   S    
C38   H18   S    
N2    Zn1   S    
O5    Zn1   S    
N1    Zn2   S    
H24   O2    S    
C7    C46   S    
C23   H25   S    
C24   C25   A    
C3    C8    S    
O8    Zn2   S    
C16   C46   S    
C39   C40   A    
C1    O4    A    
C12   O5    A    
C14   C23   D    
C45   O7    A    
C14   H27   S    
C2    C22   S    
C29   C30   A    
C3    C9    S    
C19   H3    S    
C31   C32   A    
C12   C15   S    
C23   C34   S    
C17   C18   A    
C26   C27   A    
C9    C11   S    
C34   H23   S    
O3    Zn2   S    
C8    C10   S    
C40   C41   A    
C5    C44   S    
O9    Zn1   S    
C1    O1    A    
C22   C24   A    
C42   C43   S    
C32   H14   S    
C4    C10   S    
C21   H5    S    
N1    O2    S    
N2    O10   S    
C7    C9    S    
C2    C8    S    
C44   O6    A    
C10   C13   S    
C18   H2    S    
O7    Zn2   S    
C29   C35   A    
C3    C46   S    
O4    Zn2   S    
C32   C33   A    
C25   C26   A    
C6    C13   T    
C38   C39   A    
H22   O10   S    
C3    H1    S    
C33   C35   A    
C12   O3    A    
C35   H16   S    
O1    Zn1   S    
C20   C21   A    
C42   N1    D    
C33   H15   S    
O6    Zn1   S    
C4    H12   S    
C27   C28   A    
C40   H20   S    
C1    C14   S    
C2    C9    S    
