data_mof_unit_50311.cif
_audit_creation_date              2012-12-10T17:08:49-0500
_audit_creation_method            fapswitch 2.2
_symmetry_space_group_name_H-M    P1
_symmetry_Int_Tables_number       1
_space_group_crystal_system       triclinic
_cell_length_a                    27.751353
_cell_length_b                    10.905948
_cell_length_c                    9.951961
_cell_angle_alpha                 110.629744
_cell_angle_beta                  98.349145
_cell_angle_gamma                 92.234123
_cell_volume                      2775.74631265

loop_
_atom_site_label
_atom_site_type_symbol
_atom_type_description
_atom_site_fract_x
_atom_site_fract_y
_atom_site_fract_z
_atom_type_partial_charge
C1    C     C_R   0.498363 0.253888 0.441755 0.839418
C2    C     C_R   0.505068 0.746536 0.558472 0.831146
C3    C     C_R   0.103418 0.518331 0.533259 -0.168129
C4    C     C_R   0.896590 0.482262 0.467615 -0.168646
C5    C     C_R   0.129467 0.421159 0.567469 -0.048535
C6    C     C_R   0.870536 0.579368 0.433277 -0.048371
C7    C     C_R   0.104558 0.328083 0.607940 0.442782
C8    C     C_R   0.895450 0.672454 0.392832 0.442303
C9    C     C_R   0.129176 0.621907 0.511407 -0.170856
C10   C     C_R   0.870837 0.378723 0.489539 -0.170235
C11   C     C_R   0.354664 0.505788 0.505427 -0.190422
C12   C     C_R   0.645308 0.494176 0.494800 -0.177597
C13   C     C_R   0.973951 0.389481 0.511402 -0.024025
C14   C     C_R   0.026060 0.611146 0.489551 -0.024019
C15   C     C_R   0.973911 0.594667 0.460508 0.078415
C16   C     C_R   0.026100 0.405947 0.540415 0.078407
C17   C     C_R   0.948316 0.489022 0.480551 -0.003010
C18   C     C_R   0.051694 0.511592 0.520370 -0.002876
C19   C     C_R   0.946505 0.272145 0.500567 0.378070
C20   C     C_R   0.053506 0.728496 0.500429 0.378236
C21   C     C_R   0.895311 0.268697 0.494549 0.349398
C22   C     C_R   0.104702 0.731958 0.506478 0.349774
C23   C     C_R   0.407645 0.501116 0.501169 0.945971
C24   C     C_R   0.592343 0.498794 0.498856 0.933694
C25   C     C_R   0.053704 0.325256 0.599247 -0.210897
C26   C     C_R   0.946311 0.675338 0.401638 -0.210908
C27   C     C_2   0.501291 0.113496 0.414177 0.182720
C28   C     C_2   0.510295 0.888247 0.587624 0.169508
C29   C     C_2   0.528827 0.074918 0.513586 0.278381
C30   C     C_2   0.528151 0.933797 0.492706 0.262978
C31   C     C_2   0.506855 0.501031 0.075640 0.560402
C32   C     C_2   0.496441 0.484680 0.917308 0.551840
C33   C     C_R   0.180079 0.422819 0.563867 0.699170
C34   C     C_R   0.819910 0.577622 0.436715 0.698761
C35   C     C_R   0.178979 0.613111 0.498477 0.681088
C36   C     C_R   0.821034 0.387514 0.502439 0.680353
C37   C     C_R   0.288271 0.595973 0.635574 0.322405
C38   C     C_R   0.711771 0.403512 0.365353 0.320227
C39   C     C_R   0.338923 0.589966 0.632081 0.236432
C40   C     C_R   0.661107 0.409175 0.368762 0.237576
C41   C     C_R   0.320195 0.424042 0.384888 0.283421
C42   C     C_R   0.679692 0.576770 0.614989 0.275911
C43   C     C_R   0.269692 0.426859 0.392199 0.269245
C44   C     C_R   0.730206 0.574144 0.607825 0.266002
C45   C     C_R   0.254310 0.511882 0.517695 0.149518
C46   C     C_R   0.745666 0.488501 0.482802 0.151711
Cu1   Cu    Cu3+1 0.508480 0.521810 0.644910 1.133119
Cu2   Cu    Cu3+1 0.491520 0.478190 0.355090 1.135242
H1    H     H_    0.036516 0.262044 0.644597 0.197318
H2    H     H_    0.963506 0.738571 0.356325 0.197303
N1    N     N_R   0.203077 0.515301 0.525481 -0.426089
N2    N     N_R   0.796916 0.485198 0.475199 -0.424948
N3    N     N_2   0.478780 0.445430 0.137360 -0.065027
N4    N     N_2   0.521220 0.554570 0.862640 -0.063179
O1    O     O_R   0.504520 0.332330 0.577400 -0.523810
O2    O     O_R   0.495480 0.667670 0.422600 -0.531267
O3    O     O_R   0.490210 0.295500 0.332650 -0.551766
O4    O     O_R   0.509790 0.704500 0.667350 -0.565137
O5    O     O_R   0.437420 0.518430 0.622370 -0.517950
O6    O     O_R   0.562580 0.481570 0.377630 -0.514556
O7    O     O_R   0.423110 0.481600 0.377610 -0.565971
O8    O     O_R   0.576890 0.518400 0.622390 -0.553165
O9    O     O_2   0.206213 0.331847 0.595615 -0.403869
O10   O     O_2   0.793760 0.668442 0.404693 -0.407855
O11   O     O_2   0.797002 0.301888 0.545724 -0.460816
O12   O     O_2   0.203027 0.698849 0.455383 -0.454338
O13   O     O_3   0.337421 0.340261 0.265114 -0.667258
H3    H     H_    0.309984 0.289027 0.188174 0.398353
O14   O     O_3   0.662360 0.660984 0.734322 -0.671656
H4    H     H_    0.689751 0.713276 0.810768 0.393422
Cl1   Cl    Cl    0.490257 0.994437 0.744903 -0.456738
Cl2   Cl    Cl    0.466129 0.998980 0.252861 -0.473849
Cl3   Cl    Cl    0.454584 0.351369 0.797686 -0.435905
Cl4   Cl    Cl    0.564404 0.582775 0.172682 -0.460322
O15   O     O_3   0.542365 0.673399 0.953277 -0.561587
H5    H     H_    0.558920 0.710076 0.892315 0.397097
O16   O     O_3   0.433300 0.397531 0.065837 -0.565562
H6    H     H_    0.419134 0.353873 0.124828 0.412991
Cl5   Cl    Cl    0.224567 0.326661 0.245572 -0.499987
Cl6   Cl    Cl    0.775244 0.675192 0.754154 -0.508488
O17   O     O_3   0.130240 0.242182 0.658169 -0.622366
H7    H     H_    0.107116 0.181814 0.678379 0.339550
O18   O     O_3   0.869772 0.758323 0.342544 -0.624315
H8    H     H_    0.892899 0.818706 0.322367 0.339203
O19   O     O_3   0.626439 0.332190 0.251744 -0.669651
H9    H     H_    0.639498 0.319240 0.160726 0.363322
O20   O     O_3   0.373634 0.665722 0.749699 -0.645701
H10   H     H_    0.360468 0.678147 0.840448 0.368393
O21   O     O_3   0.729674 0.315399 0.250326 -0.681082
H11   H     H_    0.705947 0.236138 0.203911 0.354903
O22   O     O_3   0.270449 0.683541 0.751167 -0.675521
H12   H     H_    0.294258 0.762581 0.798164 0.364371
O23   O     O_3   0.869937 0.153623 0.484611 -0.665067
H13   H     H_    0.841209 0.134438 0.405902 0.373915
O24   O     O_3   0.130078 0.847056 0.516493 -0.663166
H14   H     H_    0.158799 0.866219 0.595221 0.375525
O25   O     O_3   0.969509 0.157770 0.478158 -0.724682
H15   H     H_    0.946551 0.083868 0.472804 0.383416
O26   O     O_3   0.030499 0.842866 0.522848 -0.724579
H16   H     H_    0.053453 0.916771 0.528197 0.383514
O27   O     O_3   0.546631 0.848933 0.376609 -0.643548
H17   H     H_    0.560797 0.901083 0.325321 0.375069
O28   O     O_3   0.558568 0.166855 0.633637 -0.678624
H18   H     H_    0.577972 0.119472 0.687991 0.356636

loop_
_geom_bond_atom_site_label_1
_geom_bond_atom_site_label_2
_ccdc_geom_bond_type
O20   H10   S    
O23   H13   S    
C27   C29   D    
C8    O18   S    
C8    C26   A    
C22   O24   S    
C14   C18   A    
O24   H14   S    
C39   O20   S    
Cu1   O8    S    
O25   H15   S    
C19   O25   S    
Cu2   O3    S    
C41   O13   S    
O19   H9    S    
C23   O5    A    
C38   O21   S    
O27   H17   S    
C19   C21   A    
C26   H2    S    
C9    C22   A    
C45   N1    S    
C43   Cl5   S    
C46   N2    S    
C29   O28   S    
C3    C18   A    
Cu2   O2    S    
C12   C42   A    
O26   H16   S    
C5    C33   A    
C36   N2    A    
C24   O6    A    
C1    C27   S    
C41   C43   A    
C42   C44   A    
C32   N4    D    
C44   C46   A    
Cu2   O6    S    
C10   C21   A    
Cu2   N3    S    
C37   O22   S    
O13   H3    S    
Cu1   Cu2   S    
C14   C20   A    
C44   Cl6   S    
C4    C6    A    
O22   H12   S    
C5    C7    A    
C13   C19   A    
C36   O11   S    
C15   C26   A    
C6    C8    A    
C35   O12   S    
O16   H6    S    
C42   O14   S    
O17   H7    S    
C6    C34   A    
C40   O19   S    
C12   C40   A    
N3    O16   S    
O15   H5    S    
C29   C30   S    
C3    C9    A    
C1    O3    A    
O18   H8    S    
C33   O9    S    
C34   O10   S    
C31   N3    D    
C11   C39   A    
C43   C45   A    
Cu1   N4    S    
C4    C17   A    
C7    O17   S    
C20   C22   A    
C35   N1    A    
C28   Cl1   S    
C37   C45   A    
C32   Cl3   S    
Cu1   O1    S    
C16   C25   A    
C15   C17   A    
C24   O8    A    
C31   C32   S    
C3    C5    A    
C10   C36   A    
C2    O4    A    
C33   N1    A    
C12   C24   S    
C34   N2    A    
C7    C25   A    
C13   C17   A    
C28   C30   D    
C1    O1    A    
C37   C39   A    
C2    O2    A    
Cu1   O4    S    
C38   C40   A    
Cu2   O7    S    
C20   O26   S    
C21   O23   S    
C30   O27   S    
C11   C23   S    
C11   C41   A    
O14   H4    S    
C31   Cl4   S    
C25   H1    S    
C38   C46   A    
Cu1   O5    S    
N4    O15   S    
C23   O7    A    
C16   C18   A    
C13   C16   A    
O28   H18   S    
C9    C35   A    
C14   C15   A    
C2    C28   S    
O21   H11   S    
C4    C10   A    
C27   Cl2   S    
