data_mof_unit_29574.cif
_audit_creation_date              2012-12-10T18:02:47-0500
_audit_creation_method            fapswitch 2.2
_symmetry_space_group_name_H-M    P1
_symmetry_Int_Tables_number       1
_space_group_crystal_system       triclinic
_cell_length_a                    10.81818
_cell_length_b                    9.480028
_cell_length_c                    27.811515
_cell_angle_alpha                 89.971039
_cell_angle_beta                  90.392839
_cell_angle_gamma                 89.977768
_cell_volume                      2852.18816664

loop_
_atom_site_label
_atom_site_type_symbol
_atom_type_description
_atom_site_fract_x
_atom_site_fract_y
_atom_site_fract_z
_atom_type_partial_charge
C1    C     C_R   0.261963 0.500023 0.500059 0.759791
C2    C     C_R   0.393314 0.427044 0.871112 -0.147246
C3    C     C_R   0.492166 0.499794 0.353671 -0.273089
C4    C     C_R   0.508240 0.499633 0.646418 -0.272933
C5    C     C_R   0.385530 0.426600 0.973215 -0.030928
C6    C     C_R   0.608852 0.412292 0.026936 -0.031179
C7    C     C_R   0.612853 0.425592 0.976148 0.090260
C8    C     C_R   0.382802 0.439759 0.024026 0.091663
C9    C     C_R   0.500653 0.428432 0.949383 0.072608
C10   C     C_R   0.494604 0.428296 0.050784 0.072694
C11   C     C_R   0.276743 0.412797 0.945376 -0.298005
C12   C     C_R   0.738038 0.499990 0.499980 0.758887
C13   C     C_R   0.715625 0.384406 0.054729 -0.298321
C14   C     C_R   0.279328 0.414451 0.895116 0.523228
C15   C     C_R   0.713285 0.385962 0.104993 0.522465
C16   C     C_R   0.499574 0.500349 0.407169 0.869384
C17   C     C_R   0.500738 0.500295 0.592862 0.867561
C18   C     C_R   0.272398 0.469074 0.048949 -0.207890
C19   C     C_R   0.725424 0.441204 0.951265 -0.207769
C20   C     C_R   0.063936 0.371790 0.499999 -0.193017
C21   C     C_R   0.936060 0.628238 0.499930 -0.188597
C22   C     C_R   0.936159 0.371771 0.500067 -0.193302
C23   C     C_R   0.492198 0.434908 0.101750 -0.117327
C24   C     C_R   0.063842 0.628257 0.500014 -0.189046
C25   C     C_R   0.871803 0.499993 0.499990 -0.016176
C26   C     C_R   0.128197 0.500033 0.500029 -0.016641
C27   C     C_R   0.419783 0.074587 0.471289 -0.000926
C28   C     C_R   0.580105 0.925339 0.528769 -0.036983
C29   C     C_R   0.580243 0.074416 0.528688 0.000427
C30   C     C_R   0.419911 0.925496 0.471219 -0.036078
C31   C     C_R   0.380920 0.482369 0.175434 0.565388
C32   C     C_R   0.618852 0.470175 0.824830 0.570768
C33   C     C_R   0.594641 0.420977 0.179635 0.592136
C34   C     C_R   0.503748 0.435224 0.898427 -0.117445
C35   C     C_R   0.400810 0.434096 0.820508 0.589395
C36   C     C_R   0.533312 0.601689 0.273874 0.090276
C37   C     C_R   0.472578 0.604590 0.726138 0.090119
C38   C     C_R   0.545871 0.609008 0.324940 0.042401
C39   C     C_R   0.458613 0.611440 0.675121 0.042715
C40   C     C_R   0.430912 0.385094 0.330989 0.344575
C41   C     C_R   0.565661 0.382429 0.669230 0.344495
C42   C     C_R   0.435882 0.369552 0.280965 0.431020
C43   C     C_R   0.559621 0.367046 0.719283 0.432762
C44   C     C_R   0.484979 0.477512 0.252683 0.143182
C45   C     C_R   0.380681 0.466088 0.125395 0.006399
C46   C     C_R   0.515135 0.477817 0.747478 0.141813
C47   C     C_3   0.255789 0.330174 0.371787 -0.329353
C48   C     C_3   0.739770 0.320770 0.628939 -0.336462
C49   C     C_3   0.277800 0.221792 0.257235 -0.230472
C50   C     C_3   0.709549 0.206516 0.741900 -0.230148
C51   C     C_3   0.384467 0.731931 0.652084 -0.332764
C52   C     C_3   0.259902 0.680627 0.632476 -0.781559
C53   C     C_3   0.622660 0.726943 0.348125 -0.335478
C54   C     C_3   0.745704 0.671480 0.367894 -0.784559
C55   C     C_3   0.442623 0.730247 0.758414 -0.362053
C56   C     C_R   0.617560 0.452851 0.874828 0.002727
C57   C     C_3   0.537943 0.848095 0.752637 -0.789362
C58   C     C_3   0.571180 0.723974 0.241370 -0.370185
C59   C     C_3   0.479891 0.846700 0.245065 -0.769847
C60   C     C_3   0.104140 0.526425 0.870567 -0.249725
C61   C     C_3   0.899375 0.472417 0.129393 -0.245819
C62   C     C_R   0.271954 0.483808 0.098619 -0.154968
C63   C     C_R   0.727329 0.456368 0.901615 -0.152586
C64   C     C_R   0.601268 0.412924 0.129031 -0.147612
Cu1   Cu    Cu3+1 0.500000 0.640660 0.500000 0.925435
Cu2   Cu    Cu3+1 0.500000 0.359340 0.500000 0.972132
H1    H     H_    0.355524 0.131024 0.448420 0.147958
H2    H     H_    0.813485 0.448754 0.969512 0.133606
H3    H     H_    0.112107 0.271586 0.499946 0.146910
H4    H     H_    0.887886 0.728442 0.499842 0.147994
H5    H     H_    0.888065 0.271561 0.500166 0.146764
H6    H     H_    0.111940 0.728467 0.500047 0.148035
H7    H     H_    0.204657 0.241687 0.388532 0.174509
H8    H     H_    0.199650 0.368260 0.340741 0.144657
H9    H     H_    0.263307 0.415537 0.398926 0.157715
H10   H     H_    0.789599 0.229591 0.613312 0.173091
H11   H     H_    0.795617 0.359329 0.659986 0.146047
H12   H     H_    0.644097 0.868806 0.551804 0.119146
H13   H     H_    0.735226 0.404348 0.601040 0.161491
H14   H     H_    0.223540 0.321607 0.256038 0.170497
H15   H     H_    0.255256 0.162394 0.223960 0.179733
H16   H     H_    0.247894 0.156113 0.288061 0.189468
H17   H     H_    0.770099 0.301426 0.742692 0.175458
H18   H     H_    0.730143 0.145003 0.774938 0.178111
H19   H     H_    0.733275 0.138671 0.710809 0.189976
H20   H     H_    0.203443 0.637260 0.662238 0.250970
H21   H     H_    0.209159 0.770472 0.615969 0.231142
H22   H     H_    0.271162 0.597925 0.604733 0.244532
H23   H     H_    0.644573 0.130710 0.551504 0.146252
H24   H     H_    0.362984 0.818231 0.677208 0.205518
H25   H     H_    0.438434 0.786652 0.624070 0.221929
H26   H     H_    0.731981 0.589065 0.395587 0.243694
H27   H     H_    0.801382 0.626387 0.338211 0.250328
H28   H     H_    0.798485 0.759502 0.384520 0.231762
H29   H     H_    0.646122 0.812919 0.323120 0.204750
H30   H     H_    0.569849 0.783060 0.376137 0.222932
H31   H     H_    0.630633 0.809815 0.764119 0.259162
H32   H     H_    0.543700 0.885058 0.714884 0.255212
H33   H     H_    0.512171 0.939069 0.775628 0.268641
H34   H     H_    0.355941 0.869080 0.448177 0.120173
H35   H     H_    0.347343 0.769134 0.751769 0.204315
H36   H     H_    0.443324 0.702284 0.797063 0.200652
H37   H     H_    0.387204 0.812756 0.232107 0.263602
H38   H     H_    0.471232 0.885009 0.282563 0.254717
H39   H     H_    0.511725 0.935574 0.222266 0.264656
H40   H     H_    0.667149 0.758408 0.249231 0.203909
H41   H     H_    0.573581 0.693910 0.202931 0.201319
H42   H     H_    0.161731 0.615999 0.857621 0.155506
H43   H     H_    0.068162 0.548976 0.907130 0.127428
H44   H     H_    0.023604 0.517498 0.845866 0.208171
H45   H     H_    0.185550 0.509398 0.115986 0.166280
H46   H     H_    0.852209 0.569259 0.142653 0.156707
H47   H     H_    0.936717 0.490262 0.092732 0.125008
H48   H     H_    0.978878 0.451662 0.153781 0.204957
H49   H     H_    0.815730 0.470720 0.884268 0.173907
H50   H     H_    0.187755 0.396730 0.961771 0.154374
H51   H     H_    0.802387 0.356961 0.038274 0.156341
H52   H     H_    0.185588 0.487844 0.030730 0.131294
N1    N     N_R   0.486529 0.458688 0.201399 -0.429884
N2    N     N_R   0.511785 0.459091 0.798781 -0.430184
N3    N     N_R   0.500000 0.852070 0.500000 -0.156578
N4    N     N_R   0.500000 0.147930 0.500000 -0.162989
O1    O     O_R   0.319640 0.618740 0.500000 -0.589729
O2    O     O_2   0.725930 0.500125 0.802437 -0.585214
O3    O     O_2   0.298422 0.419177 0.793026 -0.486121
O4    O     O_2   0.695300 0.394498 0.207080 -0.487125
O5    O     O_3   0.373459 0.280847 0.357620 -0.549284
O6    O     O_3   0.620353 0.276095 0.642701 -0.550351
O7    O     O_3   0.406980 0.241939 0.259253 -0.558301
O8    O     O_3   0.581991 0.237768 0.741115 -0.561299
O9    O     O_3   0.169838 0.397853 0.869728 -0.533929
O10   O     O_3   0.820248 0.354195 0.130347 -0.533766
O11   O     O_R   0.680360 0.381260 0.500000 -0.594541
O12   O     O_R   0.680360 0.618740 0.500000 -0.589229
O13   O     O_R   0.319640 0.381260 0.500000 -0.593319
O14   O     O_R   0.500020 0.618770 0.430260 -0.593232
O15   O     O_R   0.499980 0.381230 0.569740 -0.528124
O16   O     O_R   0.499980 0.618770 0.569740 -0.592754
O17   O     O_R   0.500020 0.381230 0.430260 -0.529091
O18   O     O_2   0.276930 0.523565 0.197974 -0.587120

loop_
_geom_bond_atom_site_label_1
_geom_bond_atom_site_label_2
_ccdc_geom_bond_type
C2    C35   A    
C49   H16   S    
C39   C51   S    
C34   C56   A    
C23   C45   A    
C53   H29   S    
C48   H10   S    
C29   H23   S    
C50   H18   S    
C53   C54   S    
C5    C9    A    
Cu2   O15   S    
C55   H36   S    
C59   H39   S    
C59   H38   S    
C48   H13   S    
C28   C29   A    
C24   C26   A    
C5    C11   A    
C36   C58   S    
C51   H24   S    
C11   C14   A    
C4    C41   A    
C57   H33   S    
C30   H34   S    
C45   C62   A    
C58   H41   S    
C49   H15   S    
C35   O3    S    
C32   O2    S    
C54   H27   S    
C60   H43   S    
C50   O8    S    
C61   O10   S    
C51   H25   S    
Cu2   O17   S    
C3    C38   A    
C19   C63   A    
C22   C25   A    
C15   C64   A    
Cu2   N4    S    
C17   O16   A    
Cu1   N3    S    
C28   H12   S    
C18   H52   S    
Cu1   O12   S    
C50   H19   S    
C63   H49   S    
C2    C34   A    
C40   C42   A    
C12   O12   A    
C53   H30   S    
C41   C43   A    
C41   O6    S    
C35   N2    A    
C42   C44   A    
C32   N2    A    
C60   O9    S    
C27   N4    A    
C50   H17   S    
C14   O9    S    
C43   O8    S    
C15   O10   S    
C21   H4    S    
C51   C52   S    
C52   H22   S    
C60   H44   S    
C47   H7    S    
C28   N3    A    
C18   C62   A    
C44   N1    S    
C58   C59   S    
C40   O5    S    
C49   O7    S    
C8    C18   A    
C58   H40   S    
C48   H11   S    
C1    O1    A    
C54   H26   S    
C48   O6    S    
Cu2   O11   S    
C30   N3    A    
C57   H31   S    
C29   N4    A    
C56   C63   A    
C46   N2    S    
C19   H2    S    
C62   H45   S    
C11   H50   S    
C31   N1    A    
Cu1   O16   S    
C23   C64   A    
C20   C22   A    
C3    C40   A    
C33   N1    A    
C7    C19   A    
C12   O11   A    
C55   C57   S    
C61   H47   S    
C1    C26   S    
C20   H3    S    
C36   C44   A    
C16   O17   A    
C4    C17   S    
C36   C38   A    
C16   O14   A    
C22   H5    S    
C24   H6    S    
C7    C9    A    
C21   C25   A    
C52   H21   S    
C47   H8    S    
C60   H42   S    
C6    C10   A    
C5    C8    A    
C13   H51   S    
C47   O5    S    
C6    C7    A    
C10   C23   A    
C55   H35   S    
C4    C39   A    
C49   H14   S    
C12   C25   S    
C59   H37   S    
C13   C15   A    
C37   C46   A    
C47   H9    S    
C37   C39   A    
C6    C13   A    
C9    C34   A    
C38   C53   S    
C20   C26   A    
C33   C64   A    
C57   H32   S    
C52   H20   S    
C33   O4    S    
C42   O7    S    
Cu1   O1    S    
C2    C14   A    
C43   C46   A    
C54   H28   S    
Cu1   O14   S    
C27   H1    S    
Cu2   O13   S    
C37   C55   S    
C8    C10   A    
Cu1   Cu2   S    
C31   C45   A    
C21   C24   A    
C61   H48   S    
C17   O15   A    
C31   O18   S    
C1    O13   A    
C61   H46   S    
C32   C56   A    
C3    C16   S    
C27   C30   A    
