data_mof_unit_45026.cif
_audit_creation_date              2012-12-10T17:15:47-0500
_audit_creation_method            fapswitch 2.2
_symmetry_space_group_name_H-M    P1
_symmetry_Int_Tables_number       1
_space_group_crystal_system       triclinic
_cell_length_a                    10.191874
_cell_length_b                    10.689208
_cell_length_c                    10.887528
_cell_angle_alpha                 92.595449
_cell_angle_beta                  95.532549
_cell_angle_gamma                 80.742002
_cell_volume                      1164.68140126

loop_
_atom_site_label
_atom_site_type_symbol
_atom_type_description
_atom_site_fract_x
_atom_site_fract_y
_atom_site_fract_z
_atom_type_partial_charge
C1    C     C_R   0.444265 0.505748 0.267768 0.885893
C2    C     C_2   0.487256 0.514598 0.934890 -0.227417
C3    C     C_2   0.072079 0.489049 0.490139 -0.174980
C4    C     C_R   0.499801 0.260370 0.494913 0.865945
C5    C     C_2   0.927428 0.509236 0.513693 0.001810
C6    C     C_R   0.555839 0.496189 0.731994 0.956195
C7    C     C_R   0.500104 0.739438 0.504575 0.879556
C8    C     C_R   0.596458 0.096295 0.288988 -0.168029
C9    C     C_R   0.637746 0.015107 0.191093 -0.059602
C10   C     C_R   0.618258 0.889618 0.187633 -0.116359
C11   C     C_R   0.564972 0.842828 0.285538 -0.146767
C12   C     C_R   0.544759 0.049566 0.390731 0.080652
C13   C     C_R   0.534692 0.920488 0.391505 0.099975
C14   C     C_2   0.882169 0.598468 0.613853 0.984547
C15   C     C_2   0.433995 0.901921 0.722199 0.900822
C16   C     C_2   0.600577 0.353532 0.085796 0.918933
C17   C     C_R   0.502162 0.127267 0.492090 -0.115371
C18   C     C_R   0.462254 0.078330 0.595935 -0.212369
C19   C     C_R   0.461971 0.950110 0.602654 -0.041230
C20   C     C_R   0.495729 0.872121 0.498723 -0.153408
C21   C     C_2   0.413970 0.521379 0.136974 -0.449208
C22   C     C_2   0.502400 0.469251 0.058806 0.067760
C23   C     C_2   0.587468 0.488616 0.862783 -0.315170
H1    H     H_    0.434333 0.140805 0.673836 0.187570
H2    H     H_    0.389214 0.562350 0.899725 0.190704
H3    H     H_    0.859328 0.625867 0.795422 0.335852
H4    H     H_    0.335284 0.791238 0.812997 0.333194
H5    H     H_    0.783834 0.276171 0.157775 0.321593
H6    H     H_    0.688033 0.448373 0.898207 0.187823
H7    H     H_    0.329067 0.591782 0.106485 0.163279
H8    H     H_    0.106976 0.419819 0.419759 0.169979
H9    H     H_    0.879578 0.386678 0.380562 0.185574
H10   H     H_    0.124213 0.617215 0.617683 0.201159
H11   H     H_    0.607587 0.194493 0.284791 0.165336
H12   H     H_    0.684134 0.048928 0.116730 0.195768
H13   H     H_    0.645444 0.828043 0.109344 0.165250
H14   H     H_    0.549350 0.745214 0.277238 0.154424
N1    N     N_2   0.157290 0.551390 0.551110 -0.176918
N2    N     N_2   0.842740 0.448550 0.448960 -0.222941
O1    O     O_R   0.568950 0.489660 0.307530 -0.583994
O2    O     O_R   0.890207 0.555614 0.734083 -0.800757
O3    O     O_2   0.485082 0.942891 0.818893 -0.610385
O4    O     O_R   0.346108 0.814731 0.725768 -0.781347
O5    O     O_2   0.576296 0.252452 0.040206 -0.641291
O6    O     O_R   0.724521 0.361710 0.150157 -0.798375
O7    O     O_R   0.348880 0.522640 0.340350 -0.605335
O8    O     O_R   0.610060 0.300270 0.483590 -0.615438
O9    O     O_R   0.389990 0.333260 0.516410 -0.610713
O10   O     O_R   0.651120 0.477360 0.659650 -0.591920
O11   O     O_R   0.431050 0.510340 0.692470 -0.596766
O12   O     O_R   0.610010 0.666740 0.483590 -0.600461
O13   O     O_R   0.389940 0.699730 0.516410 -0.564796
O14   O     O_2   0.847828 0.710967 0.593088 -0.619667
Zn1   Zn    Zn3+2 0.646940 0.477980 0.478090 1.004960
Zn2   Zn    Zn3+2 0.353060 0.522020 0.521910 0.996457

loop_
_geom_bond_atom_site_label_1
_geom_bond_atom_site_label_2
_ccdc_geom_bond_type
C12   C17   A    
C2    C22   S    
O9    Zn2   S    
C3    H8    S    
C1    C21   S    
O7    Zn2   S    
C21   H7    S    
C16   O5    D    
C15   O3    D    
C19   C20   A    
C13   C20   A    
O13   Zn2   S    
C8    C12   A    
O12   Zn1   S    
O11   Zn2   S    
C5    N2    D    
C17   C18   A    
C15   O4    S    
C8    H11   S    
C21   C22   D    
C6    O11   A    
C15   C19   S    
C11   C13   A    
C5    C14   S    
C14   O2    S    
C18   H1    S    
C6    C23   S    
C23   H6    S    
C10   H13   S    
C7    O13   A    
C18   C19   A    
C2    H2    S    
O1    Zn1   S    
O8    Zn1   S    
C6    O10   A    
C4    O9    A    
H5    O6    S    
C1    O7    A    
N2    Zn1   S    
C10   C11   A    
C4    C17   S    
C16   O6    S    
C7    O12   A    
O10   Zn1   S    
H4    O4    S    
C14   O14   D    
C12   C13   A    
C3    N1    D    
C11   H14   S    
C7    C20   S    
C9    C10   A    
H9    N2    S    
C2    C23   D    
C9    H12   S    
C16   C22   S    
C1    O1    A    
N1    Zn2   S    
H10   N1    S    
H3    O2    S    
C8    C9    A    
C3    C5    S    
C4    O8    A    
