data_mof_unit_62176.cif
_audit_creation_date              2012-10-26T20:08:34-0400
_audit_creation_method            fapswitch 2.2
_symmetry_space_group_name_H-M    P1
_symmetry_Int_Tables_number       1
_space_group_crystal_system       triclinic
_cell_length_a                    15.977945
_cell_length_b                    14.432678
_cell_length_c                    13.144762
_cell_angle_alpha                 89.999935
_cell_angle_beta                  89.994887
_cell_angle_gamma                 90.000181
_cell_volume                      3031.24172038

loop_
_atom_site_label
_atom_site_type_symbol
_atom_type_description
_atom_site_fract_x
_atom_site_fract_y
_atom_site_fract_z
_atom_type_partial_charge
C1    C     C_R   0.500000 0.328698 0.500000 0.550915
C2    C     C_1   0.500000 0.500029 0.949319 -0.051212
C3    C     C_R   0.338090 0.498960 0.500002 0.559322
C4    C     C_R   0.661910 0.498965 0.499990 0.559339
C5    C     C_R   0.500000 0.671300 0.500000 0.550796
C6    C     C_3   0.048123 0.463677 0.594844 -0.232307
C7    C     C_3   0.048039 0.461597 0.405478 -0.231611
C8    C     C_3   0.951956 0.473595 0.600031 -0.231608
C9    C     C_3   0.951879 0.452406 0.412087 -0.232365
C10   C     C_1   0.750858 0.503124 0.499909 -0.050224
C11   C     C_1   0.249142 0.503126 0.499974 -0.050220
C12   C     C_1   0.500001 0.142305 0.499999 -0.045363
C13   C     C_3   0.082540 0.514898 0.499527 0.086277
C14   C     C_3   0.917461 0.514864 0.498947 0.086274
C15   C     C_3   0.949437 0.618814 0.484094 0.091117
C16   C     C_3   0.050566 0.619724 0.498855 0.091073
C17   C     C_1   0.825774 0.507963 0.499606 -0.076630
C18   C     C_1   0.174226 0.507975 0.499816 -0.076619
C19   C     C_1   0.500000 0.227118 0.500000 -0.048990
C20   C     C_3   0.077974 0.667825 0.600299 -0.385269
C21   C     C_3   0.096644 0.676475 0.414395 -0.384098
C22   C     C_3   0.903359 0.685415 0.559382 -0.384186
C23   C     C_1   0.500001 0.042401 0.499999 -0.004091
C24   C     C_3   0.922034 0.654022 0.376454 -0.385239
C25   C     C_1   0.500001 0.957591 0.499999 -0.004467
C26   C     C_1   0.500001 0.857688 0.499999 -0.046783
C27   C     C_1   0.500001 0.772877 0.499999 -0.051205
C28   C     C_1   0.500000 0.500026 0.173626 0.118258
C29   C     C_1   0.500000 0.500026 0.826374 0.118387
C30   C     C_1   0.500000 0.500029 0.050681 -0.051252
Cu1   Cu    Cu3+1 0.500000 0.499990 0.592680 0.974222
Cu2   Cu    Cu3+1 0.500000 0.499990 0.407320 0.973855
H1    H     H_    0.924193 0.403941 0.613912 0.115934
H2    H     H_    0.146279 0.659808 0.613348 0.131763
H3    H     H_    0.065406 0.743483 0.598064 0.121868
H4    H     H_    0.164910 0.680895 0.429763 0.133570
H5    H     H_    0.090023 0.646284 0.337529 0.117729
H6    H     H_    0.073165 0.748875 0.412236 0.121432
H7    H     H_    0.909979 0.664938 0.640015 0.117643
H8    H     H_    0.926840 0.757420 0.550807 0.121504
H9    H     H_    0.835093 0.687906 0.543499 0.133177
H10   H     H_    0.853728 0.644489 0.364709 0.132323
H11   H     H_    0.934611 0.729263 0.367468 0.121834
H12   H     H_    0.935537 0.378729 0.427731 0.118599
H13   H     H_    0.954232 0.617647 0.313535 0.118176
H14   H     H_    0.064466 0.388753 0.590251 0.118751
H15   H     H_    0.075798 0.390873 0.402030 0.115712
H16   H     H_    0.065812 0.496092 0.333297 0.114517
H17   H     H_    0.077303 0.489007 0.666331 0.115580
H18   H     H_    0.922702 0.468722 0.337500 0.115551
H19   H     H_    0.934181 0.516638 0.666444 0.114460
H20   H     H_    0.045771 0.639513 0.668028 0.118248
N1    N     N_1   0.500000 0.500020 0.268070 -0.166857
N2    N     N_1   0.500000 0.500020 0.731930 -0.166802
O1    O     O_R   0.500000 0.376050 0.578280 -0.472337
O2    O     O_R   0.500000 0.376050 0.421720 -0.472318
O3    O     O_R   0.379430 0.500000 0.578300 -0.483265
O4    O     O_R   0.379430 0.500000 0.421700 -0.482754
O5    O     O_R   0.620570 0.500000 0.578300 -0.482550
O6    O     O_R   0.620570 0.500000 0.421700 -0.483500
O7    O     O_R   0.500000 0.623940 0.578240 -0.471986
O8    O     O_R   0.500000 0.623940 0.421760 -0.472100

loop_
_geom_bond_atom_site_label_1
_geom_bond_atom_site_label_2
_ccdc_geom_bond_type
C6    C8    S    
C9    C14   S    
C11   C18   T    
C16   C21   S    
C24   H10   S    
Cu1   O7    S    
Cu1   Cu2   S    
C14   C17   S    
Cu2   O4    S    
C28   N1    T    
C22   H8    S    
C7    H16   S    
Cu1   O3    S    
C28   C30   S    
C1    O1    A    
Cu2   O8    S    
C6    H17   S    
C21   H4    S    
C6    C13   S    
C5    O7    A    
C8    H19   S    
C4    O6    A    
C26   C27   T    
C21   H6    S    
C13   C18   S    
C2    C29   S    
C24   H13   S    
C3    O3    A    
C12   C19   T    
C16   C20   S    
C1    O2    A    
C5    O8    A    
C8    H1    S    
C23   C25   T    
Cu1   N2    S    
C1    C19   S    
C22   H9    S    
C3    C11   S    
C2    C30   T    
C22   H7    S    
C10   C17   T    
C4    C10   S    
C20   H2    S    
C3    O4    A    
Cu2   N1    S    
C7    C13   S    
C21   H5    S    
C4    O5    A    
C20   H20   S    
C29   N2    T    
C13   C16   S    
Cu1   O5    S    
C12   C23   S    
C7    C9    S    
C24   H11   S    
Cu2   O6    S    
C14   C15   S    
C15   C24   S    
C9    H12   S    
C8    C14   S    
C6    H14   S    
Cu1   O1    S    
C25   C26   S    
C5    C27   S    
C20   H3    S    
Cu2   O2    S    
C15   C22   S    
C9    H18   S    
C15   C16   S    
C7    H15   S    
