data_mof_unit_49925.cif
_audit_creation_date              2012-12-11T14:27:06-0500
_audit_creation_method            fapswitch 2.2
_symmetry_space_group_name_H-M    P1
_symmetry_Int_Tables_number       1
_space_group_crystal_system       triclinic
_cell_length_a                    15.113243
_cell_length_b                    14.904252
_cell_length_c                    14.840013
_cell_angle_alpha                 109.477169
_cell_angle_beta                  109.310884
_cell_angle_gamma                 109.458364
_cell_volume                      2578.53235964

loop_
_atom_site_label
_atom_site_type_symbol
_atom_type_description
_atom_site_fract_x
_atom_site_fract_y
_atom_site_fract_z
_atom_type_partial_charge
C1    C     C_R   0.963547 0.779917 0.056747 -0.149919
C2    C     C_R   0.214261 0.790923 0.308221 -0.145516
C3    C     C_R   0.976518 0.408469 0.221763 -0.125702
C4    C     C_R   0.791685 0.197171 0.701147 -0.163852
C5    C     C_R   0.312601 0.590303 0.066007 -0.088840
C6    C     C_R   0.052915 0.500810 0.324377 0.189027
C7    C     C_R   0.323504 0.497839 0.048584 0.075282
C8    C     C_R   0.314073 0.842825 0.318972 0.175693
C9    C     C_R   0.926332 0.129410 0.923229 0.042154
C10   C     C_3   0.516282 0.460735 0.947645 -0.185515
C11   C     C_3   0.413314 0.459445 0.944121 -0.226098
C12   C     C_R   0.698524 0.136301 0.699037 0.151843
C13   C     C_3   0.554736 0.426156 0.118130 -0.251274
C14   C     C_3   0.626965 0.614162 0.143309 -0.554055
C15   C     C_3   0.600128 0.495706 0.067610 0.217963
C16   C     C_R   0.078972 0.589504 0.782918 -0.251135
C17   C     C_3   0.424272 0.495971 0.061732 0.147271
C18   C     C_3   0.441689 0.413325 0.102794 0.524175
C19   C     C_3   0.525529 0.614657 0.142973 -0.096738
C20   C     C_2   0.429834 0.889104 0.501722 -0.295758
C21   C     C_2   0.412361 0.916998 0.422866 -0.246835
C22   C     C_2   0.526408 0.965639 0.611709 0.693235
C23   C     C_R   0.036337 0.497426 0.683376 0.010970
C24   C     C_2   0.617937 0.023059 0.614159 -0.396468
C25   C     C_2   0.094070 0.433151 0.548931 0.723495
C26   C     C_2   0.059279 0.497837 0.595915 -0.385842
C27   C     C_2   0.083882 0.419873 0.441905 -0.357765
C28   C     C_R   0.702205 0.408514 0.005116 -0.185423
C29   C     C_2   0.110511 0.507670 0.428942 -0.252951
C30   C     C_2   0.916229 0.952881 0.832278 0.492595
C31   C     C_2   0.874167 0.009566 0.876436 0.476413
C32   C     C_2   0.928770 0.874672 0.868337 -0.393096
C33   C     C_2   0.981092 0.907277 0.976440 0.647355
C34   C     C_R   0.699428 0.498913 0.067068 0.079593
C35   C     C_R   0.983062 0.407113 0.690978 0.657744
C36   C     C_R   0.792772 0.591049 0.098702 0.020853
C37   C     C_R   0.700327 0.201125 0.791847 -0.110044
C38   C     C_R   0.059632 0.782347 0.970188 0.044275
C39   C     C_R   0.002536 0.828408 0.002963 -0.116661
C40   C     C_3   0.355578 0.395391 0.212054 -0.217686
C41   C     C_3   0.432747 0.909122 0.697875 -0.352429
C42   C     C_3   0.184116 0.334004 0.556626 -0.234407
C43   C     C_3   0.973802 0.901294 0.706346 -0.276753
C44   C     C_3   0.699315 0.926376 0.833273 -0.294116
C45   C     C_R   0.063620 0.591384 0.313482 -0.166546
C46   C     C_3   0.104567 0.050983 0.156710 -0.255983
C47   C     C_3   0.853934 0.261448 0.521388 -0.290397
C48   C     C_R   0.221590 0.406855 0.973230 -0.168374
C49   C     C_R   0.306856 0.792039 0.218490 -0.157554
C50   C     C_R   0.903420 0.195514 0.990958 -0.096221
C51   C     C_R   0.993312 0.195176 0.899369 -0.160245
H1    H     H_    0.919895 0.800856 0.096695 0.116500
H2    H     H_    0.821706 0.164567 0.649192 0.162726
H3    H     H_    0.344123 0.374512 0.886229 0.152730
H4    H     H_    0.691262 0.648807 0.228877 0.180708
H5    H     H_    0.657784 0.669599 0.112746 0.171266
H6    H     H_    0.515343 0.670838 0.111973 0.121357
H7    H     H_    0.613122 0.477907 0.208504 0.176501
H8    H     H_    0.369210 0.812963 0.486776 0.139607
H9    H     H_    0.138371 0.671127 0.809220 0.151794
H10   H     H_    0.470772 0.991595 0.433354 0.135111
H11   H     H_    0.625068 0.993546 0.540638 0.118351
H12   H     H_    0.199077 0.321405 0.934582 0.117259
H13   H     H_    0.039656 0.549259 0.565089 0.125085
H14   H     H_    0.035679 0.337400 0.371452 0.152958
H15   H     H_    0.161929 0.589327 0.501264 0.127329
H16   H     H_    0.905520 0.793806 0.806674 0.103961
H17   H     H_    0.647612 0.322970 0.972279 0.115783
H18   H     H_    0.647787 0.178455 0.824341 0.158402
H19   H     H_    0.114124 0.675288 0.379163 0.091143
H20   H     H_    0.544082 0.366299 0.832361 0.119849
H21   H     H_    0.473711 0.294775 0.877817 0.113609
H22   H     H_    0.362870 0.486964 0.813766 0.136363
H23   H     H_    0.367948 0.820267 0.196582 0.086505
H24   H     H_    0.453637 0.603334 0.934212 0.100582
H25   H     H_    0.501762 0.261678 0.009503 0.092253
H26   H     H_    0.548685 0.296398 0.142509 0.117274
H27   H     H_    0.353053 0.267374 0.949193 0.054865
H28   H     H_    0.362843 0.247264 0.055552 0.102737
H29   H     H_    0.584399 0.638127 0.302507 0.172293
H30   H     H_    0.584918 0.746911 0.293360 0.086727
H31   H     H_    0.343191 0.316312 0.208537 0.137216
H32   H     H_    0.282749 0.381975 0.145996 0.147800
H33   H     H_    0.365199 0.448735 0.291587 0.163215
H34   H     H_    0.841592 0.167306 0.012181 0.127355
H35   H     H_    0.431548 0.829491 0.665669 0.137710
H36   H     H_    0.355361 0.901588 0.645637 0.162050
H37   H     H_    0.441403 0.931588 0.780711 0.178317
H38   H     H_    0.255367 0.403646 0.570860 0.119609
H39   H     H_    0.135212 0.268440 0.468662 0.139872
H40   H     H_    0.215295 0.298382 0.605657 0.165745
H41   H     H_    0.892522 0.826359 0.649631 0.134886
H42   H     H_    0.033275 0.882795 0.752349 0.153037
H43   H     H_    0.001718 0.928443 0.654885 0.174806
H44   H     H_    0.675330 0.863081 0.750269 0.131483
H45   H     H_    0.013165 0.168782 0.835495 0.176438
H46   H     H_    0.689890 0.995997 0.829305 0.186600
H47   H     H_    0.643397 0.888056 0.859270 0.182603
H48   H     H_    0.171002 0.043791 0.143885 0.121568
H49   H     H_    0.082592 0.007966 0.200908 0.146608
H50   H     H_    0.135444 0.139385 0.210032 0.162831
H51   H     H_    0.874329 0.300845 0.474014 0.150903
H52   H     H_    0.790766 0.274243 0.537140 0.116769
H53   H     H_    0.818632 0.171883 0.468933 0.172491
H54   H     H_    0.839054 0.751305 0.184217 0.082932
H55   H     H_    0.931698 0.718189 0.237864 0.109519
H56   H     H_    0.190223 0.818915 0.368242 0.092510
H57   H     H_    0.136963 0.895141 0.934830 0.089732
H58   H     H_    0.210460 0.848041 0.994393 0.091997
H59   H     H_    0.948934 0.323661 0.200267 0.102893
H60   H     H_    0.375281 0.674688 0.113958 0.085999
H61   H     H_    0.555787 0.525246 0.929710 0.142149
N1    N     N_R   0.993980 0.704500 0.053430 -0.046603
N2    N     N_R   0.053690 0.556380 0.849240 -0.072474
N3    N     N_R   0.790390 0.443640 0.997160 -0.048800
N4    N     N_R   0.998260 0.443670 0.792970 -0.108741
N5    N     N_R   0.845830 0.556350 0.053430 -0.052359
N6    N     N_R   0.792820 0.295510 0.849240 -0.059814
N7    N     N_R   0.051260 0.704510 0.997160 -0.038713
N8    N     N_R   0.001740 0.556330 0.207030 -0.042366
N9    N     N_3   0.486084 0.356242 0.857320 -0.221968
N10   N     N_3   0.386310 0.526112 0.897394 -0.195164
N11   N     N_3   0.560437 0.324533 0.089311 -0.227031
N12   N     N_R   0.154170 0.443650 0.946570 -0.032801
N13   N     N_3   0.353314 0.298198 0.023451 -0.239477
N14   N     N_3   0.539453 0.661341 0.254393 -0.184829
N15   N     N_3   0.848962 0.691654 0.201000 -0.227681
N16   N     N_3   0.133510 0.824012 0.934912 -0.230302
N17   N     N_R   0.207180 0.704490 0.150760 -0.041013
N18   N     N_R   0.948740 0.295490 0.002840 -0.053057
N19   N     N_R   0.006020 0.295500 0.946570 -0.046601
N20   N     N_R   0.149890 0.704480 0.207030 -0.042308
N21   N     N_R   0.946310 0.443620 0.150760 -0.044549
N22   N     N_R   0.209610 0.556360 0.002840 -0.042255
N23   N     N_R   0.850110 0.295520 0.792970 -0.047268
Ni1   Ni    Ni4+2 0.997880 0.629240 0.129060 0.195015
Ni2   Ni    Ni4+2 0.002120 0.370760 0.870940 0.249646
Ni3   Ni    Ni4+2 0.129260 0.629260 0.000000 0.202836
Ni4   Ni    Ni4+2 0.870740 0.370740 0.000000 0.197567
O1    O     O_3   0.451531 0.447361 0.209845 -0.633111
O2    O     O_3   0.521303 0.992950 0.708731 -0.642878
O3    O     O_3   0.119788 0.369341 0.591809 -0.575923
O4    O     O_3   0.969651 0.987134 0.779353 -0.658563
O5    O     O_3   0.805706 0.963425 0.911169 -0.607679
O6    O     O_3   0.013138 0.011859 0.056353 -0.596216
O7    O     O_3   0.946403 0.298888 0.620064 -0.593528

loop_
_geom_bond_atom_site_label_1
_geom_bond_atom_site_label_2
_ccdc_geom_bond_type
C14   H5    S    
C46   H48   S    
C6    C45   A    
C37   H18   S    
H21   N9    S    
C27   C29   D    
H24   N10   S    
C40   H33   S    
C43   O4    S    
C25   O3    S    
C9    C51   A    
C3    C6    A    
C19   H6    S    
C41   H35   S    
C33   C39   S    
C13   C18   S    
C27   H14   S    
C28   H17   S    
C42   H40   S    
C10   C15   S    
C18   N13   S    
C30   C31   D    
C13   N11   S    
C46   O6    S    
C3    H59   S    
C2    H56   S    
C12   C37   A    
C43   H43   S    
N8    N21   A    
C16   H9    S    
C23   C26   S    
C31   O5    S    
C26   H13   S    
C50   N18   A    
C50   H34   S    
C17   C19   S    
N1    N7    A    
C44   H47   S    
C37   N6    A    
N3    N5    A    
N1    Ni1   S    
C42   O3    S    
C2    N20   A    
C10   H61   S    
C4    C12   A    
C15   C34   S    
C21   H10   S    
C44   O5    S    
C51   H45   S    
N17   N20   A    
C10   N9    S    
C14   H4    S    
H28   N13   S    
C47   O7    S    
C28   C34   A    
C47   H51   S    
N7    Ni3   S    
C40   H32   S    
C1    N1    A    
N18   Ni4   S    
C8    C21   S    
C9    C31   S    
C5    N22   A    
C41   H36   S    
C46   H50   S    
C47   H52   S    
H54   N15   S    
C40   H31   S    
N12   Ni2   S    
C5    C7    A    
C51   N19   A    
C48   H12   S    
C13   H7    S    
C5    H60   S    
C7    C17   S    
C25   C26   D    
C49   N17   A    
H55   N15   S    
C30   O4    S    
N8    Ni1   S    
C35   O7    S    
C41   O2    S    
N19   Ni2   S    
C28   N3    A    
C44   H46   S    
H58   N16   S    
N2    N4    A    
N20   Ni1   S    
C17   C18   S    
C35   N4    A    
H57   N16   S    
C20   H8    S    
C18   O1    S    
C36   N5    A    
C11   H3    S    
C33   O6    S    
C32   H16   S    
C38   N7    A    
C45   N8    A    
N3    Ni4   S    
N21   Ni4   S    
C16   C23   A    
C23   C35   A    
C4    N23   A    
N17   Ni3   S    
C22   C24   D    
C11   N10   S    
N6    Ni4   S    
N4    Ni2   S    
N23   Ni2   S    
C41   H37   S    
C46   H49   S    
C11   C17   S    
C24   H11   S    
C47   H53   S    
H30   N14   S    
C45   H19   S    
C14   C15   S    
H25   N11   S    
C14   C19   S    
H20   N9    S    
C2    C8    A    
C9    C50   A    
C20   C22   S    
C16   N2    A    
C48   N12   A    
C38   N16   S    
N22   Ni3   S    
C25   C27   S    
C12   C24   S    
C19   N14   S    
C43   H41   S    
N12   N22   A    
C42   H38   S    
C7    C48   A    
C13   C15   S    
N18   N19   A    
C44   H44   S    
C32   C33   D    
C30   C32   S    
H27   N13   S    
C38   C39   A    
H29   N14   S    
C40   O1    S    
C22   O2    S    
C43   H42   S    
C34   C36   A    
N2    Ni3   S    
C1    H1    S    
C4    H2    S    
C10   C11   S    
C1    C39   A    
C29   H15   S    
C36   N15   S    
C6    C29   S    
C20   C21   D    
H22   N10   S    
C3    N21   A    
C49   H23   S    
C42   H39   S    
N5    Ni1   S    
C8    C49   A    
N6    N23   A    
H26   N11   S    
