data_mof_unit_6832.cif
_audit_creation_date              2012-12-10T19:18:39-0500
_audit_creation_method            fapswitch 2.2
_symmetry_space_group_name_H-M    P1
_symmetry_Int_Tables_number       1
_space_group_crystal_system       triclinic
_cell_length_a                    15.739137
_cell_length_b                    15.014717
_cell_length_c                    10.507966
_cell_angle_alpha                 89.618331
_cell_angle_beta                  88.962641
_cell_angle_gamma                 90.119161
_cell_volume                      2482.76064503

loop_
_atom_site_label
_atom_site_type_symbol
_atom_type_description
_atom_site_fract_x
_atom_site_fract_y
_atom_site_fract_z
_atom_type_partial_charge
Br1   Br    Br    0.572546 0.692821 0.899189 -0.527548
Br2   Br    Br    0.621255 0.339325 0.897566 -0.509518
Br3   Br    Br    0.910861 0.459900 0.214826 -0.519448
Br4   Br    Br    0.903599 0.535909 0.763174 -0.499961
C1    C     C_R   0.337966 0.499861 0.499293 0.888747
C2    C     C_3   0.952148 0.593692 0.460811 -0.352595
C3    C     C_3   0.050069 0.592868 0.460432 -0.407459
C4    C     C_1   0.826029 0.499294 0.489924 -0.009239
C5    C     C_1   0.173981 0.498333 0.491150 -0.091391
C6    C     C_R   0.501041 0.500282 0.257326 0.912503
C7    C     C_1   0.249196 0.499261 0.494786 -0.181546
C8    C     C_3   0.428004 0.053413 0.405183 -0.171113
C9    C     C_3   0.424960 0.947501 0.410531 -0.164153
C10   C     C_3   0.477266 0.051302 0.641969 -0.155552
C11   C     C_3   0.484615 0.945884 0.642294 -0.158850
C12   C     C_3   0.500740 0.500872 0.123487 -0.094336
C13   C     C_3   0.494203 0.090803 0.503634 0.082884
C14   C     C_3   0.495972 0.908888 0.502147 0.074760
C15   C     C_3   0.583784 0.948142 0.447513 -0.216098
C16   C     C_3   0.584326 0.054163 0.456984 -0.210425
C17   C     C_1   0.497803 0.808805 0.498274 0.033515
C18   C     C_1   0.496825 0.191153 0.500335 0.035521
C19   C     C_R   0.662119 0.500039 0.499044 0.930773
C20   C     C_R   0.499218 0.499919 0.743229 0.926574
C21   C     C_3   0.449732 0.567338 0.045232 -0.220132
C22   C     C_3   0.470049 0.421694 0.045936 -0.223749
C23   C     C_3   0.047188 0.467101 0.620453 -0.433427
C24   C     C_3   0.419601 0.488179 0.964575 -0.056899
C25   C     C_3   0.498099 0.500128 0.877841 -0.152779
C26   C     C_3   0.528811 0.578536 0.957958 0.316544
C27   C     C_3   0.548923 0.434861 0.958788 0.283478
C28   C     C_3   0.580189 0.513180 0.039649 -0.206470
C29   C     C_R   0.327610 0.471578 0.934990 0.134047
C30   C     C_R   0.263980 0.497512 0.022814 -0.159806
C31   C     C_R   0.179165 0.474197 0.003843 -0.115428
C32   C     C_R   0.157294 0.423512 0.898465 -0.113571
C33   C     C_R   0.219999 0.397627 0.810560 -0.162644
C34   C     C_3   0.050686 0.433726 0.385678 -0.426963
C35   C     C_R   0.304640 0.421874 0.828326 -0.177780
C36   C     C_R   0.338495 0.898844 0.413405 0.113300
C37   C     C_R   0.264418 0.932154 0.473496 -0.128547
C38   C     C_R   0.187638 0.885458 0.470120 -0.154940
C39   C     C_R   0.182763 0.804864 0.405800 -0.118891
C40   C     C_R   0.254697 0.770673 0.344491 -0.115002
C41   C     C_R   0.331525 0.817325 0.347346 -0.181306
C42   C     C_R   0.344006 0.102160 0.380488 0.104563
C43   C     C_R   0.302068 0.083806 0.265763 -0.136328
C44   C     C_R   0.226476 0.126895 0.235222 -0.125324
C45   C     C_3   0.952243 0.433334 0.385419 0.087194
C46   C     C_R   0.191684 0.190059 0.317541 -0.124704
C47   C     C_R   0.232439 0.210148 0.430571 -0.139694
C48   C     C_R   0.307904 0.166906 0.461945 -0.128322
C49   C     C_R   0.407102 0.095625 0.723180 0.089751
C50   C     C_R   0.325649 0.058651 0.744613 -0.118747
C51   C     C_R   0.266270 0.099931 0.825103 -0.170122
C52   C     C_R   0.287560 0.177949 0.888145 -0.124466
C53   C     C_R   0.368235 0.214731 0.870563 -0.112296
C54   C     C_R   0.426982 0.174985 0.787898 -0.174036
C55   C     C_R   0.432152 0.894821 0.744007 0.104637
C56   C     C_3   0.949116 0.466294 0.620531 0.091708
C57   C     C_R   0.448098 0.913060 0.873211 -0.102442
C58   C     C_R   0.404325 0.867962 0.971041 -0.090395
C59   C     C_R   0.344447 0.802978 0.942111 -0.103298
C60   C     C_R   0.327989 0.783411 0.815325 -0.117521
C61   C     C_R   0.371146 0.828829 0.717017 -0.119713
C62   C     C_R   0.660347 0.098853 0.522500 0.131845
C63   C     C_R   0.698852 0.173921 0.463413 -0.145393
C64   C     C_R   0.765825 0.218840 0.520600 -0.102128
C65   C     C_R   0.796271 0.189427 0.637278 -0.088047
C66   C     C_R   0.759787 0.115001 0.696880 -0.106374
C67   C     C_1   0.750818 0.499904 0.493880 -0.107876
C68   C     C_R   0.692445 0.070078 0.640460 -0.126007
C69   C     C_R   0.668372 0.903555 0.483079 0.122996
C70   C     C_R   0.678155 0.841172 0.583420 -0.146095
C71   C     C_R   0.757611 0.804038 0.608300 -0.093296
C72   C     C_R   0.828530 0.827833 0.534144 -0.131832
C73   C     C_R   0.820115 0.888113 0.433784 -0.126314
C74   C     C_R   0.740891 0.925162 0.407955 -0.120250
C75   C     C_3   0.082594 0.497860 0.489177 0.270549
C76   C     C_3   0.917415 0.498694 0.488601 0.192601
H1    H     H_    0.928320 0.641089 0.533894 0.195653
H2    H     H_    0.446738 0.357810 0.087477 0.166766
H3    H     H_    0.645557 0.523388 0.074874 0.194707
H4    H     H_    0.926698 0.396745 0.637645 0.115325
H5    H     H_    0.929593 0.364738 0.408611 0.105786
H6    H     H_    0.070155 0.398763 0.642096 0.138160
H7    H     H_    0.074075 0.365089 0.404667 0.142611
H8    H     H_    0.077039 0.454431 0.291136 0.204401
H9    H     H_    0.070979 0.512215 0.695463 0.223246
H10   H     H_    0.073311 0.640152 0.533257 0.180811
H11   H     H_    0.074849 0.615737 0.365811 0.175252
H12   H     H_    0.929606 0.618687 0.367481 0.211666
H13   H     H_    0.279964 0.534036 0.107606 0.115959
H14   H     H_    0.130599 0.494166 0.071973 0.154373
H15   H     H_    0.091847 0.403859 0.885504 0.162187
H16   H     H_    0.203544 0.357190 0.729778 0.135460
H17   H     H_    0.352044 0.398293 0.761494 0.159572
H18   H     H_    0.263443 0.995393 0.519423 0.142928
H19   H     H_    0.131405 0.912603 0.516134 0.131858
H20   H     H_    0.122870 0.769781 0.401985 0.119096
H21   H     H_    0.250856 0.708329 0.293692 0.123028
H22   H     H_    0.385869 0.789662 0.296911 0.129345
H23   H     H_    0.533810 0.072160 0.695425 0.127451
H24   H     H_    0.328090 0.035460 0.199707 0.126826
H25   H     H_    0.194980 0.111363 0.147370 0.127881
H26   H     H_    0.133291 0.223636 0.293508 0.129507
H27   H     H_    0.205692 0.259684 0.494027 0.128159
H28   H     H_    0.336852 0.185767 0.549303 0.154084
H29   H     H_    0.308037 0.996233 0.704654 0.138790
H30   H     H_    0.204181 0.070246 0.840582 0.132543
H31   H     H_    0.241959 0.209390 0.951636 0.140175
H32   H     H_    0.385643 0.273916 0.921565 0.149141
H33   H     H_    0.489061 0.205493 0.776359 0.177424
H34   H     H_    0.548074 0.933963 0.681832 0.122528
H35   H     H_    0.494799 0.962767 0.898190 0.119831
H36   H     H_    0.417242 0.883146 0.069387 0.112285
H37   H     H_    0.310929 0.767664 0.017922 0.118460
H38   H     H_    0.281638 0.732755 0.792968 0.139499
H39   H     H_    0.355896 0.811145 0.621414 0.154329
H40   H     H_    0.676118 0.198927 0.373340 0.135710
H41   H     H_    0.793886 0.276777 0.474490 0.135317
H42   H     H_    0.848137 0.224312 0.681488 0.131144
H43   H     H_    0.783616 0.092058 0.787320 0.138004
H44   H     H_    0.666518 0.012855 0.689808 0.121524
H45   H     H_    0.592128 0.076372 0.356002 0.116397
H46   H     H_    0.625973 0.819834 0.643938 0.161680
H47   H     H_    0.764171 0.756629 0.685569 0.181587
H48   H     H_    0.890027 0.799521 0.554329 0.127555
H49   H     H_    0.875079 0.906249 0.375794 0.131627
H50   H     H_    0.736057 0.971769 0.329292 0.123732
H51   H     H_    0.582373 0.933201 0.343768 0.129820
H52   H     H_    0.460005 0.069004 0.312026 0.115327
H53   H     H_    0.447832 0.929452 0.313002 0.099626
H54   H     H_    0.410682 0.622583 0.084503 0.150631
N1    N     N_1   0.498630 0.731150 0.497460 -0.080546
N2    N     N_1   0.498630 0.268850 0.497460 -0.085015
O1    O     O_R   0.377210 0.574260 0.500130 -0.616533
O2    O     O_R   0.377210 0.425740 0.500130 -0.625507
O3    O     O_R   0.500050 0.574220 0.314080 -0.623758
O4    O     O_R   0.500050 0.425780 0.314080 -0.617638
O5    O     O_R   0.622930 0.574200 0.500140 -0.600829
O6    O     O_R   0.622930 0.425800 0.500140 -0.600932
O7    O     O_R   0.500090 0.574240 0.686180 -0.579400
O8    O     O_R   0.500090 0.425760 0.686180 -0.611960
Zn1   Zn    Zn3+2 0.500090 0.599130 0.500180 0.999125
Zn2   Zn    Zn3+2 0.500090 0.400870 0.500180 0.986303

loop_
_geom_bond_atom_site_label_1
_geom_bond_atom_site_label_2
_ccdc_geom_bond_type
C11   C14   S    
C51   C52   A    
C14   C17   S    
C37   C38   A    
O6    Zn2   S    
C15   C16   S    
C30   H13   S    
C71   C72   A    
Br3   C45   S    
C1    O2    A    
C34   C45   S    
C73   C74   A    
C21   C24   S    
C29   C35   A    
C9    C14   S    
C16   C62   S    
C24   C25   S    
O2    Zn2   S    
C1    C7    S    
C23   C75   S    
C23   C56   S    
C5    C75   S    
C59   H37   S    
C35   H17   S    
C53   H32   S    
C34   C75   S    
C20   O7    A    
C42   C48   A    
C21   C26   S    
C13   C16   S    
C60   H38   S    
C52   C53   A    
C30   C31   A    
C69   C70   A    
C20   C25   S    
C9    C36   S    
C42   C43   A    
C66   H43   S    
C62   C68   A    
C31   C32   A    
C64   C65   A    
N1    Zn1   S    
C8    C13   S    
C57   H35   S    
C54   H33   S    
C69   C74   A    
C19   O6    A    
C4    C76   S    
C25   C26   S    
C63   H40   S    
C52   H31   S    
O5    Zn1   S    
C44   C46   A    
C62   C63   A    
C22   C27   S    
C22   H2    S    
C2    H1    S    
C68   H44   S    
C12   C22   S    
C10   C13   S    
C57   C58   A    
C6    O4    A    
C47   H27   S    
C29   C30   A    
C15   H51   S    
C36   C41   A    
C33   C35   A    
C55   C57   A    
C70   C71   A    
C47   C48   A    
C43   C44   A    
C19   C67   S    
C15   C69   S    
C39   H20   S    
O8    Zn2   S    
O4    Zn2   S    
C14   C15   S    
C49   C50   A    
C3    H10   S    
C63   C64   A    
C50   H29   S    
C34   H8    S    
Br2   C27   S    
C23   H6    S    
C39   C40   A    
C58   H36   S    
C58   C59   A    
C45   H5    S    
C2    C76   S    
C44   H25   S    
C40   H21   S    
C3    H11   S    
Br4   C56   S    
C46   C47   A    
C61   H39   S    
C11   H34   S    
C73   H49   S    
C72   C73   A    
C21   H54   S    
C5    C7    T    
C48   H28   S    
C8    C42   S    
C36   C37   A    
C24   C29   S    
C51   H30   S    
C72   H48   S    
C6    O3    A    
C40   C41   A    
C3    C75   S    
C31   H14   S    
O1    Zn1   S    
C12   C21   S    
O7    Zn1   S    
C28   H3    S    
C50   C51   A    
O3    Zn1   S    
C4    C67   T    
C11   C55   S    
C43   H24   S    
C8    H52   S    
C56   C76   S    
C37   H18   S    
C9    H53   S    
C27   C28   S    
C64   H41   S    
C10   H23   S    
C49   C54   A    
C1    O1    A    
C2    C3    S    
C12   C28   S    
C22   C24   S    
C13   C18   S    
C45   C76   S    
C34   H7    S    
C60   C61   A    
C74   H50   S    
C16   H45   S    
C25   C27   S    
C6    C12   S    
C38   H19   S    
C55   C61   A    
C26   C28   S    
C56   H4    S    
C32   H15   S    
C53   C54   A    
C70   H46   S    
C65   H42   S    
C20   O8    A    
C2    H12   S    
Br1   C26   S    
C23   H9    S    
C71   H47   S    
C65   C66   A    
C41   H22   S    
C59   C60   A    
C10   C49   S    
C8    C9    S    
C33   H16   S    
C32   C33   A    
C38   C39   A    
C18   N2    T    
C46   H26   S    
C10   C11   S    
C19   O5    A    
C66   C68   A    
C17   N1    T    
N2    Zn2   S    
