data_mof_unit_8295.cif
_audit_creation_date              2012-12-11T16:29:35-0500
_audit_creation_method            fapswitch 2.2
_symmetry_space_group_name_H-M    P1
_symmetry_Int_Tables_number       1
_space_group_crystal_system       triclinic
_cell_length_a                    6.953409
_cell_length_b                    17.349251
_cell_length_c                    18.745659
_cell_angle_alpha                 106.306509
_cell_angle_beta                  89.718323
_cell_angle_gamma                 90.478302
_cell_volume                      2170.35729438

loop_
_atom_site_label
_atom_site_type_symbol
_atom_type_description
_atom_site_fract_x
_atom_site_fract_y
_atom_site_fract_z
_atom_type_partial_charge
O1    O     O_R   0.494360 0.415680 0.413760 -0.531794
O2    O     O_R   0.818810 0.432910 0.557230 -0.523154
O3    O     O_R   0.994290 0.584320 0.586240 -0.535032
C1    C     C_R   0.649834 0.415943 0.580603 0.714481
O4    O     O_R   0.823740 0.406440 0.412520 -0.534751
O5    O     O_R   0.999250 0.557660 0.440500 -0.525374
C2    C     C_R   0.654749 0.383735 0.384824 0.697010
O6    O     O_R   0.489400 0.442340 0.559500 -0.523331
O7    O     O_3   0.662500 0.549650 0.509350 -0.363023
V1    V     V_3+5 0.935340 0.490790 0.498270 1.438683
O8    O     O_R   0.329270 0.567090 0.442770 -0.527099
C3    C     C_R   0.161146 0.584025 0.419370 0.708235
O9    O     O_R   0.324340 0.593560 0.587480 -0.536304
C4    C     C_R   0.155412 0.616355 0.615113 0.692805
V2    V     V_3+5 0.435970 0.509210 0.501730 1.427555
O10   O     O_3   0.158940 0.450350 0.490650 -0.353176
H1    H     H_    0.836343 0.845652 0.562306 0.131803
C5    C     C_R   0.311181 0.605294 0.755012 -0.142575
C6    C     C_R   0.386021 0.597680 0.821459 -0.123560
C7    C     C_R   0.372994 0.660934 0.885916 -0.120020
C8    C     C_R   0.285261 0.732336 0.884409 -0.131310
C9    C     C_R   0.210486 0.742465 0.817503 0.069664
C10   C     C_R   0.223471 0.677490 0.751378 0.068917
C11   C     C_R   0.119944 0.815068 0.816147 -0.186701
C12   C     C_R   0.042025 0.822503 0.748557 0.068680
C13   C     C_R   0.055019 0.757529 0.682431 0.069811
C14   C     C_R   0.145463 0.684909 0.683797 -0.186456
C15   C     C_R   0.954458 0.894722 0.744910 -0.146458
C16   C     C_R   0.879848 0.902375 0.678440 -0.105609
C17   C     C_R   0.892896 0.839123 0.613982 -0.104536
C18   C     C_R   0.980411 0.767684 0.615510 -0.136184
H2    H     H_    0.321776 0.553593 0.706939 0.108564
H3    H     H_    0.452983 0.542072 0.823044 0.114982
H4    H     H_    0.429733 0.654437 0.937575 0.114779
H5    H     H_    0.275306 0.778918 0.936507 0.105380
H6    H     H_    0.943854 0.946419 0.792987 0.112069
H7    H     H_    0.813056 0.958010 0.676839 0.135195
H8    H     H_    0.990381 0.721100 0.563413 0.107869
C19   C     C_1   0.111777 0.863971 0.132669 -0.216866
C20   C     C_1   0.119212 0.821407 0.176241 0.002606
C21   C     C_1   0.128558 0.771166 0.228118 0.004703
C22   C     C_1   0.136553 0.728846 0.271895 0.004027
C23   C     C_1   0.145899 0.678593 0.323761 0.001863
C24   C     C_1   0.153332 0.636011 0.367318 -0.216505
C25   C     C_1   0.641280 0.363960 0.632588 -0.186673
C26   C     C_1   0.637141 0.321330 0.676125 0.036239
C27   C     C_1   0.633829 0.271054 0.727989 0.024857
C28   C     C_1   0.631362 0.228723 0.771802 0.011630
C29   C     C_1   0.628012 0.178502 0.823716 0.003300
C30   C     C_1   0.623823 0.135953 0.867327 -0.217505
C31   C     C_R   0.518047 0.405172 0.246001 -0.144878
C32   C     C_R   0.451714 0.417637 0.180160 -0.121280
C33   C     C_R   0.441527 0.354023 0.115842 -0.118251
C34   C     C_R   0.497252 0.277416 0.116892 -0.136319
C35   C     C_R   0.562831 0.262548 0.183162 0.067370
C36   C     C_R   0.573821 0.327850 0.249116 0.070381
C37   C     C_R   0.621139 0.184645 0.184050 -0.166234
C38   C     C_R   0.690838 0.172189 0.250991 0.073919
C39   C     C_R   0.701713 0.237472 0.316945 0.010081
C40   C     C_R   0.643582 0.315389 0.316031 -0.160419
C41   C     C_R   0.746610 0.094895 0.254130 -0.217634
C42   C     C_R   0.812752 0.082389 0.319985 -0.156024
C43   C     C_R   0.822760 0.146000 0.384423 0.448510
C44   C     C_R   0.766976 0.222636 0.383266 -0.182275
H9    H     H_    0.526484 0.457080 0.294026 0.106291
H10   H     H_    0.409476 0.477174 0.178932 0.117124
H11   H     H_    0.391491 0.364171 0.064653 0.115117
H12   H     H_    0.489806 0.230419 0.064971 0.103620
H13   H     H_    0.738308 0.043005 0.206084 0.129712
H14   H     H_    0.854835 0.022725 0.320916 0.155783
H15   H     H_    0.773872 0.269853 0.435057 0.138192
O11   O     O_R   0.775690 0.057750 0.940570 -0.523710
O12   O     O_R   0.441200 0.093570 0.087490 -0.534446
O13   O     O_R   0.265840 0.942320 0.059480 -0.523354
C45   C     C_R   0.610136 0.116321 0.115218 0.697047
O14   O     O_R   0.446270 0.067110 0.942790 -0.526501
O15   O     O_R   0.270950 0.915660 0.913750 -0.532907
C46   C     C_R   0.615246 0.084063 0.919398 0.711280
O16   O     O_R   0.770580 0.084400 0.086300 -0.533301
O17   O     O_3   0.602640 0.950400 0.990690 -0.360153
V3    V     V_3+5 0.329740 0.009200 0.001730 1.422157
O18   O     O_R   0.940900 0.906360 0.912450 -0.536012
C47   C     C_R   0.109877 0.883604 0.884843 0.695588
O19   O     O_R   0.935830 0.932820 0.057160 -0.526694
C48   C     C_R   0.103953 0.915933 0.080597 0.712820
V4    V     V_3+5 0.829130 0.990680 0.998180 1.416869
O20   O     O_3   0.106100 0.049590 0.009310 -0.358402
Cl1   Cl    Cl    0.903513 0.129604 0.467472 -0.634779

loop_
_geom_bond_atom_site_label_1
_geom_bond_atom_site_label_2
_ccdc_geom_bond_type
C35   C36   A    
C43   Cl1   S    
C21   C22   T    
C6    C7    A    
C1    O6    A    
C33   C34   A    
C12   C15   A    
C13   C14   A    
C16   C17   A    
C15   C16   A    
C11   C47   S    
O19   V4    S    
C5    C6    A    
O5    C3    A    
C17   C18   A    
C34   H12   S    
O15   C47   A    
V2    O10   S    
C42   H14   S    
C31   C36   A    
C31   H9    S    
C44   H15   S    
O11   C46   A    
C26   C27   S    
O8    V2    S    
O17   V4    S    
O1    V2    S    
C10   C14   A    
C4    C14   S    
O7    V1    S    
C7    H4    S    
C38   C41   A    
C39   C40   A    
C8    C9    A    
H1    C17   S    
O12   C45   A    
C30   C46   S    
O12   V3    S    
C1    C25   S    
C5    C10   A    
O19   C48   A    
C6    H3    S    
C19   C20   T    
O4    C2    A    
V4    O20   S    
C38   C39   A    
O18   V4    S    
C31   C32   A    
O2    C1    A    
C23   C24   T    
C42   C43   A    
C27   C28   T    
O15   V3    S    
C39   C44   A    
C11   C12   A    
V3    O20   S    
O3    C4    A    
C20   C21   S    
O18   C47   A    
O6    V2    S    
C35   C37   A    
C9    C11   A    
C5    H2    S    
C22   C23   S    
C19   C48   S    
O13   V3    S    
O2    V1    S    
C2    C40   S    
C32   H10   S    
C32   C33   A    
C41   H13   S    
C34   C35   A    
C28   C29   S    
O1    C2    A    
O14   C46   A    
O17   V3    S    
O14   V3    S    
O5    V1    S    
O11   V4    S    
O8    C3    A    
C8    H5    S    
C18   H8    S    
C37   C45   S    
O9    V2    S    
C12   C13   A    
O4    V1    S    
C3    C24   S    
O3    V1    S    
V1    O10   S    
C37   C38   A    
O13   C48   A    
O7    V2    S    
C41   C42   A    
C33   H11   S    
C43   C44   A    
C25   C26   T    
C13   C18   A    
C36   C40   A    
C7    C8    A    
C15   H6    S    
C29   C30   T    
C16   H7    S    
C9    C10   A    
O9    C4    A    
C45   O16   A    
O16   V4    S    
