data_mof_unit_31982.cif
_audit_creation_date              2012-12-11T15:46:55-0500
_audit_creation_method            fapswitch 2.2
_symmetry_space_group_name_H-M    P1
_symmetry_Int_Tables_number       1
_space_group_crystal_system       triclinic
_cell_length_a                    11.544007
_cell_length_b                    11.531121
_cell_length_c                    19.591913
_cell_angle_alpha                 90.526637
_cell_angle_beta                  90.152622
_cell_angle_gamma                 59.907247
_cell_volume                      2256.36562318

loop_
_atom_site_label
_atom_site_type_symbol
_atom_type_description
_atom_site_fract_x
_atom_site_fract_y
_atom_site_fract_z
_atom_type_partial_charge
C1    C     C_R   0.640402 0.117253 0.599359 0.546202
C2    C     C_1   0.641251 0.704236 0.668112 0.003443
C3    C     C_1   0.126351 0.198847 0.859191 0.003305
C4    C     C_1   0.171740 0.170307 0.727746 -0.030617
C5    C     C_1   0.149994 0.182359 0.798911 -0.030589
C6    C     C_1   0.195710 0.160871 0.667496 0.003157
C7    C     C_1   0.678696 0.191393 0.860682 0.003683
C8    C     C_1   0.658576 0.167087 0.729062 -0.030719
C9    C     C_1   0.665779 0.180924 0.800303 -0.030533
C10   C     C_1   0.652942 0.149494 0.668735 0.003312
C11   C     C_R   0.647858 0.689936 0.187406 0.015724
C12   C     C_R   0.612423 0.746233 0.598748 0.546073
C13   C     C_R   0.533934 0.710129 0.223032 0.025662
C14   C     C_R   0.527850 0.724499 0.292154 0.030096
C15   C     C_R   0.735239 0.726663 0.292441 -0.159537
C16   C     C_R   0.741587 0.713324 0.221305 -0.172028
C17   C     C_3   0.466621 0.627205 0.226471 -0.265553
C18   C     C_3   0.458171 0.646922 0.302737 -0.276631
C19   C     C_R   0.633745 0.718957 0.328478 0.017847
C20   C     C_R   0.151506 0.196554 0.190042 0.015254
C21   C     C_R   0.147923 0.296912 0.231675 0.017634
C22   C     C_R   0.171519 0.277835 0.300134 0.030735
C23   C     C_R   0.241320 0.145200 0.598317 0.546012
C24   C     C_R   0.221482 0.049493 0.288300 -0.161932
C25   C     C_R   0.197762 0.068629 0.217797 -0.167671
C26   C     C_3   0.038626 0.438735 0.242393 -0.262605
C27   C     C_3   0.066155 0.417407 0.318103 -0.281231
C28   C     C_R   0.199782 0.158026 0.330688 0.014579
C29   C     C_R   0.674967 0.183578 0.193128 0.030246
C30   C     C_R   0.781258 0.089419 0.232164 0.023329
C31   C     C_R   0.773780 0.077354 0.299426 0.013406
C32   C     C_R   0.541702 0.243970 0.297308 -0.138580
C33   C     C_R   0.549216 0.259630 0.226120 -0.047657
C34   C     C_R   0.643582 0.112817 0.402632 0.548285
C35   C     C_3   0.926134 0.984912 0.229414 -0.261971
C36   C     C_3   0.915874 0.969549 0.306503 -0.275401
C37   C     C_R   0.656388 0.151258 0.334794 0.003007
C38   C     C_R   0.081509 0.231233 0.928481 0.546087
C39   C     C_R   0.683983 0.604118 0.929388 0.545858
C40   C     C_R   0.708453 0.206741 0.930038 0.545827
C41   C     C_R   0.084835 0.235307 0.124594 0.540493
C42   C     C_R   0.680664 0.615402 0.124140 0.541853
C43   C     C_R   0.706778 0.209603 0.125697 0.544248
C44   C     C_R   0.613703 0.745469 0.400484 0.543133
C45   C     C_R   0.246194 0.139288 0.400663 0.543299
C46   C     C_1   0.670329 0.646116 0.860033 0.004015
C47   C     C_1   0.654723 0.683853 0.728480 -0.030960
C48   C     C_1   0.663360 0.666497 0.799673 -0.030886
Cr1   Cr    Cr6+3 0.404720 0.198220 0.499960 1.024121
Cr2   Cr    Cr6+3 0.698290 0.897110 0.500380 1.024402
Cr3   Cr    Cr6+3 0.396970 0.904720 0.499610 1.024785
Cr4   Cr    Cr6+3 0.926290 0.152010 0.028150 1.021991
Cr5   Cr    Cr6+3 0.921440 0.451830 0.027490 1.022038
Cr6   Cr    Cr6+3 0.626370 0.446880 0.028730 1.015618
H1    H     H_    0.812075 0.736769 0.319011 0.134671
H2    H     H_    0.063919 0.511934 0.220522 0.129417
H3    H     H_    0.109215 0.476910 0.339906 0.137817
H4    H     H_    0.981901 0.421718 0.347642 0.136759
H5    H     H_    0.445132 0.298719 0.322380 0.146829
H6    H     H_    0.989314 0.028338 0.215896 0.159376
H7    H     H_    0.944413 0.895236 0.199147 0.132762
H8    H     H_    0.926090 0.871800 0.320717 0.140675
H9    H     H_    0.975388 0.002123 0.337565 0.138134
H10   H     H_    0.826698 0.706397 0.194416 0.124046
H11   H     H_    0.535075 0.520628 0.212399 0.171386
H12   H     H_    0.367150 0.676245 0.201100 0.128433
H13   H     H_    0.353989 0.710457 0.321658 0.136427
H14   H     H_    0.519803 0.552500 0.331343 0.140803
H15   H     H_    0.254556 0.951616 0.309524 0.134609
H16   H     H_    0.207520 0.986659 0.186173 0.121336
H17   H     H_    0.939138 0.453104 0.227997 0.160620
O1    O     O_R   0.267750 0.231960 0.575440 -0.505374
O2    O     O_R   0.685950 0.784660 0.430010 -0.509736
O3    O     O_R   0.502510 0.767000 0.423980 -0.518416
O4    O     O_R   0.288320 0.026340 0.429250 -0.507772
O5    O     O_3   0.499990 0.000020 0.499980 -0.254175
O6    O     O_R   0.821590 0.119350 0.952850 -0.505348
O7    O     O_R   0.037230 0.162540 0.957390 -0.494189
O8    O     O_R   0.056530 0.344750 0.951370 -0.505137
O9    O     O_R   0.798000 0.560370 0.957490 -0.493683
O10   O     O_R   0.596230 0.579400 0.952760 -0.504928
O11   O     O_R   0.639160 0.321170 0.958690 -0.494071
O12   O     O_R   0.527290 0.186640 0.570530 -0.494263
O13   O     O_R   0.821370 0.124220 0.104400 -0.520200
O14   O     O_R   0.037020 0.167050 0.097880 -0.508556
O15   O     O_R   0.056310 0.349620 0.102920 -0.518139
O16   O     O_R   0.797790 0.564880 0.097980 -0.509383
O17   O     O_R   0.596000 0.584270 0.104310 -0.525149
O18   O     O_R   0.638950 0.325690 0.099180 -0.511781
O19   O     O_3   0.824700 0.350240 0.028120 -0.250675
O20   O     O_R   0.728110 0.003450 0.576380 -0.505196
O21   O     O_R   0.682980 0.789190 0.570500 -0.493699
O22   O     O_R   0.499300 0.771880 0.575540 -0.504444
O23   O     O_R   0.285350 0.030870 0.569740 -0.493658
O24   O     O_R   0.270960 0.227070 0.423890 -0.517999
O25   O     O_R   0.530270 0.182120 0.430040 -0.512851
O26   O     O_R   0.731320 0.998570 0.424830 -0.516001
C49   C     C_3   0.422208 0.345338 0.186747 -0.390153
H18   H     H_    0.425616 0.427025 0.159474 0.148755
H19   H     H_    0.406827 0.281951 0.148987 0.145232
H20   H     H_    0.333689 0.392890 0.221046 0.123225

loop_
_geom_bond_atom_site_label_1
_geom_bond_atom_site_label_2
_ccdc_geom_bond_type
C21   C26   S    
C43   O13   A    
C34   C37   S    
C14   C18   S    
Cr4   O19   S    
C35   C36   S    
Cr3   O3    S    
C2    C12   S    
C20   C41   S    
C15   C19   A    
C41   O15   A    
C26   C27   S    
C43   O18   A    
C30   C35   S    
Cr4   O14   S    
Cr5   O8    S    
C34   O25   A    
Cr6   O19   S    
C30   C31   A    
Cr4   O7    S    
C20   C25   A    
C18   H14   S    
C15   C16   A    
C29   C33   A    
C34   O26   A    
C11   C42   S    
C33   C49   S    
Cr4   O13   S    
C3    C38   S    
C8    C9    S    
Cr1   O1    S    
C7    C40   S    
Cr5   O15   S    
C36   H9    S    
C1    O20   A    
C22   C28   A    
C21   C22   A    
C29   C43   S    
C26   H17   S    
C36   H8    S    
C14   C19   A    
C24   H15   S    
C46   C48   T    
C28   C45   S    
C40   O11   A    
Cr5   O9    S    
C24   C25   A    
C39   O10   A    
Cr6   O18   S    
C4    C6    T    
C27   H3    S    
Cr2   O2    S    
C38   O7    A    
C18   H13   S    
Cr1   O24   S    
C31   C37   A    
C35   H6    S    
C15   H1    S    
C29   C30   A    
Cr2   O5    S    
C11   C16   A    
C47   C48   S    
C17   C18   S    
C17   H12   S    
Cr1   O5    S    
Cr5   O16   S    
C32   C37   A    
Cr3   O5    S    
C44   O3    A    
Cr3   O22   S    
C39   C46   S    
Cr2   O21   S    
C49   H19   S    
C22   C27   S    
C12   O22   A    
C42   O17   A    
Cr4   O6    S    
C45   O24   A    
Cr6   O11   S    
C19   C44   S    
C7    C9    T    
Cr2   O26   S    
C31   C36   S    
C23   O1    A    
C12   O21   A    
C1    C10   S    
C24   C28   A    
Cr3   O4    S    
C4    C5    S    
C3    C5    T    
C27   H4    S    
C26   H2    S    
C42   O16   A    
C2    C47   T    
C1    O12   A    
C49   H20   S    
C41   O14   A    
C17   H11   S    
C23   O23   A    
C13   C17   S    
C45   O4    A    
C39   O9    A    
Cr1   O12   S    
C32   C33   A    
Cr6   O17   S    
C11   C13   A    
C35   H7    S    
C6    C23   S    
Cr1   O25   S    
C44   O2    A    
Cr3   O23   S    
Cr2   O20   S    
C20   C21   A    
C8    C10   T    
C49   H18   S    
C38   O8    A    
Cr5   O19   S    
C40   O6    A    
C25   H16   S    
C16   H10   S    
C32   H5    S    
C13   C14   A    
Cr6   O10   S    
