data_mof_unit_58009.cif
_audit_creation_date              2012-12-10T18:07:01-0500
_audit_creation_method            fapswitch 2.2
_symmetry_space_group_name_H-M    P1
_symmetry_Int_Tables_number       1
_space_group_crystal_system       triclinic
_cell_length_a                    10.887411
_cell_length_b                    12.712897
_cell_length_c                    13.897366
_cell_angle_alpha                 97.699737
_cell_angle_beta                  91.942863
_cell_angle_gamma                 92.274847
_cell_volume                      1903.20190015

loop_
_atom_site_label
_atom_site_type_symbol
_atom_type_description
_atom_site_fract_x
_atom_site_fract_y
_atom_site_fract_z
_atom_type_partial_charge
C1    C     C_R   0.496933 0.483677 0.315879 0.852966
C2    C     C_1   0.490162 0.474064 0.212719 -0.173207
C3    C     C_2   0.469219 0.027586 0.471260 0.319716
C4    C     C_R   0.260438 0.502048 0.506088 0.824760
C5    C     C_2   0.533985 0.972082 0.532254 -0.014956
C6    C     C_1   0.525209 0.854699 0.521443 0.254170
C7    C     C_1   0.475806 0.145405 0.480000 0.059571
C8    C     C_R   0.495070 0.516467 0.683816 0.758061
C9    C     C_R   0.740320 0.499366 0.510454 0.820351
C10   C     C_3   0.067062 0.504139 0.406482 0.598859
C11   C     C_3   0.922540 0.480813 0.405113 0.406031
C12   C     C_3   0.879254 0.498143 0.516924 -0.198842
C13   C     C_3   0.074124 0.402832 0.559110 -0.228003
C14   C     C_3   0.083973 0.611350 0.581845 0.431388
C15   C     C_3   0.123523 0.505616 0.514897 -0.259953
C16   C     C_3   0.869543 0.644431 0.674513 -0.421357
C17   C     C_3   0.813082 0.754896 0.691403 -0.314568
C18   C     C_3   0.750646 0.771902 0.788787 -0.858993
C19   C     C_3   0.155048 0.367500 0.645672 -0.387557
C20   C     C_3   0.166504 0.246140 0.634860 -0.296674
C21   C     C_3   0.237539 0.212717 0.721288 -0.887481
C22   C     C_3   0.897121 0.396945 0.680650 -0.459212
C23   C     C_3   0.929260 0.400044 0.570598 0.392443
C24   C     C_3   0.763540 0.377960 0.707094 -0.365213
C25   C     C_3   0.753077 0.390032 0.817358 -0.870642
C26   C     C_3   0.464302 0.335300 0.969261 -0.380304
C27   C     C_3   0.347722 0.275112 0.995458 -0.325569
C28   C     C_3   0.350227 0.156767 0.957889 -0.865596
C29   C     C_3   0.617489 0.027243 0.614744 -0.466950
C30   C     C_3   0.555191 0.027833 0.712073 -0.346971
C31   C     C_3   0.636751 0.085286 0.795818 -0.854394
C32   C     C_3   0.854926 0.549047 0.333524 -0.191587
C33   C     C_3   0.884703 0.517753 0.225748 -0.318014
C34   C     C_3   0.934846 0.612089 0.573757 0.363577
C35   C     C_3   0.822326 0.589277 0.160671 -0.894633
C36   C     C_3   0.144294 0.617508 0.688210 -0.490160
C37   C     C_3   0.155660 0.729386 0.748294 -0.336555
C38   C     C_3   0.167087 0.723002 0.857177 -0.837842
C39   C     C_1   0.487968 0.525087 0.786604 -0.177770
C40   C     C_2   0.479194 0.535705 0.976661 -0.192488
C41   C     C_2   0.473411 0.448361 0.021490 0.121541
C42   C     C_1   0.482787 0.463148 0.125692 -0.028677
C43   C     C_1   0.482663 0.530862 0.873179 -0.021759
Cu1   Cu    Cu3+1 0.491980 0.395330 0.493960 0.963949
Cu2   Cu    Cu3+1 0.508020 0.604670 0.506040 0.976162
H1    H     H_    0.486804 0.614095 0.019225 0.149128
H2    H     H_    0.927792 0.638652 0.739282 0.193828
H3    H     H_    0.331909 0.250265 0.727891 0.265834
H4    H     H_    0.188967 0.236288 0.789282 0.259179
H5    H     H_    0.244367 0.125052 0.710802 0.239153
H6    H     H_    0.073862 0.205420 0.628347 0.236198
H7    H     H_    0.215837 0.219374 0.567808 0.230821
H8    H     H_    0.249207 0.403429 0.651481 0.217595
H9    H     H_    0.123208 0.395025 0.718783 0.179310
H10   H     H_    0.815369 0.335981 0.849763 0.255469
H11   H     H_    0.776339 0.473390 0.849993 0.258845
H12   H     H_    0.089172 0.337919 0.499866 0.206331
H13   H     H_    0.657750 0.368947 0.834883 0.248914
H14   H     H_    0.706287 0.435638 0.678778 0.228833
H15   H     H_    0.727622 0.296902 0.677100 0.220960
H16   H     H_    0.940587 0.326958 0.704595 0.236114
H17   H     H_    0.936237 0.466418 0.728245 0.172757
H18   H     H_    0.365740 0.144217 0.878813 0.261616
H19   H     H_    0.424960 0.120093 0.996429 0.258047
H20   H     H_    0.261116 0.116721 0.971183 0.249424
H21   H     H_    0.339091 0.283709 0.075565 0.236934
H22   H     H_    0.265643 0.308749 0.963294 0.216807
H23   H     H_    0.151125 0.368822 0.364331 0.306044
H24   H     H_    0.463008 0.332598 0.889116 0.197603
H25   H     H_    0.547079 0.294110 0.990770 0.201360
H26   H     H_    0.728110 0.049575 0.797619 0.257235
H27   H     H_    0.649307 0.170546 0.787685 0.261753
H28   H     H_    0.592700 0.078887 0.865767 0.245732
H29   H     H_    0.466868 0.068457 0.709510 0.220821
H30   H     H_    0.535060 0.944855 0.725832 0.219171
H31   H     H_    0.704522 0.984452 0.616606 0.203684
H32   H     H_    0.643535 0.110048 0.603871 0.204750
H33   H     H_    0.353936 0.021765 0.361074 0.326827
H34   H     H_    0.675682 0.710605 0.791123 0.267521
H35   H     H_    0.177357 0.610301 0.358709 0.368467
H36   H     H_    0.721210 0.585603 0.168558 0.262198
H37   H     H_    0.857879 0.672816 0.180061 0.271107
H38   H     H_    0.841887 0.562544 0.083530 0.250695
H39   H     H_    0.985228 0.524063 0.215768 0.275551
H40   H     H_    0.852069 0.434322 0.200735 0.251188
H41   H     H_    0.754058 0.536326 0.336359 0.171898
H42   H     H_    0.875108 0.635381 0.351269 0.257093
H43   H     H_    0.954339 0.326109 0.366726 0.364238
H44   H     H_    0.801262 0.282149 0.534415 0.362705
H45   H     H_    0.818661 0.767984 0.849480 0.254232
H46   H     H_    0.082557 0.684528 0.881807 0.247695
H47   H     H_    0.247804 0.676754 0.873742 0.263759
H48   H     H_    0.179630 0.804327 0.897765 0.244514
H49   H     H_    0.239386 0.773266 0.728518 0.211820
H50   H     H_    0.076129 0.776942 0.733635 0.234506
H51   H     H_    0.097705 0.562696 0.730512 0.177590
H52   H     H_    0.239663 0.590386 0.683990 0.184724
H53   H     H_    0.212530 0.727514 0.569222 0.350676
H54   H     H_    0.934985 0.760387 0.541160 0.366538
H55   H     H_    0.710456 0.851232 0.798773 0.247632
H56   H     H_    0.884708 0.819431 0.691683 0.194530
H57   H     H_    0.743017 0.762128 0.633001 0.260575
H58   H     H_    0.791778 0.588838 0.680865 0.185539
N1    N     N_1   0.479930 0.238040 0.484880 -0.160830
N2    N     N_1   0.520070 0.761960 0.515120 -0.175306
O1    O     O_R   0.492240 0.399110 0.356330 -0.549432
O2    O     O_3   0.394430 0.970660 0.398472 -0.717678
O3    O     O_3   0.090286 0.604981 0.377307 -0.664330
O4    O     O_3   0.887052 0.375406 0.363604 -0.703946
O5    O     O_3   0.886991 0.300038 0.520218 -0.722244
O6    O     O_3   0.129779 0.702128 0.542259 -0.672609
O7    O     O_3   0.902461 0.688501 0.513201 -0.698190
O8    O     O_R   0.505790 0.575900 0.366540 -0.568731
O9    O     O_R   0.310920 0.411610 0.494880 -0.594317
O10   O     O_R   0.324460 0.588390 0.505090 -0.571927
O11   O     O_R   0.494210 0.424100 0.633460 -0.594251
O12   O     O_R   0.507760 0.600890 0.643670 -0.584462
O13   O     O_R   0.675540 0.411610 0.494910 -0.561860
O14   O     O_R   0.689080 0.588390 0.505120 -0.554223
O15   O     O_3   0.121186 0.430509 0.335826 -0.777348

loop_
_geom_bond_atom_site_label_1
_geom_bond_atom_site_label_2
_ccdc_geom_bond_type
C11   O4    S    
C34   O7    S    
C41   C42   S    
C4    O10   A    
C10   O3    S    
C19   C20   S    
C25   H11   S    
C21   H4    S    
C35   H36   S    
C29   H31   S    
C40   H1    S    
C12   C23   S    
C13   C23   S    
C26   C27   S    
C29   C30   S    
C1    O8    A    
C4    O9    A    
C36   C37   S    
C20   H6    S    
C3    C7    S    
C10   C15   S    
C14   C36   S    
C30   C31   S    
C30   H29   S    
C31   H28   S    
C13   H12   S    
C38   H47   S    
C37   H50   S    
C1    C2    S    
C17   H56   S    
C33   H40   S    
C16   C34   S    
C40   C43   S    
C16   C17   S    
C36   H52   S    
C8    C39   S    
C1    O1    A    
C21   H3    S    
Cu2   O14   S    
C31   H26   S    
Cu1   O9    S    
C9    O13   A    
C18   H55   S    
C16   H2    S    
C21   H5    S    
C9    C12   S    
C35   H37   S    
Cu2   N2    S    
C8    O12   A    
C5    C29   S    
Cu1   N1    S    
C14   O6    S    
C13   C19   S    
C18   H45   S    
C10   O15   S    
C24   C25   S    
C35   H38   S    
C18   H34   S    
C39   C43   T    
C3    O2    S    
C32   H42   S    
C38   H46   S    
H33   O2    S    
C17   H57   S    
C37   C38   S    
C22   H17   S    
C36   H51   S    
C16   H58   S    
Cu1   O13   S    
C24   H15   S    
C32   H41   S    
C17   C18   S    
H43   O4    S    
C28   H19   S    
C19   H9    S    
C31   H27   S    
C11   C32   S    
C7    N1    T    
C13   C15   S    
C26   H25   S    
C22   C24   S    
C25   H13   S    
C12   C34   S    
Cu1   Cu2   S    
Cu2   O12   S    
C23   O5    S    
C40   C41   D    
H53   O6    S    
C14   C15   S    
C25   H10   S    
Cu2   O10   S    
C3    C5    D    
C14   C34   S    
C11   C12   S    
Cu1   O1    S    
H35   O3    S    
C32   C33   S    
C4    C15   S    
C28   H20   S    
C20   H7    S    
C27   H21   S    
H23   O15   S    
C22   H16   S    
C30   H30   S    
C19   H8    S    
C5    C6    S    
C2    C42   T    
C24   H14   S    
C9    O14   A    
H54   O7    S    
H44   O5    S    
C38   H48   S    
C33   C35   S    
C6    N2    T    
C37   H49   S    
C33   H39   S    
C27   H22   S    
C10   C11   S    
C8    O11   A    
C28   H18   S    
Cu2   O8    S    
C29   H32   S    
C20   C21   S    
Cu1   O11   S    
C27   C28   S    
C26   H24   S    
C22   C23   S    
C26   C41   S    
