data_mof_unit_66007.cif
_audit_creation_date              2013-03-05T16:23:50-0500
_audit_creation_method            fapswitch 2.2
_symmetry_space_group_name_H-M    P1
_symmetry_Int_Tables_number       1
_space_group_crystal_system       triclinic
_cell_length_a                    30.729119
_cell_length_b                    31.82562
_cell_length_c                    21.647877
_cell_angle_alpha                 89.633032
_cell_angle_beta                  135.234342
_cell_angle_gamma                 90.162125
_cell_volume                      14908.4855851

loop_
_atom_site_label
_atom_site_type_symbol
_atom_site_description
_atom_site_fract_x
_atom_site_fract_y
_atom_site_fract_z
_atom_type_partial_charge
O1    O     O_R   0.448310 0.000000 0.356640 -0.630236
O2    O     O_R   0.948310 0.500000 0.356640 -0.632048
O3    O     O_R   0.551720 0.000000 0.460130 -0.623258
O4    O     O_R   0.051720 0.500000 0.460130 -0.622587
C1    C     C_R   0.499818 0.000236 0.379953 0.875501
C2    C     C_R   0.999831 0.499688 0.379960 0.874299
O5    O     O_R   0.448310 0.938390 0.448250 -0.620171
O6    O     O_R   0.448310 0.061610 0.448250 -0.594243
O7    O     O_R   0.948310 0.438390 0.448250 -0.626878
O8    O     O_R   0.948310 0.561610 0.448250 -0.587835
O9    O     O_R   0.551720 0.938410 0.551740 -0.621354
O10   O     O_R   0.551720 0.061590 0.551740 -0.621323
O11   O     O_R   0.051720 0.438410 0.551740 -0.617131
O12   O     O_R   0.051720 0.561590 0.551740 -0.625417
C3    C     C_R   0.500090 0.918738 0.500280 0.883228
C4    C     C_R   0.499962 0.081259 0.499755 0.942583
C5    C     C_R   0.000090 0.418743 0.500326 0.874784
C6    C     C_R   0.999962 0.581267 0.499752 0.949082
Zn1   Zn    Zn3+2 0.430960 0.000000 0.430900 1.001902
Zn2   Zn    Zn3+2 0.930960 0.500000 0.430900 1.000068
Zn3   Zn    Zn3+2 0.569060 1.000000 0.569100 0.974618
Zn4   Zn    Zn3+2 0.069060 0.500000 0.569100 0.973970
O13   O     O_R   0.448310 0.000000 0.539870 -0.584182
O14   O     O_R   0.948310 0.500000 0.539870 -0.583588
O15   O     O_R   0.551720 0.000000 0.643360 -0.627233
O16   O     O_R   0.051720 0.500000 0.643360 -0.627413
C7    C     C_R   0.500262 0.000219 0.620118 0.955516
C8    C     C_R   0.000263 0.500257 0.620117 0.955569
C9    C     C_3   0.492618 0.736423 0.434781 -0.166284
C10   C     C_3   0.442979 0.264208 0.427302 -0.178538
C11   C     C_3   0.943792 0.236200 0.427604 -0.166571
C12   C     C_3   0.982757 0.764410 0.427202 -0.170910
C13   C     C_3   0.546346 0.763958 0.511763 0.238684
C14   C     C_3   0.484965 0.236555 0.429097 0.240384
C15   C     C_3   0.986026 0.264242 0.430192 0.246860
C16   C     C_3   0.039383 0.736426 0.498006 0.229808
H1    H     H_    0.486322 0.724726 0.380646 0.145582
H2    H     H_    0.396651 0.276450 0.367624 0.143670
H3    H     H_    0.897545 0.224298 0.367583 0.142681
H4    H     H_    0.968975 0.776784 0.367253 0.143753
H5    H     H_    0.600170 0.723433 0.640943 0.141580
H6    H     H_    0.575362 0.276361 0.500551 0.152899
H7    H     H_    0.076547 0.224412 0.501907 0.145089
H8    H     H_    0.104479 0.775772 0.629476 0.154330
C17   C     C_1   0.500269 0.874224 0.500951 -0.179210
C18   C     C_1   0.499841 0.125767 0.499812 -0.130905
C19   C     C_1   0.000259 0.374238 0.500870 -0.185010
C20   C     C_1   0.999849 0.625785 0.500000 -0.128436
C21   C     C_1   0.500460 0.625822 0.500068 -0.178626
C22   C     C_1   0.499924 0.374167 0.500362 -0.175853
C23   C     C_1   0.000267 0.125835 0.499775 -0.178896
C24   C     C_1   0.000120 0.874185 0.500681 -0.175576
C25   C     C_3   0.446422 0.764158 0.424677 -0.200122
C26   C     C_3   0.458081 0.235906 0.499178 -0.177053
C27   C     C_3   0.958540 0.263692 0.499494 -0.201305
C28   C     C_3   0.942875 0.736294 0.430036 -0.199458
C29   C     C_3   0.500683 0.791184 0.501610 0.183986
C30   C     C_3   0.499745 0.208795 0.499925 0.172439
C31   C     C_3   0.000455 0.291211 0.501032 0.184675
C32   C     C_3   0.999942 0.708828 0.500626 0.174563
C33   C     C_3   0.454689 0.735752 0.490848 -0.150505
C34   C     C_3   0.514708 0.263671 0.571629 -0.141239
C35   C     C_3   0.015071 0.235527 0.571902 -0.154502
C36   C     C_3   0.960260 0.763895 0.503638 -0.146390
C37   C     C_3   0.500954 0.708859 0.501116 0.158359
C38   C     C_3   0.499733 0.291121 0.499868 0.148095
C39   C     C_3   0.000447 0.208887 0.500114 0.158653
C40   C     C_3   0.000227 0.791154 0.500974 0.151383
C41   C     C_3   0.509020 0.763484 0.567816 -0.200798
C42   C     C_3   0.556348 0.235860 0.572264 -0.190958
C43   C     C_3   0.056969 0.263757 0.573345 -0.205028
C44   C     C_3   0.017385 0.735724 0.574232 -0.174187
C45   C     C_3   0.555376 0.735719 0.578275 -0.167984
C46   C     C_3   0.541490 0.264158 0.500573 -0.163678
C47   C     C_3   0.042466 0.236262 0.501634 -0.165451
C48   C     C_3   0.057451 0.763851 0.571747 -0.167595
C49   C     C_1   0.500439 0.836685 0.501428 -0.053856
C50   C     C_1   0.499780 0.163300 0.499908 -0.026513
C51   C     C_1   0.000383 0.336705 0.501169 -0.051168
C52   C     C_1   0.999822 0.663325 0.500304 -0.031839
C53   C     C_1   0.500753 0.663373 0.500526 -0.057172
C54   C     C_1   0.499838 0.336612 0.500218 -0.050283
C55   C     C_1   0.000401 0.163392 0.499881 -0.057371
C56   C     C_1   0.000189 0.836635 0.500934 -0.051317
H9    H     H_    0.515563 0.775313 0.622095 0.146324
H10   H     H_    0.602702 0.223547 0.631705 0.159029
H11   H     H_    0.103230 0.275752 0.633128 0.148216
H12   H     H_    0.031391 0.723263 0.634283 0.171872
H13   H     H_    0.416860 0.723310 0.482197 0.146190
H14   H     H_    0.526985 0.275651 0.630448 0.154336
H15   H     H_    0.027063 0.222882 0.630383 0.145568
H16   H     H_    0.927617 0.776034 0.505969 0.151532
H17   H     H_    0.401757 0.776496 0.361908 0.150946
H18   H     H_    0.424069 0.223622 0.498848 0.167322
H19   H     H_    0.924330 0.275640 0.498884 0.150879
H20   H     H_    0.895943 0.724315 0.372151 0.152552
C57   C     C_R   0.468316 0.029363 0.249057 0.110061
C58   C     C_R   0.967896 0.470711 0.249148 0.111663
C59   C     C_R   0.499507 0.999093 0.314385 -0.097976
C60   C     C_R   0.999676 0.500622 0.314499 -0.096902
C61   C     C_R   0.531884 0.967456 0.315456 -0.207833
C62   C     C_R   0.033242 0.531548 0.316136 -0.212495
H21   H     H_    0.556615 0.943137 0.365515 0.156036
H22   H     H_    0.058587 0.555513 0.366312 0.154039
C63   C     C_R   0.531669 0.967149 0.250540 -0.204438
C64   C     C_R   0.033297 0.531699 0.251515 -0.208171
H23   H     H_    0.556411 0.942586 0.251354 0.164562
H24   H     H_    0.058750 0.555837 0.252573 0.159980
C65   C     C_R   0.500628 0.999244 0.186476 -0.082897
C66   C     C_R   0.001345 0.500121 0.187152 -0.079363
C67   C     C_R   0.469980 0.029904 0.188714 0.035117
C68   C     C_R   0.969874 0.469966 0.189122 0.024627
C69   C     C_3   0.432854 0.069266 0.145360 -0.472619
C70   C     C_3   0.931101 0.431494 0.144793 -0.453645
C71   C     C_3   0.431334 0.069064 0.215434 0.336451
C72   C     C_3   0.929252 0.431866 0.214520 0.327516
H25   H     H_    0.387480 0.063495 0.077129 0.185888
H26   H     H_    0.460117 0.095285 0.151909 0.200531
H27   H     H_    0.957321 0.404824 0.150989 0.205624
H28   H     H_    0.886106 0.438290 0.076603 0.193958
C73   C     C_R   0.519808 0.965814 0.737220 0.056322
C74   C     C_R   0.020284 0.465981 0.737694 0.057333
C75   C     C_R   0.501591 0.001845 0.686896 -0.214983
C76   C     C_R   0.001593 0.501900 0.686894 -0.215724
C77   C     C_R   0.494997 0.040258 0.711948 0.296374
C78   C     C_R   0.994426 0.540259 0.711391 0.296128
C79   C     C_R   0.497880 0.039584 0.779322 -0.236822
C80   C     C_R   0.997212 0.539572 0.778671 -0.237728
H29   H     H_    0.489524 0.068436 0.795870 0.207313
H30   H     H_    0.988433 0.568361 0.794808 0.207479
C81   C     C_R   0.506140 0.001374 0.819576 -0.129815
C82   C     C_R   0.005963 0.501402 0.819399 -0.131014
C83   C     C_R   0.521888 0.965517 0.802568 0.016228
C84   C     C_R   0.022278 0.465667 0.802954 0.016938
C85   C     C_3   0.500203 0.921046 0.785729 -0.384063
C86   C     C_3   0.001282 0.421038 0.786723 -0.385714
C87   C     C_3   0.497600 0.921130 0.712377 0.297212
C88   C     C_3   0.998792 0.421143 0.713477 0.297286
H31   H     H_    0.454424 0.918493 0.762677 0.245068
H32   H     H_    0.536412 0.900200 0.842300 0.179403
H33   H     H_    0.955511 0.418137 0.763601 0.245176
H34   H     H_    0.037779 0.400440 0.843612 0.179301
O17   O     O_R   0.408300 0.500000 0.356580 -0.625077
O18   O     O_R   0.908300 0.000000 0.356580 -0.625080
O19   O     O_R   0.408400 0.500000 0.460120 -0.624658
O20   O     O_R   0.908400 1.000000 0.460120 -0.624789
C89   C     C_R   0.379766 0.500278 0.379667 0.881153
C90   C     C_R   0.879764 0.000275 0.379665 0.881081
O21   O     O_R   0.499900 0.561630 0.448170 -0.612817
O22   O     O_R   0.499900 0.438370 0.448170 -0.615594
O23   O     O_R   0.999900 0.061630 0.448170 -0.612773
O24   O     O_R   0.999900 0.938370 0.448170 -0.615682
O25   O     O_R   0.500000 0.561620 0.551710 -0.619761
O26   O     O_R   0.500000 0.438380 0.551710 -0.612727
O27   O     O_R   0.000000 0.061620 0.551710 -0.619867
O28   O     O_R   0.000000 0.938380 0.551710 -0.612399
C91   C     C_R   0.500084 0.581289 0.499920 0.897984
C92   C     C_R   0.499989 0.418707 0.500145 0.907719
C93   C     C_R   0.000055 0.081294 0.499879 0.897737
C94   C     C_R   0.000018 0.918714 0.500189 0.908164
Zn5   Zn    Zn3+2 0.499870 0.500000 0.430790 0.975736
Zn6   Zn    Zn3+2 0.999870 0.000000 0.430790 0.975460
Zn7   Zn    Zn3+2 0.500010 0.500000 0.569060 0.965893
Zn8   Zn    Zn3+2 0.000010 1.000000 0.569060 0.966185
O29   O     O_R   0.591480 0.500000 0.539730 -0.618296
O30   O     O_R   0.091480 0.000000 0.539730 -0.618698
O31   O     O_R   0.591580 0.500000 0.643270 -0.623489
O32   O     O_R   0.091580 1.000000 0.643270 -0.623030
C95   C     C_R   0.619785 0.500542 0.620093 0.903960
C96   C     C_R   0.119801 0.000623 0.620116 0.903752
O33   O     O_R   0.591630 0.965220 0.091680 -0.631169
O34   O     O_R   0.591630 0.034780 0.091680 -0.624618
O35   O     O_R   0.091630 0.465220 0.091680 -0.629111
O36   O     O_R   0.091630 0.534780 0.091680 -0.626272
C97   C     C_R   0.620184 0.999913 0.119725 0.870198
C98   C     C_R   0.120185 0.499913 0.119732 0.870765
O37   O     O_R   0.500040 0.965230 0.091630 -0.623669
O38   O     O_R   0.500040 0.034770 0.091630 -0.630248
O39   O     O_R   0.000040 0.465230 0.091630 -0.620376
O40   O     O_R   0.000040 0.534770 0.091630 -0.634333
C99   C     C_R   0.500233 0.999845 0.120445 0.879683
C100  C     C_R   0.000375 0.499927 0.120574 0.878389
Zn9   Zn    Zn3+2 0.500030 0.953570 0.000010 1.031333
Zn10  Zn    Zn3+2 0.500030 0.046430 0.000010 0.969136
Zn11  Zn    Zn3+2 0.000030 0.453570 0.000010 1.029180
Zn12  Zn    Zn3+2 0.000030 0.546430 0.000010 0.970819
O41   O     O_R   0.408450 0.965250 0.908360 -0.565265
O42   O     O_R   0.408450 0.034750 0.908360 -0.633219
O43   O     O_R   0.908450 0.465250 0.908360 -0.566913
O44   O     O_R   0.908450 0.534750 0.908360 -0.631701
O45   O     O_R   0.500040 0.965230 0.908410 -0.605697
O46   O     O_R   0.500040 0.034770 0.908410 -0.633238
O47   O     O_R   0.000040 0.465230 0.908410 -0.604479
O48   O     O_R   0.000040 0.534770 0.908410 -0.633618
C101  C     C_R   0.379598 0.000043 0.878694 0.959859
C102  C     C_R   0.879580 0.500044 0.878711 0.958138
C103  C     C_R   0.501076 0.000217 0.880548 0.967256
C104  C     C_R   0.000973 0.500219 0.880443 0.965465
C105  C     C_R   0.281197 0.474403 0.240260 0.018180
C106  C     C_R   0.781188 0.974489 0.240119 0.018427
C107  C     C_R   0.313772 0.499282 0.314553 -0.080797
C108  C     C_R   0.813768 0.999269 0.314545 -0.081076
C109  C     C_R   0.281983 0.520366 0.329705 -0.202212
C110  C     C_R   0.781978 0.020252 0.329792 -0.202697
H35   H     H_    0.306641 0.538077 0.389271 0.162828
H36   H     H_    0.806632 0.037886 0.389441 0.163628
C111  C     C_R   0.717738 0.020626 0.265247 -0.216569
C112  C     C_R   0.217742 0.520734 0.265164 -0.215433
H37   H     H_    0.693184 0.038156 0.275582 0.155959
H38   H     H_    0.193185 0.538339 0.275416 0.152823
C113  C     C_R   0.685759 0.999240 0.186775 -0.091669
C114  C     C_R   0.185763 0.499241 0.186798 -0.090899
C115  C     C_R   0.717667 0.974430 0.176817 0.118710
C116  C     C_R   0.217677 0.474336 0.176968 0.119091
C117  C     C_3   0.713725 0.972406 0.103582 0.319851
C118  C     C_3   0.213731 0.472142 0.103740 0.319933
C119  C     C_3   0.284491 0.471835 0.174665 -0.452346
C120  C     C_3   0.784485 0.972085 0.174512 -0.452000
H39   H     H_    0.305926 0.500237 0.175146 0.202913
H40   H     H_    0.305454 0.441696 0.180546 0.190200
H41   H     H_    0.805936 0.000531 0.175157 0.202789
H42   H     H_    0.805434 0.941978 0.180225 0.190265
C121  C     C_R   0.716912 0.465220 0.700900 -0.072295
C122  C     C_R   0.216928 0.965638 0.699287 -0.071091
C123  C     C_R   0.685388 0.501051 0.687600 -0.041515
C124  C     C_R   0.185437 0.001065 0.687689 -0.042963
C125  C     C_R   0.717790 0.535298 0.745590 0.176079
C126  C     C_R   0.217930 0.034730 0.747350 0.177374
C127  C     C_R   0.282463 0.033889 0.811008 -0.199477
C128  C     C_R   0.782324 0.534470 0.809326 -0.196203
H43   H     H_    0.308333 0.059949 0.855981 0.161931
H44   H     H_    0.808103 0.560966 0.852974 0.166362
C129  C     C_R   0.313552 0.000074 0.814828 -0.152661
C130  C     C_R   0.813502 0.500094 0.814827 -0.156531
C131  C     C_R   0.280301 0.965172 0.761564 0.033396
C132  C     C_R   0.780287 0.464771 0.763179 0.030160
C133  C     C_3   0.280463 0.941260 0.701704 0.543221
C134  C     C_3   0.780473 0.439622 0.704454 0.547236
C135  C     C_3   0.709820 0.439637 0.636701 -0.551430
C136  C     C_3   0.209813 0.941254 0.633932 -0.549156
H45   H     H_    0.689530 0.408346 0.626878 0.208680
H46   H     H_    0.685395 0.457215 0.574893 0.244071
H47   H     H_    0.189472 0.909778 0.622649 0.209142
H48   H     H_    0.185447 0.959605 0.572956 0.244198
C137  C     C_3   0.598385 0.780419 0.523661 -0.923127
H49   H     H_    0.624084 0.753618 0.529315 0.248620
H50   H     H_    0.578931 0.800156 0.466307 0.246765
H51   H     H_    0.630443 0.799587 0.584122 0.247820
C138  C     C_3   0.468088 0.220585 0.348259 -0.946443
H52   H     H_    0.459819 0.247619 0.308351 0.249993
H53   H     H_    0.506446 0.201113 0.368551 0.249868
H54   H     H_    0.425567 0.201251 0.308376 0.247275
C139  C     C_3   0.969482 0.281073 0.349752 -0.939450
H55   H     H_    0.961696 0.254470 0.309976 0.250306
H56   H     H_    0.926745 0.300303 0.309575 0.247729
H57   H     H_    0.007787 0.300837 0.370491 0.250474
C140  C     C_3   0.084298 0.720405 0.494799 -0.914774
H58   H     H_    0.106483 0.747425 0.493374 0.255010
H59   H     H_    0.120402 0.700774 0.553679 0.250469
H60   H     H_    0.059068 0.701240 0.434987 0.240591
C141  C     C_3   0.366633 0.062588 0.177578 -0.825742
H61   H     H_    0.343888 0.034637 0.134259 0.227025
H62   H     H_    0.369628 0.058019 0.231391 0.253754
H63   H     H_    0.337541 0.090663 0.138617 0.234808
C142  C     C_3   0.467070 0.105348 0.280995 -0.875298
H64   H     H_    0.471698 0.099894 0.336151 0.227800
H65   H     H_    0.514121 0.108205 0.308245 0.230642
H66   H     H_    0.441913 0.135358 0.247816 0.248211
C143  C     C_3   0.963305 0.394839 0.279349 -0.865221
H67   H     H_    0.967750 0.400190 0.334251 0.235844
H68   H     H_    0.937013 0.365401 0.245356 0.249080
H69   H     H_    0.010376 0.390954 0.307045 0.230174
C144  C     C_3   0.864695 0.439817 0.176296 -0.822711
H70   H     H_    0.843276 0.468286 0.133678 0.225122
H71   H     H_    0.834480 0.412428 0.136520 0.238146
H72   H     H_    0.867560 0.444288 0.229915 0.254417
N1    N     N_R   0.483535 0.079474 0.668869 0.199370
O49   O     O_R   0.446667 0.081234 0.584336 -0.386118
O50   O     O_R   0.503581 0.114449 0.712487 -0.394678
N2    N     N_R   0.982569 0.579432 0.667937 0.199127
O51   O     O_R   0.945772 0.581029 0.583411 -0.385057
O52   O     O_R   0.002198 0.614497 0.711197 -0.397422
C145  C     C_3   0.431878 0.916016 0.620343 -0.777109
H73   H     H_    0.399852 0.939554 0.608352 0.264188
H74   H     H_    0.432029 0.920035 0.569520 0.232614
H75   H     H_    0.414354 0.884089 0.613827 0.244587
C146  C     C_3   0.544853 0.891722 0.729691 -0.860288
H76   H     H_    0.531125 0.858476 0.723361 0.241283
H77   H     H_    0.546995 0.898069 0.681391 0.236973
H78   H     H_    0.591762 0.896383 0.796682 0.231268
C147  C     C_3   0.933202 0.415566 0.621453 -0.780603
H79   H     H_    0.933373 0.419650 0.570662 0.232789
H80   H     H_    0.916179 0.383494 0.615329 0.243553
H81   H     H_    0.900762 0.438838 0.609054 0.263965
C148  C     C_3   0.046564 0.392109 0.731351 -0.857282
H82   H     H_    0.093368 0.397127 0.798290 0.230295
H83   H     H_    0.033381 0.358760 0.725550 0.243739
H84   H     H_    0.048653 0.398481 0.683001 0.237636
C149  C     C_3   0.685531 0.011784 0.044620 -0.837677
H85   H     H_    0.706403 0.040879 0.084548 0.233455
H86   H     H_    0.693756 0.011094 0.002291 0.245519
H87   H     H_    0.634965 0.012850 0.001930 0.224455
C150  C     C_3   0.684324 0.931421 0.051468 -0.857517
H88   H     H_    0.691186 0.928208 0.007788 0.240015
H89   H     H_    0.705230 0.903681 0.096061 0.228418
H90   H     H_    0.633935 0.931677 0.010512 0.244511
C151  C     C_3   0.185510 0.511437 0.044549 -0.837902
H91   H     H_    0.206366 0.540585 0.084304 0.233470
H92   H     H_    0.193732 0.510626 0.002220 0.245471
H93   H     H_    0.134945 0.512509 0.001857 0.224638
C152  C     C_3   0.184350 0.431093 0.051870 -0.857719
H94   H     H_    0.191183 0.427765 0.008174 0.239829
H95   H     H_    0.205289 0.403415 0.096623 0.228233
H96   H     H_    0.133967 0.431355 0.010952 0.244624
C153  C     C_3   0.684699 0.573444 0.736872 -0.891456
H97   H     H_    0.654335 0.587039 0.669889 0.231935
H98   H     H_    0.656233 0.564519 0.748814 0.255341
H99   H     H_    0.717631 0.598149 0.784800 0.235852
C154  C     C_3   0.184972 0.072374 0.740531 -0.890539
H100  H     H_    0.154414 0.086668 0.674096 0.231991
H101  H     H_    0.156752 0.062676 0.752512 0.255652
H102  H     H_    0.217987 0.096783 0.789395 0.234538
N3    N     N_R   0.306967 0.898958 0.733207 0.207965
O53   O     O_R   0.337961 0.887210 0.813132 -0.382063
O54   O     O_R   0.300715 0.872944 0.681235 -0.366722
N4    N     N_R   0.306385 0.965077 0.675601 0.196363
O55   O     O_R   0.365712 0.970890 0.732139 -0.424245
O56   O     O_R   0.272428 0.975406 0.594013 -0.380065
N5    N     N_R   0.807030 0.397446 0.737904 0.208472
O57   O     O_R   0.837873 0.386685 0.818254 -0.386067
O58   O     O_R   0.800854 0.370497 0.687188 -0.366249
N6    N     N_R   0.806360 0.462370 0.677274 0.196621
O59   O     O_R   0.865696 0.468063 0.733458 -0.422347
O60   O     O_R   0.772325 0.471846 0.595288 -0.380899

loop_
_geom_bond_atom_site_label_1
_geom_bond_atom_site_label_2
_geom_bond_distance
_ccdc_geom_bond_type
C27   C31   1.536303 S    
C105  C116  1.374645 A    
C106  C120  1.496303 S    
C147  H79   1.110061 S    
C150  H89   1.111589 S    
C11   C39   1.536573 S    
C109  H35   1.083536 S    
C134  N5    1.465167 S    
O33   Zn9   2.017497 S    
C81   C103  1.434832 S    
O26   C92   1.283142 A    
C129  C131  1.394416 A    
C32   C44   1.536565 S    
C9    C13   1.540962 S    
C136  H48   1.110524 S    
C144  H72   1.110064 S    
C10   H2    1.110214 S    
C24   C56   1.195015 T    
C71   C141  1.534016 S    
C44   H12   1.110131 S    
O9    C3    1.282058 A    
O10   C4    1.281787 A    
O8    Zn2   1.997281 S    
C42   C46   1.551261 S    
C146  H77   1.110547 S    
N4    O55   1.299389 A    
C57   C71   1.496475 S    
O34   C97   1.268962 A    
O5    C3    1.281927 A    
O6    C4    1.282121 A    
C137  H49   1.109675 S    
C130  C132  1.394558 A    
C126  C127  1.396999 A    
O40   C100  1.266635 A    
C115  C117  1.503619 S    
O29   C95   1.278659 A    
C138  H53   1.109850 S    
N3    O53   1.301650 A    
Zn8   O32   2.019819 S    
C34   C38   1.535580 S    
C30   C42   1.536444 S    
C98   C114  1.419353 S    
Zn12  O44   2.017247 S    
Zn1   O13   2.015711 S    
C88   C147  1.537330 S    
C38   C54   1.447836 S    
C150  H88   1.110638 S    
O28   C94   1.282771 A    
C112  C114  1.398344 A    
C117  C149  1.538076 S    
C82   C104  1.434678 S    
C67   C69   1.491409 S    
N6    O59   1.299465 A    
C128  H44   1.083972 S    
C13   C45   1.541216 S    
C59   C61   1.405980 A    
C35   C43   1.550012 S    
O5    Zn1   1.995522 S    
C96   C124  1.420782 S    
C126  C154  1.508339 S    
C72   C143  1.534150 S    
C23   C55   1.195282 T    
C118  C151  1.538069 S    
C139  H56   1.109728 S    
C85   C87   1.532145 S    
O22   Zn5   1.994687 S    
C121  C135  1.491754 S    
O43   C102  1.270093 A    
C78   N2    1.439706 S    
O8    C6    1.282251 A    
C128  C130  1.404016 A    
C79   C81   1.405952 A    
C73   C75   1.391686 A    
C33   C37   1.535848 S    
C82   C84   1.390445 A    
C137  H51   1.109776 S    
C35   H15   1.110105 S    
C77   C79   1.397004 A    
C83   C85   1.495468 S    
C87   C146  1.534693 S    
C151  H92   1.110516 S    
O17   Zn5   2.019819 S    
Zn5   O29   2.014771 S    
O23   C93   1.282999 A    
C69   C71   1.550422 S    
C24   C94   1.417130 S    
C154  H101  1.109644 S    
C39   C55   1.447950 S    
C68   C70   1.490935 S    
C90   C108  1.428895 S    
O31   C95   1.273010 A    
C22   C92   1.417498 S    
C10   C26   1.551370 S    
O35   Zn11  2.017497 S    
C138  H52   1.109595 S    
Zn3   O15   2.021030 S    
O25   Zn7   1.994330 S    
C12   C16   1.540923 S    
C147  H80   1.110511 S    
C122  C131  1.371842 A    
C65   C67   1.382776 A    
C141  H61   1.111631 S    
C116  C118  1.503626 S    
C38   C46   1.536680 S    
C134  N6    1.469370 S    
C140  H58   1.109689 S    
C73   C87   1.503454 S    
H8    C48   1.110224 S    
C74   C84   1.369895 A    
C25   C33   1.549767 S    
C27   C35   1.549985 S    
C28   C36   1.549949 S    
C97   C113  1.419293 S    
O14   C8    1.276154 A    
C70   H27   1.112011 S    
N1    O49   1.300197 A    
C145  H75   1.110511 S    
C111  C113  1.398294 A    
C107  C109  1.404857 A    
C21   C91   1.417310 S    
C125  C153  1.508318 S    
C144  H70   1.111628 S    
O6    Zn1   1.997281 S    
C58   C68   1.343627 A    
C10   C14   1.541268 S    
O27   C93   1.282445 A    
C89   C107  1.428830 S    
N2    O51   1.300179 A    
C117  C120  1.531248 S    
O19   Zn7   2.014771 S    
O20   Zn8   2.014771 S    
O9    Zn3   1.996621 S    
N3    O54   1.300866 A    
C2    C60   1.413862 S    
C62   H22   1.083572 S    
C79   H29   1.083334 S    
O4    Zn4   2.015883 S    
C135  H45   1.112041 S    
C13   C137  1.519916 S    
C122  C136  1.491820 S    
C87   C145  1.537315 S    
O40   Zn12  2.015243 S    
C9    C37   1.536249 S    
C106  C108  1.393364 A    
O30   C96   1.279009 A    
C152  H95   1.111594 S    
C69   H25   1.112257 S    
C39   C47   1.536534 S    
C74   C76   1.391656 A    
C41   H9    1.110230 S    
C120  H41   1.112674 S    
C76   C78   1.412708 A    
C65   C99   1.420840 S    
C63   C65   1.409054 A    
C32   C52   1.448211 S    
C138  H54   1.109807 S    
C78   C80   1.397001 A    
Zn12  O48   2.019918 S    
C5    C19   1.416357 S    
C88   C148  1.534626 S    
C6    C20   1.416888 S    
C141  H63   1.110455 S    
C70   C72   1.550405 S    
C8    C76   1.418165 S    
Zn11  O43   2.015498 S    
C40   C48   1.536408 S    
C117  C150  1.534698 S    
C109  C112  1.390189 A    
O11   C5    1.282001 A    
C151  H93   1.109248 S    
O12   Zn4   1.994851 S    
C142  H65   1.111542 S    
C148  H83   1.110590 S    
O48   C104  1.268794 A    
C102  C130  1.431107 S    
O37   C99   1.267378 A    
C144  H71   1.110455 S    
C127  C129  1.403613 A    
C72   C144  1.534076 S    
C149  H87   1.109244 S    
C66   C68   1.382353 A    
C121  C132  1.371892 A    
H5    C45   1.110228 S    
C61   H21   1.083553 S    
C133  C136  1.530656 S    
C145  H73   1.111772 S    
C111  H37   1.083671 S    
C17   C49   1.194684 T    
C105  C119  1.496288 S    
C119  H40   1.112068 S    
C108  C110  1.404857 A    
O1    C1    1.275013 A    
C26   C30   1.536391 S    
C57   C67   1.343081 A    
C75   C77   1.412670 A    
O47   C104  1.274043 A    
C15   C31   1.527807 S    
C21   C53   1.195138 T    
C86   H34   1.112100 S    
Zn6   O30   2.014771 S    
C1    C59   1.413354 S    
O42   C101  1.270282 A    
C153  H99   1.110758 S    
Zn10  O46   2.019918 S    
C41   C45   1.551712 S    
C44   C48   1.551506 S    
O39   C100  1.269525 A    
O41   C101  1.269869 A    
O32   C96   1.273074 A    
C153  H97   1.110615 S    
C143  H67   1.110050 S    
H7    C47   1.110204 S    
O19   C89   1.277254 A    
C150  H90   1.110998 S    
O20   C90   1.277280 A    
C85   H32   1.112112 S    
O1    Zn1   2.021280 S    
H6    C46   1.110220 S    
O2    Zn2   2.021280 S    
C151  H91   1.111578 S    
C40   C56   1.447453 S    
C29   C49   1.448101 S    
C74   C88   1.503321 S    
O4    C2    1.274814 A    
C31   C51   1.447921 S    
C148  H82   1.111811 S    
C18   C50   1.194545 T    
C25   C29   1.536476 S    
C26   C34   1.549950 S    
C16   C32   1.527902 S    
O37   Zn9   2.019915 S    
C136  H47   1.112040 S    
C28   C32   1.536490 S    
C122  C124  1.388626 A    
C149  H85   1.111578 S    
Zn9   O41   2.015498 S    
C139  H57   1.109852 S    
C63   H23   1.083341 S    
O7    Zn2   1.995522 S    
C37   C53   1.447718 S    
C146  H76   1.110627 S    
C110  C111  1.390149 A    
O23   Zn6   1.999412 S    
C121  C123  1.388412 A    
C146  H78   1.111799 S    
O46   C103  1.268873 A    
C14   C46   1.541225 S    
C43   H11   1.110085 S    
C114  C116  1.392176 A    
C58   C60   1.382560 A    
C137  H50   1.109789 S    
C11   C15   1.541048 S    
O15   C7    1.274298 A    
C36   H16   1.110103 S    
C4    C18   1.416495 S    
C36   C40   1.535642 S    
C22   C54   1.195229 T    
C28   H20   1.110092 S    
C134  C135  1.530716 S    
O22   C92   1.282257 A    
N2    O52   1.301427 A    
O3    C1    1.274904 A    
C80   H30   1.083345 S    
O39   Zn11  2.019915 S    
C85   H31   1.112498 S    
C140  H60   1.109788 S    
C127  H43   1.084102 S    
C139  H55   1.109591 S    
C77   N1    1.439671 S    
C132  C134  1.510015 S    
O11   Zn4   1.996621 S    
C133  N3    1.465134 S    
C14   C138  1.520136 S    
O25   C91   1.282163 A    
O36   C98   1.268975 A    
O38   C99   1.269058 A    
C30   C50   1.447919 S    
C154  H100  1.110618 S    
C66   C100  1.420331 S    
Zn4   O16   2.021030 S    
C143  H69   1.111547 S    
C9    H1    1.110214 S    
C105  C107  1.393315 A    
C101  C129  1.430396 S    
C11   C27   1.551312 S    
O21   C91   1.283154 A    
C12   C28   1.551191 S    
O24   Zn6   1.994687 S    
C71   C142  1.534405 S    
C152  H94   1.110641 S    
O24   C94   1.282436 A    
C145  H74   1.110056 S    
N5    O57   1.301678 A    
O12   C6    1.281877 A    
C19   C51   1.194496 T    
O18   C90   1.281043 A    
O17   C89   1.281036 A    
C15   C47   1.541116 S    
C86   H33   1.112422 S    
C64   H24   1.083409 S    
N6    O60   1.301493 A    
C37   C45   1.536598 S    
C16   C48   1.541072 S    
C123  C125  1.411297 A    
Zn2   O14   2.015711 S    
O13   C7    1.276141 A    
C142  H64   1.110141 S    
O44   C102  1.270416 A    
C12   C40   1.536400 S    
C36   C44   1.550100 S    
C154  H102  1.110787 S    
C131  C133  1.510038 S    
C34   C42   1.549879 S    
C133  N4    1.469225 S    
O2    C2    1.275371 A    
C80   C82   1.405989 A    
C57   C59   1.381948 A    
C33   H13   1.110107 S    
C120  H42   1.112064 S    
C148  H84   1.110582 S    
C61   C63   1.400714 A    
C35   C39   1.535867 S    
C153  H98   1.109695 S    
C25   H17   1.110097 S    
O26   Zn7   1.999057 S    
C147  H81   1.111763 S    
C118  C119  1.531257 S    
C27   H19   1.110130 S    
C141  H62   1.110126 S    
C7    C75   1.418183 S    
C118  C152  1.534687 S    
C84   C86   1.495482 S    
O33   C97   1.266590 A    
O10   Zn3   1.994851 S    
Zn10  O42   2.017247 S    
C140  H59   1.109767 S    
Zn7   O31   2.019819 S    
O34   Zn10  2.015752 S    
C58   C72   1.496653 S    
C60   C62   1.405910 A    
C106  C115  1.374672 A    
N5    O58   1.300863 A    
C70   H28   1.112196 S    
C16   C140  1.519943 S    
C14   C30   1.527699 S    
C149  H86   1.110515 S    
C10   C38   1.536693 S    
O7    C5    1.281824 A    
C113  C115  1.392143 A    
C110  H36   1.083535 S    
C124  C126  1.411892 A    
N1    O50   1.301419 A    
O3    Zn3   2.015883 S    
C3    C17   1.416637 S    
C42   H10   1.110094 S    
C86   C88   1.532216 S    
C15   C139  1.519935 S    
C64   C66   1.408941 A    
O35   C98   1.266610 A    
C33   C41   1.550160 S    
C13   C29   1.527917 S    
O18   Zn6   2.019819 S    
O45   C103  1.274010 A    
Zn11  O47   2.015246 S    
C81   C83   1.390513 A    
Zn9   O45   2.015246 S    
N4    O56   1.301493 A    
O27   Zn8   1.994330 S    
C119  H39   1.112671 S    
O16   C8    1.274271 A    
C73   C83   1.369991 A    
C20   C52   1.194793 T    
C143  H68   1.110104 S    
O36   Zn12  2.015752 S    
C43   C47   1.551446 S    
C9    C25   1.551076 S    
C34   H14   1.110104 S    
C23   C93   1.417552 S    
C11   H3    1.110205 S    
C62   C64   1.400096 A    
C135  H46   1.110544 S    
C95   C123  1.420068 S    
C12   H4    1.110221 S    
C142  H66   1.110242 S    
C26   H18   1.110104 S    
C69   H26   1.112012 S    
C125  C128  1.396955 A    
O21   Zn5   1.999412 S    
O28   Zn8   1.999057 S    
C112  H38   1.083703 S    
C152  H96   1.110980 S    
C29   C41   1.536428 S    
O38   Zn10  2.015243 S    
C31   C43   1.536431 S    
