data_mof_unit_17381.cif
_audit_creation_date              2012-12-11T15:04:12-0500
_audit_creation_method            fapswitch 2.2
_symmetry_space_group_name_H-M    P1
_symmetry_Int_Tables_number       1
_space_group_crystal_system       triclinic
_cell_length_a                    8.296593
_cell_length_b                    15.10417
_cell_length_c                    18.823396
_cell_angle_alpha                 99.921832
_cell_angle_beta                  91.488876
_cell_angle_gamma                 99.646534
_cell_volume                      2287.02821161

loop_
_atom_site_label
_atom_site_type_symbol
_atom_type_description
_atom_site_fract_x
_atom_site_fract_y
_atom_site_fract_z
_atom_type_partial_charge
Ba1   Ba    Ba6+2 0.854120 0.540280 0.465540 1.655980
Ba2   Ba    Ba6+2 0.335710 0.459790 0.534460 1.661973
C1    C     C_3   0.638434 0.849499 0.239535 -0.021626
C2    C     C_R   0.890635 0.411848 0.094299 0.028096
C3    C     C_R   0.727831 0.373885 0.070823 -0.066490
C4    C     C_3   0.127258 0.720139 0.273110 0.364630
C5    C     C_R   0.668110 0.378024 0.001529 -0.074835
C6    C     C_R   0.770529 0.419026 0.953714 0.026297
C7    C     C_R   0.934725 0.456905 0.976168 0.022116
C8    C     C_R   0.710002 0.423248 0.884278 -0.102746
C9    C     C_R   0.811196 0.463794 0.835379 -0.026338
C10   C     C_R   0.976916 0.502588 0.857769 0.025887
C11   C     C_R   0.037832 0.499118 0.928469 0.023113
C12   C     C_3   0.581690 0.755563 0.260351 0.291240
C13   C     C_R   0.750397 0.469749 0.765614 0.053829
C14   C     C_R   0.852618 0.518104 0.721939 -0.262350
C15   C     C_R   0.021302 0.545486 0.737973 0.007414
C16   C     C_3   0.126307 0.744198 0.197953 -0.356990
C17   C     C_R   0.081471 0.545212 0.809859 -0.050366
C18   C     C_R   0.156974 0.493244 0.070608 0.012307
C19   C     C_R   0.214025 0.494597 0.142971 -0.002719
C20   C     C_R   0.107118 0.455652 0.191883 -0.049252
C21   C     C_R   0.949073 0.409941 0.164810 -0.036487
C22   C     C_R   0.239617 0.590027 0.836550 0.026755
C23   C     C_3   0.455734 0.319373 0.312585 0.302769
C24   C     C_R   0.303252 0.585179 0.906014 -0.047857
C25   C     C_R   0.201275 0.538434 0.951911 -0.039960
C26   C     C_R   0.260779 0.534307 0.022602 0.018202
C27   C     C_R   0.465717 0.626843 0.931567 0.427157
C28   C     C_3   0.258328 0.741594 0.623995 0.309497
C29   C     C_R   0.524756 0.617594 0.999936 -0.137400
C30   C     C_R   0.423609 0.572967 0.045841 -0.033688
C31   C     C_R   0.377707 0.535598 0.166196 -0.037232
C32   C     C_R   0.482209 0.570743 0.115994 -0.092426
C33   C     C_R   0.430360 0.543292 0.239588 -0.023739
C34   C     C_3   0.429397 0.290948 0.231010 -0.385395
C35   C     C_R   0.320442 0.510920 0.288327 -0.290058
C36   C     C_R   0.161536 0.465178 0.266117 0.057081
C37   C     C_R   0.773473 0.232306 0.513390 -0.053638
C38   C     C_R   0.858433 0.175817 0.545562 0.000723
C39   C     C_R   0.790451 0.083481 0.541154 -0.174965
C40   C     C_3   0.291775 0.845267 0.643974 -0.396368
C41   C     C_R   0.637343 0.045619 0.502751 0.016574
C42   C     C_R   0.554684 0.105751 0.471366 -0.137943
C43   C     C_R   0.619889 0.198221 0.478178 0.028778
C44   C     C_R   0.406888 0.909567 0.460767 -0.138539
C45   C     C_3   0.975974 0.239238 0.721550 0.348379
C46   C     C_R   0.343125 0.816469 0.450466 0.012173
C47   C     C_R   0.583781 0.789270 0.511838 0.029402
C48   C     C_R   0.653042 0.881943 0.518589 -0.139241
C49   C     C_R   0.565732 0.944865 0.493742 0.022644
C50   C     C_R   0.433202 0.756341 0.474223 -0.264418
C51   C     C_3   0.984958 0.246437 0.366926 0.274140
C52   C     C_3   0.041973 0.155519 0.345215 -0.356912
C53   C     C_3   0.764891 0.828795 0.674512 0.176385
C54   C     C_3   0.812530 0.850643 0.754993 0.294230
C55   C     C_3   0.821134 0.921671 0.345705 -0.149088
C56   C     C_3   0.033778 0.253528 0.800688 -0.267959
C57   C     C_3   0.812852 0.385205 0.580365 0.025899
C58   C     C_3   0.512606 0.232573 0.692594 0.357073
C59   C     C_3   0.469228 0.140213 0.715512 -0.316643
C60   C     C_R   0.994387 0.453929 0.047005 0.008831
H1    H     H_    0.531683 0.763460 0.314956 -0.006733
H2    H     H_    0.667028 0.867649 0.663866 0.017360
H3    H     H_    0.875737 0.851250 0.645816 0.055762
H4    H     H_    0.910147 0.812473 0.767270 0.033265
H5    H     H_    0.703768 0.830630 0.785100 0.141763
H6    H     H_    0.482637 0.719076 0.220041 -0.037144
H7    H     H_    0.539064 0.865695 0.205822 0.063806
H8    H     H_    0.342357 0.340129 0.334559 0.004496
H9    H     H_    0.558735 0.378004 0.324618 0.068881
H10   H     H_    0.321251 0.235555 0.217381 0.133483
H11   H     H_    0.408370 0.349626 0.206066 0.057418
H12   H     H_    0.370117 0.867345 0.694794 0.151918
H13   H     H_    0.539226 0.266091 0.208324 0.128269
H14   H     H_    0.746398 0.848410 0.205755 0.124120
H15   H     H_    0.226616 0.802090 0.195373 0.112304
H16   H     H_    0.948883 0.305638 0.710858 -0.068882
H17   H     H_    0.863548 0.186428 0.712176 0.060671
H18   H     H_    0.144683 0.307488 0.811857 0.116117
H19   H     H_    0.935896 0.275104 0.835307 0.062679
H20   H     H_    0.063288 0.189116 0.814186 0.193204
H21   H     H_    0.642499 0.241991 0.679389 -0.108792
H22   H     H_    0.434515 0.232165 0.643830 0.108846
H23   H     H_    0.354915 0.876079 0.600913 0.062790
H24   H     H_    0.493743 0.085540 0.671668 0.084724
H25   H     H_    0.337747 0.127000 0.726989 0.169895
H26   H     H_    0.025789 0.662395 0.273958 0.112916
H27   H     H_    0.544017 0.139198 0.765023 0.163466
H28   H     H_    0.645586 0.342107 0.106487 0.066795
H29   H     H_    0.541269 0.349112 0.985336 0.082104
H30   H     H_    0.799951 0.533022 0.673304 0.048698
H31   H     H_    0.582062 0.396620 0.869753 0.107970
H32   H     H_    0.867456 0.374473 0.198454 0.109130
H33   H     H_    0.312466 0.629892 0.803095 0.179685
H34   H     H_    0.174505 0.870694 0.651621 0.137804
H35   H     H_    0.648866 0.649018 0.019088 0.132671
H36   H     H_    0.608581 0.600471 0.131784 0.098367
H37   H     H_    0.245191 0.698281 0.284182 -0.088509
H38   H     H_    0.361911 0.518113 0.344333 0.068209
H39   H     H_    0.327561 0.952212 0.443551 0.072866
H40   H     H_    0.860242 0.043376 0.567704 0.100279
H41   H     H_    0.773722 0.903094 0.544337 0.074196
H42   H     H_    0.440661 0.083118 0.439886 0.069980
H43   H     H_    0.380814 0.684643 0.467892 0.062608
H44   H     H_    0.144331 0.684460 0.157442 0.079546
H45   H     H_    0.854427 0.231623 0.378684 -0.002359
H46   H     H_    0.007289 0.763669 0.184742 0.144479
H47   H     H_    0.374520 0.717199 0.612406 0.015700
H48   H     H_    0.171355 0.721066 0.575782 0.055494
H49   H     H_    0.574921 0.932316 0.331932 0.195729
H50   H     H_    0.841578 0.982280 0.389536 0.085987
H51   H     H_    0.929157 0.924972 0.312052 0.145209
H52   H     H_    0.806736 0.859503 0.370407 0.164915
H53   H     H_    0.140911 0.984768 0.761567 0.338495
H54   H     H_    0.722972 0.668657 0.786395 0.339958
H55   H     H_    0.862255 0.351422 0.470604 0.192955
H56   H     H_    0.060698 0.284129 0.415338 0.082687
H57   H     H_    0.743281 0.436666 0.567877 0.148829
H58   H     H_    0.921025 0.428390 0.604961 0.096643
H59   H     H_    0.770803 0.346786 0.623059 -0.027377
H60   H     H_    0.959942 0.111835 0.300563 0.129894
H61   H     H_    0.040150 0.120114 0.392280 0.069630
H62   H     H_    0.168773 0.166570 0.327115 0.136669
N1    N     N_2   0.674949 0.921538 0.302364 -0.444180
N2    N     N_2   0.845724 0.324815 0.516980 -0.430766
O1    O     O_2   0.871030 0.438240 0.324420 -0.469844
O2    O     O_2   0.198018 0.184881 0.548197 -0.489866
O3    O     O_3   0.097868 0.208172 0.678455 -0.570143
O4    O     O_3   0.120590 0.445310 0.413740 -0.506738
O5    O     O_3   0.582100 0.611510 0.537680 -0.466361
O6    O     O_2   0.334040 0.276520 0.462890 -0.464759
O7    O     O_3   0.492007 0.244957 0.341380 -0.638302
O8    O     O_2   0.408167 0.459619 0.754262 -0.445177
O9    O     O_3   0.486105 0.301223 0.749328 -0.610286
O10   O     O_3   0.663040 0.605930 0.370050 -0.462769
O11   O     O_2   0.766730 0.540074 0.244200 -0.499708
O12   O     O_3   0.706861 0.734464 0.653023 -0.632101
O13   O     O_3   0.996018 0.292760 0.308560 -0.634681
O14   O     O_3   0.712692 0.706937 0.258151 -0.598867
O15   O     O_2   0.855660 0.723510 0.537160 -0.460374
O16   O     O_3   0.086340 0.654970 0.406630 -0.488013
O17   O     O_2   0.009068 0.817830 0.456093 -0.490869
O18   O     O_2   0.751138 0.021954 0.769692 -0.314033
O19   O     O_2   0.931028 0.989216 0.863236 -0.240182
O20   O     O_3   0.048083 0.004440 0.738089 -0.547333
O21   O     O_2   0.516865 0.781408 0.879828 -0.276293
O22   O     O_2   0.761130 0.729021 0.921035 -0.302722
O23   O     O_3   0.105524 0.796390 0.323999 -0.608809
O24   O     O_3   0.611294 0.644326 0.799090 -0.545956
O25   O     O_2   0.318670 0.561790 0.675630 -0.426691
O26   O     O_3   0.069120 0.554770 0.586270 -0.519365
O27   O     O_3   0.526680 0.394150 0.629950 -0.503389
O28   O     O_3   0.192391 0.707191 0.683070 -0.614663
O29   O     O_3   0.607620 0.388570 0.462320 -0.504006
O30   O     O_3   0.103380 0.345110 0.593380 -0.464870
P1    P     P_3+3 0.038110 0.412300 0.335300 0.957129
P2    P     P_3+3 0.679950 0.711710 0.558590 0.998557
P3    P     P_3+3 0.135509 0.772479 0.410626 0.945639
P4    P     P_3+3 0.151600 0.587780 0.664700 1.006184
P5    P     P_3+3 0.062956 0.226213 0.590443 0.987631
P6    P     P_3+3 0.640533 0.597702 0.276673 0.940663
P7    P     P_3+3 0.512070 0.274446 0.435582 0.942484
P8    P     P_3+3 0.545077 0.408432 0.724732 0.988200
S1    S     S_3+6 0.884518 0.970048 0.783669 -0.085086
S2    S     S_3+6 0.593716 0.698890 0.883431 -0.107729

loop_
_geom_bond_atom_site_label_1
_geom_bond_atom_site_label_2
_ccdc_geom_bond_type
C57   H59   S    
C53   C54   S    
O26   P4    S    
Ba2   O29   S    
O22   S2    D    
O9    P8    S    
C45   H17   S    
O16   P3    S    
C52   H61   S    
O12   P2    S    
H54   O24   S    
C42   H42   S    
C5    C6    A    
O10   P6    S    
C51   C52   S    
C57   N2    S    
H53   O20   S    
C24   C25   A    
C57   H58   S    
C53   O12   S    
C45   O3    S    
O4    P1    S    
C40   H34   S    
Ba1   P2    S    
C34   H13   S    
C22   C24   A    
C56   H20   S    
C55   N1    S    
O11   P6    D    
C58   H21   S    
C55   H50   S    
C19   C31   A    
O14   P6    S    
C13   C14   A    
C20   C36   A    
C2    C60   A    
C4    H26   S    
C39   H40   S    
Ba1   O26   S    
Ba1   Ba2   S    
Ba1   O29   S    
C15   P4    S    
C7    C11   A    
Ba1   O16   S    
C59   H25   S    
C15   C17   A    
C4    O23   S    
C9    C13   A    
C14   C15   A    
C54   S1    S    
H49   N1    S    
Ba2   O6    S    
C23   H9    S    
Ba1   O10   S    
C23   O7    S    
H55   N2    S    
O1    P1    D    
C3    H28   S    
C56   H18   S    
C37   C43   A    
Ba2   O30   S    
C1    H7    S    
C52   H60   S    
C48   H41   S    
C37   N2    S    
C19   C20   A    
C39   C41   A    
O7    P7    S    
C44   H39   S    
C59   H27   S    
C48   C49   A    
Ba2   O26   S    
C4    C16   S    
C46   P3    S    
C44   C46   A    
C40   H12   S    
C33   P6    S    
C28   H47   S    
C7    C60   A    
C13   P8    S    
C26   C30   A    
C31   C32   A    
Ba1   O4    S    
C34   H11   S    
C56   H19   S    
C37   C38   A    
C3    C5    A    
C2    C21   A    
C51   H56   S    
C6    C7    A    
O19   S1    D    
C18   C26   A    
C8    H31   S    
O29   P7    S    
C44   C49   A    
C58   C59   S    
C30   C32   A    
C27   S2    S    
O5    P2    S    
C41   C42   A    
C16   H44   S    
O28   P4    S    
C35   C36   A    
O21   S2    D    
C51   H45   S    
C29   C30   A    
C46   C50   A    
C47   C50   A    
C5    H29   S    
C53   H2    S    
Ba2   O5    S    
O3    P5    S    
C40   H23   S    
C18   C19   A    
C1    H14   S    
O23   P3    S    
C58   O9    S    
C1    C12   S    
Ba2   P4    S    
C38   C39   A    
O20   S1    S    
C28   H48   S    
C50   H43   S    
C14   H30   S    
Ba2   O27   S    
C8    C9    A    
C47   P2    S    
C22   H33   S    
C53   H3    S    
O27   P8    S    
Ba2   O4    S    
C42   C43   A    
Ba2   O25   S    
C52   H62   S    
C57   H57   S    
C33   C35   A    
C51   O13   S    
C28   C40   S    
Ba1   O1    S    
C36   P1    S    
C12   O14   S    
C2    C3    A    
Ba1   O5    S    
O30   P5    S    
C55   H51   S    
C9    C10   A    
C1    N1    S    
O17   P3    D    
C55   H52   S    
C54   H5    S    
C21   H32   S    
O18   S1    D    
C4    H37   S    
C32   H36   S    
Ba1   P1    S    
C17   C22   A    
C43   P7    S    
O6    P7    D    
C38   P5    S    
C27   C29   A    
O25   P4    D    
C45   C56   S    
C58   H22   S    
C41   C49   S    
C16   H15   S    
C54   H4    S    
C12   H1    S    
C10   C17   A    
O2    P5    D    
C31   C33   A    
O8    P8    D    
C29   H35   S    
C18   C60   A    
C16   H46   S    
Ba1   O15   S    
C59   H24   S    
C23   C34   S    
O15   P2    D    
C28   O28   S    
C10   C11   A    
O13   P1    S    
C24   C27   A    
C6    C8    A    
C47   C48   A    
C25   C26   A    
C12   H6    S    
C20   C21   A    
C11   C25   A    
C23   H8    S    
C45   H16   S    
C35   H38   S    
C34   H10   S    
O24   S2    S    
