data_mof_unit_51214.cif
_audit_creation_date              2012-12-10T17:32:41-0500
_audit_creation_method            fapswitch 2.2
_symmetry_space_group_name_H-M    P1
_symmetry_Int_Tables_number       1
_space_group_crystal_system       triclinic
_cell_length_a                    12.223041
_cell_length_b                    12.886001
_cell_length_c                    14.0938
_cell_angle_alpha                 92.940774
_cell_angle_beta                  86.69506
_cell_angle_gamma                 93.568922
_cell_volume                      2209.3322431

loop_
_atom_site_label
_atom_site_type_symbol
_atom_type_description
_atom_site_fract_x
_atom_site_fract_y
_atom_site_fract_z
_atom_type_partial_charge
C1    C     C_R   0.521789 0.699911 0.498345 0.914590
C2    C     C_R   0.140931 0.488899 0.441257 0.499888
C3    C     C_R   0.975515 0.502181 0.546172 -0.309215
C4    C     C_R   0.024498 0.497933 0.453801 -0.306239
C5    C     C_R   0.500102 0.500125 0.670333 0.882296
C6    C     C_R   0.499893 0.499861 0.329667 0.884207
C7    C     C_1   0.500382 0.499985 0.771885 -0.048818
C8    C     C_1   0.499591 0.499960 0.228113 -0.047323
C9    C     C_1   0.500379 0.499956 0.857290 0.080225
C10   C     C_1   0.499563 0.499960 0.142708 0.082269
C11   C     C_1   0.500105 0.499948 0.957286 0.074277
C12   C     C_R   0.478198 0.300124 0.501954 0.910762
C13   C     C_1   0.499811 0.499947 0.042712 0.074922
C14   C     C_R   0.465166 0.188660 0.503752 -0.141095
C15   C     C_R   0.534658 0.811504 0.498210 -0.165191
C16   C     C_R   0.647454 0.970662 0.514357 0.424069
C17   C     C_R   0.351821 0.029544 0.490649 0.383506
C18   C     C_R   0.637184 0.862888 0.508856 -0.201043
C19   C     C_R   0.362441 0.137291 0.494240 -0.237056
C20   C     C_R   0.441366 0.866354 0.490514 -0.131974
C21   C     C_R   0.558246 0.133906 0.512730 -0.130742
C22   C     C_R   0.447450 0.973665 0.496309 -0.010313
C23   C     C_R   0.551929 0.026572 0.508226 -0.029041
C24   C     C_R   0.954129 0.495222 0.378036 0.383058
C25   C     C_R   0.045891 0.504923 0.621922 0.380270
C26   C     C_R   0.843324 0.462331 0.395202 0.373289
C27   C     C_R   0.156688 0.537688 0.604788 0.393380
C28   C     C_R   0.859073 0.511099 0.558748 0.504711
H1    H     H_    0.636156 0.176130 0.522106 0.241683
H2    H     H_    0.845321 0.273372 0.194217 0.399742
H3    H     H_    0.032972 0.539418 0.127529 0.397354
H4    H     H_    0.096299 0.321047 0.799887 0.398440
H5    H     H_    0.363593 0.824197 0.480321 0.242893
H6    H     H_    0.290895 0.181382 0.488321 0.232176
H7    H     H_    0.708871 0.818795 0.514122 0.251450
H8    H     H_    0.931520 0.974405 0.574941 0.415563
H9    H     H_    0.113777 0.085789 0.542661 0.362308
H10   H     H_    0.309092 0.303124 0.296767 0.374910
H11   H     H_    0.690779 0.696421 0.703629 0.372741
H12   H     H_    0.154844 0.727152 0.805424 0.396918
N1    N     N_R   0.207800 0.519340 0.515940 -0.223378
N2    N     N_R   0.792200 0.480660 0.484060 -0.222622
O1    O     O_R   0.421690 0.658830 0.504250 -0.581025
O2    O     O_2   0.777922 0.097571 0.620869 -0.285546
O3    O     O_3   0.873419 0.940817 0.535671 -0.476357
O4    O     O_2   0.216977 0.903784 0.386802 -0.202357
O5    O     O_2   0.188945 0.899995 0.559841 -0.263617
O6    O     O_3   0.123721 0.058301 0.475976 -0.461185
O7    O     O_2   0.097329 0.351603 0.294428 -0.191540
O8    O     O_2   0.238832 0.489876 0.264396 -0.260554
O9    O     O_3   0.283106 0.332342 0.359865 -0.546341
O10   O     O_2   0.761010 0.509364 0.735484 -0.248319
O11   O     O_2   0.902408 0.647888 0.706132 -0.207366
O12   O     O_R   0.578310 0.341170 0.495750 -0.581703
O13   O     O_3   0.716748 0.667306 0.640487 -0.549371
O14   O     O_2   0.255191 0.549441 0.771151 -0.272656
O15   O     O_2   0.309029 0.688269 0.661478 -0.279988
O16   O     O_3   0.119612 0.690945 0.750387 -0.455560
O17   O     O_2   0.690843 0.311910 0.338439 -0.279475
O18   O     O_2   0.744969 0.450713 0.228797 -0.270582
O19   O     O_3   0.880287 0.308966 0.249669 -0.439317
O20   O     O_2   0.893737 0.633454 0.258855 -0.248854
O21   O     O_2   0.087514 0.642345 0.293836 -0.226406
O22   O     O_3   0.014328 0.491600 0.179654 -0.418899
O23   O     O_R   0.609320 0.646410 0.494030 -0.575683
O24   O     O_2   0.988961 0.499231 0.809842 -0.162494
O25   O     O_2   0.913295 0.356807 0.705751 -0.236936
O26   O     O_3   0.118706 0.358848 0.741796 -0.539342
O27   O     O_R   0.390680 0.353590 0.505970 -0.576962
O28   O     O_R   0.406170 0.506210 0.631400 -0.549122
O29   O     O_R   0.593830 0.493790 0.368600 -0.550425
O30   O     O_R   0.593790 0.493790 0.621170 -0.548276
O31   O     O_R   0.406210 0.506210 0.378830 -0.547985
O32   O     O_2   0.813165 0.098345 0.447908 -0.208568
S1    S     S_3+6 0.780372 0.031001 0.530030 0.071837
S2    S     S_3+6 0.218292 0.969084 0.478247 0.076671
S3    S     S_3+6 0.190122 0.416383 0.337021 0.114182
S4    S     S_3+6 0.809758 0.583219 0.663181 0.115976
S5    S     S_3+6 0.216171 0.616852 0.697601 0.118269
S6    S     S_3+6 0.783823 0.383221 0.302368 0.122108
S7    S     S_3+6 0.988800 0.569739 0.276601 0.151412
S8    S     S_3+6 0.011744 0.429773 0.722930 0.134279
Zn1   Zn    Zn3+2 0.374720 0.508290 0.506830 1.104630
Zn2   Zn    Zn3+2 0.625280 0.491710 0.493170 1.105598

loop_
_geom_bond_atom_site_label_1
_geom_bond_atom_site_label_2
_ccdc_geom_bond_type
C15   C18   A    
C12   O27   A    
C16   S1    S    
O1    Zn1   S    
O15   S5    D    
O4    S2    D    
O14   S5    D    
O21   S7    D    
C14   C21   A    
C3    C28   A    
C24   C26   A    
O5    S2    D    
C5    O30   A    
C27   S5    S    
C4    C24   A    
O19   S6    S    
N1    Zn1   S    
O6    S2    S    
C1    O1    A    
H11   O13   S    
C17   S2    S    
C1    O23   A    
C1    C15   S    
C28   S4    S    
C18   H7    S    
H4    O26   S    
C6    O29   A    
O10   S4    D    
H3    O22   S    
O12   Zn2   S    
C15   C20   A    
H12   O16   S    
O32   S1    D    
C3    C25   A    
N2    Zn2   S    
C5    C7    S    
O13   S4    S    
O23   Zn2   S    
C6    C8    S    
H10   O9    S    
C21   H1    S    
C19   H6    S    
C26   S6    S    
O2    S1    D    
C2    C4    A    
C24   S7    S    
O9    S3    S    
C5    O28   A    
O27   Zn1   S    
O24   S8    D    
C27   N1    A    
H8    O3    S    
H9    O6    S    
O28   Zn1   S    
C9    C11   S    
O30   Zn2   S    
O16   S5    S    
C20   H5    S    
C16   C18   A    
O20   S7    D    
C20   C22   A    
C16   C23   A    
C21   C23   A    
C25   S8    S    
C3    C4    A    
O8    S3    D    
C26   N2    A    
C6    O31   A    
O29   Zn2   S    
C7    C9    T    
O18   S6    D    
C14   C19   A    
C12   C14   S    
C10   C13   S    
O17   S6    D    
C25   C27   A    
C17   C22   A    
O3    S1    S    
O26   S8    S    
O11   S4    D    
C2    S3    S    
C11   C13   T    
C28   N2    A    
C17   C19   A    
O7    S3    D    
O22   S7    S    
O25   S8    D    
C8    C10   T    
H2    O19   S    
C22   C23   A    
C2    N1    A    
O31   Zn1   S    
C12   O12   A    
