data_mof_unit_10387.cif
_audit_creation_date              2012-12-10T16:39:33-0500
_audit_creation_method            fapswitch 2.2
_symmetry_space_group_name_H-M    P1
_symmetry_Int_Tables_number       1
_space_group_crystal_system       triclinic
_cell_length_a                    16.860935
_cell_length_b                    16.813057
_cell_length_c                    16.758891
_cell_angle_alpha                 66.521451
_cell_angle_beta                  65.819725
_cell_angle_gamma                 65.634734
_cell_volume                      3794.58811482

loop_
_atom_site_label
_atom_site_type_symbol
_atom_type_description
_atom_site_fract_x
_atom_site_fract_y
_atom_site_fract_z
_atom_type_partial_charge
C1    C     C_R   0.329766 0.928057 0.465297 0.034897
C2    C     C_R   0.326957 0.460208 0.943876 0.029980
C3    C     C_R   0.547323 0.414473 0.981924 0.031559
C4    C     C_R   0.986577 0.462368 0.594380 0.031125
C5    C     C_R   0.957776 0.553950 0.422904 0.030093
C6    C     C_R   0.037742 0.676676 0.544005 0.027818
C7    C     C_R   0.938317 0.328281 0.460708 0.021627
C8    C     C_R   0.469838 0.929909 0.474670 -0.036508
C9    C     C_R   0.556164 0.969032 0.562054 -0.035495
C10   C     C_R   0.949535 0.466018 0.466620 -0.037506
C11   C     C_R   0.999429 0.548707 0.548883 -0.038182
C12   C     C_R   0.459686 0.459509 0.971184 -0.036741
C13   C     C_R   0.542304 0.542433 0.021092 -0.038707
C14   C     C_R   0.968106 0.178599 0.435798 0.972465
C15   C     C_R   0.691712 0.985936 0.567200 0.020058
C16   C     C_R   0.035989 0.820058 0.562658 0.919344
C17   C     C_R   0.179859 0.437843 0.961163 0.948910
C18   C     C_R   0.820120 0.562403 0.037995 0.931134
C19   C     C_R   0.438982 0.960727 0.179480 0.929311
C20   C     C_R   0.562451 0.035449 0.820427 0.932402
C21   C     C_R   0.561917 0.820436 0.038334 0.917628
C22   C     C_R   0.438337 0.179509 0.960885 0.956663
C23   C     C_R   0.036593 0.562301 0.820085 0.934634
C24   C     C_R   0.967380 0.436216 0.178628 0.942893
C25   C     C_R   0.822767 0.022560 0.568271 0.950625
C26   C     C_R   0.936693 0.460520 0.329086 0.018787
C27   C     C_R   0.179510 0.966353 0.435782 0.949939
C28   C     C_R   0.422728 0.923981 0.425312 0.081035
C29   C     C_R   0.597779 0.994848 0.602589 0.063158
C30   C     C_R   0.940017 0.418792 0.419350 0.077037
C31   C     C_R   0.026043 0.589610 0.589557 0.062022
C32   C     C_R   0.416180 0.415833 0.951451 0.067771
C33   C     C_R   0.585219 0.585509 0.042416 0.062604
C34   C     C_R   0.278127 0.947707 0.406181 -0.179656
C35   C     C_R   0.728653 0.023418 0.603663 -0.160687
C36   C     C_R   0.956176 0.403319 0.274691 -0.172619
C37   C     C_R   0.040159 0.543454 0.675888 0.024736
C38   C     C_R   0.056361 0.590221 0.720512 -0.161235
C39   C     C_R   0.411407 0.279477 0.934753 -0.164219
C40   C     C_R   0.588871 0.720588 0.062854 -0.165832
C41   C     C_R   0.590950 0.048816 0.722051 -0.152792
C42   C     C_R   0.408990 0.942125 0.278799 -0.179153
C43   C     C_R   0.720105 0.589839 0.061797 -0.166573
C44   C     C_R   0.280052 0.410421 0.935654 -0.162747
C45   C     C_R   0.054943 0.720799 0.590725 -0.162760
C46   C     C_R   0.957116 0.274439 0.403091 -0.176128
C47   C     C_R   0.451614 0.034337 0.714743 -0.196715
C48   C     C_R   0.461016 0.326846 0.942260 0.031616
C49   C     C_R   0.562523 0.901180 0.301525 -0.206966
C50   C     C_R   0.033158 0.715322 0.452763 -0.228284
C51   C     C_R   0.927037 0.293930 0.555879 -0.203101
C52   C     C_R   0.712616 0.448213 0.049696 -0.212673
C53   C     C_R   0.288813 0.553146 0.943644 -0.198807
C54   C     C_R   0.291467 0.922687 0.559541 -0.201960
C55   C     C_R   0.743166 0.942626 0.495389 -0.225510
C56   C     C_R   0.554216 0.289137 0.939952 -0.195566
C57   C     C_R   0.447109 0.712113 0.053666 -0.214183
C58   C     C_R   0.923365 0.555742 0.295272 -0.207234
C59   C     C_R   0.539986 0.674063 0.052761 0.028984
C60   C     C_R   0.038476 0.451674 0.713743 -0.198142
C61   C     C_R   0.317016 0.978689 0.314216 0.090277
C62   C     C_R   0.673761 0.064164 0.673598 0.066151
C63   C     C_R   0.981155 0.309807 0.309477 0.082464
C64   C     C_R   0.076596 0.671955 0.672125 0.079884
C65   C     C_R   0.327996 0.326860 0.916899 0.090609
C66   C     C_R   0.671684 0.672710 0.081709 0.078987
C67   C     C_R   0.700442 0.926408 0.449200 0.100932
C68   C     C_R   0.332864 0.943445 0.602871 0.106241
C69   C     C_R   0.005220 0.414132 0.677841 0.098252
C70   C     C_R   0.545950 0.026809 0.680509 0.031091
C71   C     C_R   0.942268 0.600058 0.337524 0.113102
C72   C     C_R   0.407157 0.673091 0.026199 0.103515
C73   C     C_R   0.594931 0.328927 0.965681 0.102181
C74   C     C_R   0.610469 0.903347 0.352672 0.110013
C75   C     C_R   0.412712 0.001144 0.679944 0.098070
C76   C     C_R   0.328237 0.593837 0.969842 0.100869
C77   C     C_R   0.673889 0.408259 0.021895 0.101969
C78   C     C_R   0.946819 0.335895 0.599759 0.106288
C79   C     C_R   0.999929 0.678999 0.415604 0.104381
C80   C     C_R   0.749961 0.898153 0.369147 -0.196041
C81   C     C_R   0.466299 0.919868 0.333895 0.037005
C82   C     C_R   0.284218 0.965369 0.685956 -0.188103
C83   C     C_R   0.991132 0.328424 0.723891 -0.194915
C84   C     C_R   0.952401 0.687292 0.292943 -0.190715
C85   C     C_R   0.320324 0.718938 0.013776 -0.200981
C86   C     C_R   0.682150 0.283498 0.977128 -0.189790
C87   C     C_R   0.705169 0.888598 0.320316 -0.186862
C88   C     C_R   0.322703 0.997312 0.722429 -0.195193
C89   C     C_R   0.282196 0.680636 0.983529 -0.190107
C90   C     C_R   0.720325 0.321831 0.007285 -0.198800
C91   C     C_R   0.959512 0.290741 0.686303 -0.190448
C92   C     C_R   0.674071 0.540786 0.050981 0.027976
C93   C     C_R   0.983765 0.725287 0.330449 -0.224112
C94   C     C_R   0.562313 0.924265 0.436608 0.029146
C95   C     C_R   0.464138 0.971854 0.601106 0.030825
C96   C     C_R   0.960238 0.421795 0.553930 0.031979
C97   C     C_R   0.983902 0.594718 0.463365 0.036072
C98   C     C_R   0.414104 0.546740 0.984073 0.031581
C99   C     C_R   0.588096 0.455424 0.007622 0.032572
C100  C     C_R   0.606429 0.939808 0.482651 0.034410
C101  C     C_R   0.422553 0.947685 0.559902 0.032988
C102  C     C_R   0.454870 0.587666 0.009810 0.032004
H1    H     H_    0.282477 0.018063 0.784315 0.142360
H2    H     H_    0.282780 0.785316 0.025461 0.136118
H3    H     H_    0.940844 0.723982 0.226987 0.141955
H4    H     H_    0.004032 0.290838 0.789176 0.140393
H5    H     H_    0.405858 0.068753 0.766524 0.188637
H6    H     H_    0.600619 0.887659 0.236197 0.188801
H7    H     H_    0.059620 0.770928 0.406241 0.179881
H8    H     H_    0.907880 0.232845 0.596768 0.191576
H9    H     H_    0.771130 0.403810 0.073161 0.177584
H10   H     H_    0.229700 0.596819 0.920877 0.190023
H11   H     H_    0.227530 0.908698 0.599626 0.192412
H12   H     H_    0.744443 0.870778 0.256815 0.153344
H13   H     H_    0.816439 0.920297 0.473056 0.183482
H14   H     H_    0.597785 0.229858 0.916191 0.187142
H15   H     H_    0.402804 0.770721 0.078269 0.173726
H16   H     H_    0.903518 0.596161 0.234162 0.192214
H17   H     H_    0.066644 0.405675 0.768786 0.189966
H18   H     H_    0.994889 0.791090 0.293123 0.130836
H19   H     H_    0.949680 0.224306 0.722698 0.141913
H20   H     H_    0.787029 0.284726 0.017277 0.137744
H21   H     H_    0.215635 0.717860 0.973209 0.141776
H22   H     H_    0.214718 0.962858 0.719917 0.142105
H23   H     H_    0.822803 0.887298 0.342147 0.140718
H24   H     H_    0.719783 0.217232 0.965185 0.141548
I1    I     I_    0.284959 0.122601 0.269355 -0.281351
I2    I     I_    0.706214 0.159786 0.701967 -0.380516
I3    I     I_    0.076553 0.221823 0.219540 -0.231195
I4    I     I_    0.154847 0.713547 0.714196 -0.387791
I5    I     I_    0.282275 0.279729 0.845962 -0.361376
I6    I     I_    0.716154 0.718029 0.155216 -0.421793
O1    O     O_R   0.982940 0.138950 0.510160 -0.641293
O2    O     O_R   0.982940 0.510160 0.138950 -0.641754
O3    O     O_R   0.861050 0.017060 0.489840 -0.652802
O4    O     O_R   0.138950 0.982940 0.510160 -0.639532
O5    O     O_R   0.867700 0.025880 0.612340 -0.594396
O6    O     O_R   0.132300 0.974120 0.387660 -0.603330
O7    O     O_R   0.025880 0.612340 0.867700 -0.590087
O8    O     O_R   0.974120 0.387660 0.132300 -0.599534
O9    O     O_R   0.612340 0.867700 0.025880 -0.589846
O10   O     O_R   0.387660 0.132300 0.974120 -0.577739
O11   O     O_R   0.387660 0.974120 0.132300 -0.603263
O12   O     O_R   0.017060 0.861050 0.489840 -0.668387
O13   O     O_R   0.612340 0.025880 0.867700 -0.593078
O14   O     O_R   0.132300 0.387660 0.974120 -0.577013
O15   O     O_R   0.867700 0.612340 0.025880 -0.586401
O16   O     O_R   0.974120 0.132300 0.387660 -0.589683
O17   O     O_R   0.025880 0.867700 0.612340 -0.592611
O18   O     O_R   0.138950 0.510160 0.982940 -0.645487
O19   O     O_R   0.861050 0.489840 0.017060 -0.650898
O20   O     O_R   0.510160 0.982940 0.138950 -0.623993
O21   O     O_R   0.489840 0.017060 0.861050 -0.645868
O22   O     O_R   0.489840 0.861050 0.017060 -0.651386
O23   O     O_R   0.510160 0.138950 0.982940 -0.639858
O24   O     O_R   0.017060 0.489840 0.861050 -0.646319
Zn1   Zn    Zn3+2 0.004880 0.004880 0.583590 0.983514
Zn2   Zn    Zn3+2 0.995120 0.995120 0.416410 0.963580
Zn3   Zn    Zn3+2 0.004880 0.583590 0.004880 0.987370
Zn4   Zn    Zn3+2 0.995120 0.416410 0.995120 0.984727
Zn5   Zn    Zn3+2 0.583590 0.004880 0.004880 0.992744
Zn6   Zn    Zn3+2 0.416410 0.995120 0.995120 0.980456

loop_
_geom_bond_atom_site_label_1
_geom_bond_atom_site_label_2
_ccdc_geom_bond_type
O9    Zn5   S    
C6    C45   A    
C86   H24   S    
C90   H20   S    
C74   C94   A    
C17   O18   A    
O15   Zn3   S    
C50   C79   A    
C72   C85   A    
C75   C95   A    
C14   C46   S    
O23   Zn5   S    
C24   C36   S    
O13   Zn5   S    
C27   O4    A    
C23   O7    A    
C16   O12   A    
C79   C93   A    
C80   C87   A    
C58   C71   A    
C57   C59   A    
O14   Zn4   S    
C80   H23   S    
C76   C98   A    
C54   H11   S    
C14   O16   A    
C58   H16   S    
C60   H17   S    
C2    C32   A    
C15   C35   A    
O6    Zn2   S    
C87   H12   S    
C3    C12   A    
C4    C96   A    
C78   C96   A    
C1    C28   A    
C21   O22   A    
C15   C29   A    
C16   O17   A    
C93   H18   S    
C94   C100  A    
C74   C87   A    
C35   C62   A    
C36   C63   A    
C8    C101  A    
C9    C95   A    
O11   Zn6   S    
C12   C98   A    
O20   Zn5   S    
C19   C42   S    
C9    C29   A    
C76   C89   A    
C63   I3    S    
O2    Zn3   S    
C11   C31   A    
C33   C59   A    
C40   C59   A    
C40   C66   A    
C23   O24   A    
C12   C32   A    
C39   C65   A    
C44   C65   A    
C42   C81   A    
C41   C62   A    
C3    C73   A    
C82   H22   S    
C4    C69   A    
C65   I5    S    
C79   C97   A    
C1    C34   A    
C20   C41   S    
C49   H6    S    
C38   C64   A    
C22   O23   A    
C27   C34   S    
C77   C90   A    
C27   O6    A    
O18   Zn3   S    
C7    C46   A    
O24   Zn4   S    
C8    C94   A    
C68   C101  A    
C18   O15   A    
C20   O21   A    
C33   C92   A    
C2    C44   A    
C85   C89   A    
C52   C77   A    
C89   H21   S    
C52   H9    S    
C98   C102  A    
C34   C61   A    
C24   O8    A    
C31   C37   A    
C15   C55   A    
C13   C99   A    
C77   C99   A    
C25   O5    A    
C1    C54   A    
C47   C70   A    
C13   C33   A    
C37   C38   A    
C69   C83   A    
C7    C51   A    
C10   C30   A    
C10   C96   A    
C22   O10   A    
C84   H3    S    
C56   H14   S    
C61   I1    S    
O16   Zn2   S    
C6    C50   A    
C4    C11   A    
C26   C58   A    
C42   C61   A    
C85   H2    S    
C67   C100  A    
C25   C35   S    
O4    Zn1   S    
C53   H10   S    
C26   C36   A    
O1    Zn1   S    
C64   I4    S    
C26   C30   A    
C51   H8    S    
C47   H5    S    
C86   C90   A    
C8    C28   A    
C52   C92   A    
C53   C76   A    
O12   Zn2   S    
C18   O19   A    
C88   H1    S    
C57   H15   S    
C71   C84   A    
C24   O2    A    
C48   C56   A    
C19   O11   A    
C56   C73   A    
C28   C81   A    
C49   C74   A    
O22   Zn6   S    
C67   C80   A    
C5    C97   A    
C47   C75   A    
C2    C53   A    
C16   C45   S    
O10   Zn6   S    
C55   C67   A    
C83   H4    S    
C14   O1    A    
C78   C91   A    
C9    C100  A    
C23   C38   S    
C83   C91   A    
O21   Zn6   S    
C45   C64   A    
C43   C92   A    
C66   I6    S    
O5    Zn1   S    
C46   C63   A    
C11   C97   A    
C68   C82   A    
O19   Zn4   S    
C17   O14   A    
C17   C44   S    
C21   O9    A    
C5    C10   A    
C5    C71   A    
C18   C43   S    
O8    Zn4   S    
C62   I2    S    
C55   H13   S    
C32   C48   A    
C21   C40   S    
C72   C102  A    
C60   C69   A    
C43   C66   A    
C82   C88   A    
C22   C39   S    
C6    C31   A    
C29   C70   A    
C49   C81   A    
C84   C93   A    
C50   H7    S    
C57   C72   A    
C25   O3    A    
C73   C86   A    
C51   C78   A    
C37   C60   A    
O7    Zn3   S    
C3    C99   A    
C75   C88   A    
C54   C68   A    
C7    C30   A    
C91   H19   S    
O3    Zn2   S    
C20   O13   A    
C41   C70   A    
C13   C102  A    
O17   Zn1   S    
C95   C101  A    
C39   C48   A    
C19   O20   A    
