data_mof_unit_6973.cif
_audit_creation_date              2012-10-26T20:02:54-0400
_audit_creation_method            fapswitch 2.2
_symmetry_space_group_name_H-M    P1
_symmetry_Int_Tables_number       1
_space_group_crystal_system       triclinic
_cell_length_a                    10.715528
_cell_length_b                    12.32629
_cell_length_c                    13.135682
_cell_angle_alpha                 116.604327
_cell_angle_beta                  77.35235
_cell_angle_gamma                 101.263641
_cell_volume                      1504.21608876

loop_
_atom_site_label
_atom_site_type_symbol
_atom_type_description
_atom_site_fract_x
_atom_site_fract_y
_atom_site_fract_z
_atom_type_partial_charge
C1    C     C_R   0.512781 0.855031 0.286264 0.550583
C2    C     C_R   0.501105 0.566462 0.009353 0.035491
C3    C     C_R   0.460345 0.652800 0.122496 0.019244
C4    C     C_R   0.739769 0.999568 0.500032 0.557803
C5    C     C_R   0.451707 0.441516 0.976414 0.024786
C6    C     C_R   0.353021 0.407683 0.051649 0.035866
C7    C     C_R   0.304310 0.496302 0.157280 -0.134475
C8    C     C_R   0.356288 0.617149 0.191924 -0.115625
C9    C     C_R   0.498074 0.348991 0.871282 -0.149654
C10   C     C_R   0.342467 0.195273 0.911450 -0.011292
C11   C     C_R   0.523417 0.773375 0.162678 0.000857
C12   C     C_3   0.122038 0.999293 0.499573 0.027277
C13   C     C_R   0.708310 0.348283 0.330294 -0.150731
C14   C     C_R   0.321772 0.756755 0.642070 0.042841
C15   C     C_R   0.283295 0.659849 0.673258 -0.161165
C16   C     C_R   0.476432 0.145042 0.713892 0.541843
C17   C     C_R   0.351032 0.557950 0.620421 -0.136065
C18   C     C_R   0.458304 0.551345 0.534518 -0.004463
C19   C     C_R   0.494579 0.653547 0.505846 0.177321
C20   C     C_R   0.530259 0.447372 0.475607 -0.012247
C21   C     C_R   0.636205 0.448014 0.389577 0.033547
C22   C     C_R   0.669675 0.547965 0.362795 -0.174663
C23   C     C_3   0.074470 0.122105 0.591437 -0.247035
C24   C     C_R   0.600537 0.648141 0.419422 -0.100286
C25   C     C_R   0.502142 0.341804 0.497609 0.039836
C26   C     C_R   0.675742 0.247748 0.356092 0.038262
C27   C     C_R   0.260064 0.000249 0.500271 0.535770
C28   C     C_3   0.957608 0.983009 0.378996 -0.037997
C29   C     C_3   0.101456 0.979775 0.379120 -0.227581
C30   C     C_3   0.930117 0.121112 0.591803 -0.261142
C31   C     C_3   0.897438 0.894772 0.529192 -0.224231
C32   C     C_3   0.877908 0.998044 0.498807 0.023173
C33   C     C_3   0.274306 0.067853 0.877619 -0.387982
C34   C     C_3   0.040485 0.893821 0.527004 -0.226032
C35   C     C_2   0.906684 0.873710 0.278137 0.550047
C36   C     C_R   0.301179 0.285711 0.019656 -0.108988
C37   C     C_R   0.441754 0.227965 0.835834 0.007531
C38   C     C_R   0.608821 0.812258 0.085021 -0.093378
C39   C     C_R   0.638429 0.731116 0.970753 -0.129905
C40   C     C_R   0.587798 0.609064 0.933321 -0.122485
Cu1   Cu    Cu3+1 0.529690 0.098270 0.475420 0.930461
Cu2   Cu    Cu3+1 0.470310 0.901730 0.524580 0.907402
H1    H     H_    0.951245 0.065961 0.367398 0.107650
H2    H     H_    0.704224 0.762186 0.911421 0.118105
H3    H     H_    0.311165 0.682539 0.272538 0.145070
H4    H     H_    0.731084 0.170516 0.310705 0.134905
H5    H     H_    0.750451 0.548777 0.296847 0.131677
H6    H     H_    0.789431 0.348145 0.264381 0.093283
H7    H     H_    0.423496 0.333416 0.561521 0.116543
H8    H     H_    0.267127 0.834107 0.682047 0.116164
H9    H     H_    0.316780 0.485564 0.647808 0.096825
H10   H     H_    0.200207 0.663493 0.738253 0.105335
H11   H     H_    0.633685 0.719226 0.391785 0.198245
H12   H     H_    0.055282 0.903530 0.612153 0.115503
H13   H     H_    0.135997 0.891658 0.313197 0.142292
H14   H     H_    0.160515 0.052793 0.356079 0.111237
H15   H     H_    0.916928 0.198892 0.575272 0.128326
H16   H     H_    0.130241 0.199242 0.573104 0.126518
H17   H     H_    0.844999 0.909608 0.616745 0.120770
H18   H     H_    0.857351 0.803962 0.468900 0.174546
H19   H     H_    0.070987 0.804110 0.460874 0.148629
H20   H     H_    0.229288 0.040915 0.799980 0.129327
H21   H     H_    0.343619 0.003462 0.860762 0.154327
H22   H     H_    0.196523 0.061037 0.946657 0.115393
H23   H     H_    0.875670 0.135100 0.678503 0.118506
H24   H     H_    0.877403 0.690612 0.191263 0.332834
H25   H     H_    0.090000 0.137526 0.678204 0.114452
H26   H     H_    0.225586 0.472117 0.213698 0.107237
H27   H     H_    0.225010 0.261710 0.078052 0.104987
H28   H     H_    0.577845 0.368812 0.813827 0.116629
H29   H     H_    0.655908 0.904896 0.113407 0.156011
H30   H     H_    0.615575 0.551356 0.843640 0.104406
N1    N     N_R   0.574690 0.246280 0.438200 -0.235290
N2    N     N_R   0.426100 0.754320 0.561190 -0.235391
O1    O     O_R   0.537340 0.972510 0.318130 -0.491754
O2    O     O_R   0.915161 0.755007 0.261544 -0.742817
O3    O     O_R   0.487200 0.806530 0.359650 -0.523443
O4    O     O_R   0.707380 0.082980 0.479220 -0.501232
O5    O     O_R   0.657240 0.917000 0.520740 -0.523309
O6    O     O_R   0.512800 0.193470 0.640350 -0.510350
O7    O     O_R   0.462660 0.027490 0.681870 -0.502015
O8    O     O_R   0.342760 0.083000 0.479260 -0.509593
O9    O     O_R   0.292620 0.917020 0.520780 -0.523903
O10   O     O_2   0.859677 0.889897 0.209894 -0.549149

loop_
_geom_bond_atom_site_label_1
_geom_bond_atom_site_label_2
_ccdc_geom_bond_type
C23   H16   S    
C12   C29   S    
C1    O3    A    
Cu1   Cu2   S    
C1    C11   S    
C17   H9    S    
Cu1   O6    S    
C7    C8    A    
C4    O4    A    
C12   C23   S    
C10   C37   A    
C14   N2    A    
C28   C29   S    
C5    C6    A    
C20   C25   A    
C31   H17   S    
C30   H15   S    
C26   N1    A    
C18   C19   A    
C23   H25   S    
C8    H3    S    
C7    H26   S    
C28   C35   S    
C33   H20   S    
C25   N1    A    
C16   C37   S    
C22   H5    S    
Cu2   O5    S    
C21   C22   A    
Cu2   O7    S    
C27   O8    A    
C38   C39   A    
C35   O2    S    
Cu2   N2    S    
C12   C27   S    
C1    O1    A    
C23   C30   S    
C28   C32   S    
C9    H28   S    
C4    O5    A    
C3    C8    A    
C39   C40   A    
C29   H13   S    
C24   H11   S    
C34   H19   S    
C16   O6    A    
C31   H18   S    
C11   C38   A    
C5    C9    A    
Cu1   O1    S    
C31   C32   S    
C33   H21   S    
H24   O2    S    
C9    C37   A    
C17   C18   A    
C31   C34   S    
C13   C21   A    
C4    C32   S    
C15   H10   S    
C6    C7    A    
C34   H12   S    
C22   C24   A    
C13   C26   A    
C2    C5    A    
C12   C34   S    
Cu1   O4    S    
C36   H27   S    
C15   C17   A    
C38   H29   S    
C40   H30   S    
C19   N2    A    
Cu2   O9    S    
C13   H6    S    
C35   O10   D    
C39   H2    S    
C29   H14   S    
C28   H1    S    
C27   O9    A    
C19   C24   A    
C30   C32   S    
C14   H8    S    
C33   H22   S    
Cu1   O8    S    
C16   O7    A    
C6    C36   A    
C2    C3    A    
C10   C33   S    
C18   C20   A    
C25   H7    S    
C30   H23   S    
C3    C11   A    
C26   H4    S    
Cu1   N1    S    
C2    C40   A    
C20   C21   A    
Cu2   O3    S    
C14   C15   A    
C10   C36   A    
