data_mof_unit_46107.cif
_audit_creation_date              2012-12-11T15:52:32-0500
_audit_creation_method            fapswitch 2.2
_symmetry_space_group_name_H-M    P1
_symmetry_Int_Tables_number       1
_space_group_crystal_system       triclinic
_cell_length_a                    6.927354
_cell_length_b                    14.583117
_cell_length_c                    16.045191
_cell_angle_alpha                 90.152281
_cell_angle_beta                  90.022645
_cell_angle_gamma                 89.659106
_cell_volume                      1620.88939479

loop_
_atom_site_label
_atom_site_type_symbol
_atom_type_description
_atom_site_fract_x
_atom_site_fract_y
_atom_site_fract_z
_atom_type_partial_charge
O1    O     O_R   0.494400 0.415640 0.412830 -0.538969
O2    O     O_R   0.823920 0.405510 0.586560 -0.543667
O3    O     O_R   0.994250 0.584360 0.587170 -0.528067
C1    C     C_R   0.655834 0.381747 0.614366 0.692908
O4    O     O_R   0.824110 0.404610 0.413450 -0.546324
O5    O     O_R   0.994440 0.583460 0.412820 -0.544265
C2    C     C_R   0.655394 0.382504 0.384183 0.697428
O6    O     O_R   0.494210 0.416540 0.587180 -0.540547
O7    O     O_3   0.660810 0.558680 0.500000 -0.368071
V1    V     V_3+5 0.935650 0.489110 0.500000 1.389952
O8    O     O_R   0.324150 0.594490 0.413440 -0.540713
C3    C     C_R   0.154145 0.615373 0.383243 0.708931
O9    O     O_R   0.323970 0.595390 0.586550 -0.541476
C4    C     C_R   0.153876 0.615736 0.616967 0.750878
V2    V     V_3+5 0.435660 0.510890 0.500000 1.404755
O10   O     O_3   0.160630 0.441320 0.500000 -0.372916
C5    C     C_3   0.002921 0.650941 0.760513 0.009857
H1    H     H_    0.082299 0.594484 0.792859 0.127083
C6    C     C_3   0.967546 0.730189 0.824843 0.038122
H2    H     H_    0.821461 0.758991 0.814105 0.114463
C7    C     C_3   0.063612 0.783383 0.652878 0.347934
C8    C     C_3   0.338691 0.697669 0.730050 -0.464790
C9    C     C_3   0.136584 0.686144 0.687422 -0.021034
H3    H     H_    0.444450 0.725893 0.685898 0.156688
H4    H     H_    0.396662 0.628738 0.746528 0.168595
C10   C     C_3   0.123028 0.808264 0.812837 -0.034672
C11   C     C_3   0.087797 0.859453 0.725314 0.302796
C12   C     C_3   0.327932 0.760011 0.808971 -0.005004
H5    H     H_    0.441918 0.812887 0.803842 0.135671
C13   C     C_R   0.964049 0.755576 0.197980 -0.124551
H6    H     H_    0.833943 0.760926 0.160713 0.138201
C14   C     C_R   0.970757 0.690812 0.262252 0.198517
C15   C     C_R   0.139768 0.682074 0.312667 -0.099332
C16   C     C_R   0.298376 0.738432 0.294201 -0.162236
H7    H     H_    0.429139 0.734269 0.330966 0.135896
C17   C     C_R   0.290201 0.801988 0.228973 -0.145213
H8    H     H_    0.415010 0.844429 0.217231 0.129330
C18   C     C_R   0.122176 0.811894 0.180642 -0.110383
C19   C     C_R   0.803621 0.249282 0.698101 0.150229
C20   C     C_R   0.788742 0.186941 0.764356 -0.132564
H9    H     H_    0.908687 0.141248 0.777371 0.117204
C21   C     C_R   0.621160 0.181662 0.813101 -0.080255
C22   C     C_R   0.466637 0.241020 0.795430 -0.162715
H10   H     H_    0.335581 0.238852 0.832150 0.127812
C23   C     C_R   0.481180 0.305606 0.731455 -0.193098
H11   H     H_    0.361366 0.352277 0.721556 0.119764
C24   C     C_R   0.648330 0.311262 0.681757 -0.063262
C25   C     C_R   0.803461 0.260057 0.292348 -0.169949
H12   H     H_    0.938045 0.265381 0.326350 0.132722
C26   C     C_R   0.790404 0.196455 0.226950 -0.201150
H13   H     H_    0.915472 0.154207 0.213109 0.158125
C27   C     C_R   0.618723 0.186459 0.180651 -0.068351
C28   C     C_R   0.458587 0.243413 0.201335 0.211773
C29   C     C_R   0.472668 0.305786 0.268350 -0.179609
H14   H     H_    0.349394 0.348728 0.283535 0.117041
C30   C     C_R   0.644224 0.314943 0.314383 -0.076835
O11   O     O_R   0.771300 0.080930 0.910090 -0.544090
O12   O     O_R   0.441270 0.092800 0.083770 -0.517669
O13   O     O_R   0.271080 0.913920 0.084380 -0.538678
C31   C     C_R   0.609715 0.116327 0.112216 0.710451
O14   O     O_R   0.441580 0.091910 0.910670 -0.545787
O15   O     O_R   0.271390 0.913020 0.910040 -0.547474
C32   C     C_R   0.610198 0.114018 0.881871 0.685945
O16   O     O_R   0.770990 0.081830 0.084440 -0.540508
O17   O     O_3   0.604750 0.938760 0.997250 -0.374217
V3    V     V_3+5 0.329850 0.008280 0.997210 1.417191
O18   O     O_R   0.941680 0.901940 0.910610 -0.553643
C33   C     C_R   0.111576 0.878046 0.883471 0.695983
O19   O     O_R   0.941370 0.902830 0.083720 -0.546874
C34   C     C_R   0.110854 0.880610 0.112494 0.706056
V4    V     V_3+5 0.829860 0.986420 0.997150 1.387517
O20   O     O_3   0.104830 0.056030 0.997180 -0.360459
N1    N     N_3   0.818783 0.611860 0.732301 -0.672074
H15   H     H_    0.724758 0.607647 0.782962 0.211651
H16   H     H_    0.842137 0.543261 0.715850 0.227336
N2    N     N_3   0.172411 0.807477 0.576760 -0.680150
H17   H     H_    0.142151 0.875115 0.559189 0.269480
H18   H     H_    0.321333 0.800186 0.583129 0.216395
N3    N     N_3   0.251473 0.920766 0.705570 -0.663249
H19   H     H_    0.279038 0.965630 0.754998 0.219987
H20   H     H_    0.379518 0.886024 0.692132 0.208889
N4    N     N_3   0.804569 0.633866 0.272528 -0.680489
H21   H     H_    0.740048 0.648472 0.329903 0.245564
H22   H     H_    0.847122 0.565011 0.269985 0.228443
C35   C     C_3   0.984003 0.245375 0.645407 -0.735774
H23   H     H_    0.079960 0.187293 0.663151 0.202875
H24   H     H_    0.944998 0.235957 0.578809 0.207281
H25   H     H_    0.068092 0.309182 0.653533 0.209899
N5    N     N_3   0.283322 0.239594 0.153459 -0.653858
H26   H     H_    0.313103 0.267020 0.094741 0.217819
H27   H     H_    0.176802 0.281591 0.179896 0.215740
N6    N     N_3   0.968790 0.693313 0.910199 -0.688939
H28   H     H_    0.901195 0.739881 0.950415 0.234716
H29   H     H_    0.883682 0.634400 0.912420 0.220886
C36   C     C_3   0.850198 0.778487 0.622715 -0.638715
H30   H     H_    0.829441 0.726578 0.573211 0.223604
H31   H     H_    0.749520 0.764881 0.674065 0.187921
H32   H     H_    0.805309 0.844720 0.594359 0.202676
N7    N     N_3   0.915059 0.919821 0.728756 -0.652042
H33   H     H_    0.797885 0.889513 0.758249 0.197265
H34   H     H_    0.944872 0.979691 0.762148 0.231284
C37   C     C_3   0.385719 0.706271 0.888257 -0.691384
H35   H     H_    0.543153 0.692429 0.887607 0.170640
H36   H     H_    0.353618 0.745908 0.945724 0.221918
H37   H     H_    0.313011 0.638934 0.892002 0.228005

loop_
_geom_bond_atom_site_label_1
_geom_bond_atom_site_label_2
_ccdc_geom_bond_type
C18   C34   S    
N1    H15   S    
C36   H30   S    
C1    O6    A    
C36   H32   S    
C28   C29   A    
C7    N2    S    
C11   N7    S    
C10   C11   S    
C5    C9    S    
C19   C24   A    
C12   H5    S    
N2    H18   S    
C11   N3    S    
O13   V3    S    
O5    C3    A    
C13   H6    S    
O16   V4    S    
O12   C31   A    
V2    O10   S    
C13   C18   A    
C37   H37   S    
O14   C32   A    
C16   H7    S    
C23   C24   A    
O19   V4    S    
C6    C10   S    
C6    N6    S    
C27   C31   S    
O8    V2    S    
O14   V3    S    
O12   V3    S    
V3    O20   S    
C6    H2    S    
C8    H4    S    
C26   C27   A    
O11   C32   A    
O1    V2    S    
N5    H27   S    
O7    V1    S    
C16   C17   A    
C25   C26   A    
C7    C11   S    
C8    C12   S    
O9    C4    A    
C5    N1    S    
N1    H16   S    
C37   H35   S    
C2    C30   S    
C5    H1    S    
C35   H24   S    
C29   C30   A    
O15   V3    S    
O18   C33   A    
N2    H17   S    
C19   C20   A    
O4    C2    A    
C7    C36   S    
C26   H13   S    
C23   H11   S    
C4    C9    S    
O2    C1    A    
C22   H10   S    
N7    H33   S    
N6    H29   S    
C15   C16   A    
O11   V4    S    
C37   H36   S    
C22   C23   A    
C35   H23   S    
O3    C4    A    
C25   H12   S    
N7    H34   S    
O17   V3    S    
O6    V2    S    
N4    H22   S    
O9    V2    S    
C28   N5    S    
C8    H3    S    
C21   C22   A    
C19   C35   S    
O2    V1    S    
C27   C28   A    
N3    H20   S    
C35   H25   S    
C25   C30   A    
C29   H14   S    
C20   H9    S    
O1    C2    A    
C20   C21   A    
O5    V1    S    
O8    C3    A    
C36   H31   S    
C14   N4    S    
C10   C12   S    
O15   C33   A    
C31   O16   A    
C10   C33   S    
C14   C15   A    
C7    C9    S    
O7    V2    S    
O4    V1    S    
O3    V1    S    
O17   V4    S    
C13   C14   A    
C3    C15   S    
C17   C18   A    
N6    H28   S    
C5    C6    S    
O18   V4    S    
O19   C34   A    
O13   C34   A    
N3    H19   S    
C12   C37   S    
V4    O20   S    
C17   H8    S    
N4    H21   S    
C8    C9    S    
V1    O10   S    
N5    H26   S    
C21   C32   S    
C1    C24   S    
