data_mof_unit_19802.cif
_audit_creation_date              2012-12-10T18:59:58-0500
_audit_creation_method            fapswitch 2.2
_symmetry_space_group_name_H-M    P1
_symmetry_Int_Tables_number       1
_space_group_crystal_system       triclinic
_cell_length_a                    10.692938
_cell_length_b                    10.6791
_cell_length_c                    9.865225
_cell_angle_alpha                 90.529678
_cell_angle_beta                  90.37876
_cell_angle_gamma                 91.004197
_cell_volume                      1126.27246752

loop_
_atom_site_label
_atom_site_type_symbol
_atom_type_description
_atom_site_fract_x
_atom_site_fract_y
_atom_site_fract_z
_atom_type_partial_charge
C1    C     C_R   0.499366 0.260008 0.499536 0.869531
C2    C     C_R   0.457926 0.064374 0.614560 -0.208903
C3    C     C_R   0.501146 0.872455 0.500811 -0.008576
C4    C     C_R   0.498845 0.127544 0.499186 -0.008572
C5    C     C_R   0.577110 0.579264 0.074474 -0.156580
C6    C     C_R   0.422895 0.420732 0.925526 -0.156618
C7    C     C_R   0.577564 0.579767 0.931284 0.228908
C8    C     C_R   0.422441 0.420227 0.068715 0.228882
C9    C     C_R   0.260255 0.503375 0.499554 0.880853
C10   C     C_R   0.739745 0.496618 0.500446 0.880833
C11   C     C_R   0.257360 0.801586 0.202153 -0.098783
C12   C     C_R   0.500631 0.739992 0.500463 0.869564
C13   C     C_R   0.742571 0.198517 0.797971 -0.098750
C14   C     C_R   0.196702 0.739339 0.307856 -0.114488
C15   C     C_R   0.803225 0.260712 0.692227 -0.114345
C16   C     C_R   0.122482 0.632003 0.280633 0.134350
C17   C     C_R   0.877526 0.368002 0.719405 0.134323
C18   C     C_R   0.108016 0.589479 0.146127 -0.122096
C19   C     C_R   0.892083 0.410518 0.853910 -0.122139
C20   C     C_R   0.169459 0.651556 0.040878 -0.130863
C21   C     C_R   0.830648 0.348489 0.959200 -0.130842
C22   C     C_R   0.244384 0.757298 0.068930 -0.105157
C23   C     C_R   0.872261 0.493862 0.500861 -0.067833
C24   C     C_R   0.755638 0.242802 0.931193 -0.105200
C25   C     C_R   0.933175 0.554520 0.394484 -0.246248
C26   C     C_R   0.066827 0.445443 0.605510 -0.246255
C27   C     C_R   0.127740 0.506108 0.499136 -0.067827
C28   C     C_R   0.938474 0.437465 0.607320 0.005880
C29   C     C_R   0.061529 0.562505 0.392680 0.005863
C30   C     C_R   0.540653 0.063830 0.384512 -0.179899
C31   C     C_R   0.459336 0.936169 0.615485 -0.179892
C32   C     C_R   0.542063 0.935625 0.385437 -0.208896
H1    H     H_    0.292229 0.805008 0.987421 0.131872
H2    H     H_    0.840571 0.382784 0.062391 0.137713
H3    H     H_    0.880542 0.599527 0.314643 0.159509
H4    H     H_    0.119457 0.400454 0.685359 0.159505
H5    H     H_    0.573401 0.112816 0.295427 0.162182
H6    H     H_    0.426590 0.887183 0.704569 0.162179
H7    H     H_    0.575459 0.886195 0.296696 0.158553
H8    H     H_    0.424528 0.113804 0.703300 0.158539
H9    H     H_    0.638584 0.642370 0.131072 0.155595
H10   H     H_    0.361426 0.357623 0.868927 0.155603
H11   H     H_    0.707794 0.195134 0.012734 0.131875
H12   H     H_    0.314777 0.883919 0.223538 0.149396
H13   H     H_    0.685084 0.116228 0.776618 0.149360
H14   H     H_    0.208372 0.773904 0.410820 0.106500
H15   H     H_    0.791483 0.226150 0.589265 0.106457
H16   H     H_    0.051369 0.506820 0.123360 0.134979
H17   H     H_    0.948795 0.493138 0.876645 0.134971
H18   H     H_    0.159603 0.617257 0.937686 0.137711
I1    I     I_    0.703314 0.709177 0.841479 -0.405470
I2    I     I_    0.296694 0.290806 0.158516 -0.405553
N1    N     N_R   0.499970 0.499970 0.857200 -0.102841
N2    N     N_R   0.500030 0.500030 0.142800 -0.102834
O1    O     O_R   0.499990 0.316750 0.614620 -0.629616
O2    O     O_R   0.500010 0.683250 0.385380 -0.629591
O3    O     O_R   0.499990 0.316780 0.385290 -0.598789
O4    O     O_R   0.500010 0.683220 0.614710 -0.598793
O5    O     O_R   0.316760 0.500000 0.614660 -0.636480
O6    O     O_R   0.683240 0.500000 0.385340 -0.636475
O7    O     O_R   0.316760 0.500020 0.385330 -0.577900
O8    O     O_R   0.683240 0.499980 0.614670 -0.577904
Zn1   Zn    Zn3+2 0.500000 0.499980 0.653120 0.974754
Zn2   Zn    Zn3+2 0.500000 0.500020 0.346880 0.974768

loop_
_geom_bond_atom_site_label_1
_geom_bond_atom_site_label_2
_ccdc_geom_bond_type
O7    Zn2   S    
C2    C4    A    
O2    Zn2   S    
O8    Zn1   S    
C21   H2    S    
C1    O3    A    
C10   C23   S    
C27   C29   A    
C5    C7    A    
C8    I2    S    
C11   C22   A    
C10   O6    A    
C31   H6    S    
C15   H15   S    
O6    Zn2   S    
C1    C4    S    
C12   O4    A    
C23   C25   A    
C1    O1    A    
C7    I1    S    
C11   H12   S    
C14   H14   S    
C12   O2    A    
C23   C28   A    
C3    C31   A    
N1    Zn1   S    
C9    C27   S    
C26   C27   A    
C10   O8    A    
O1    Zn1   S    
N2    Zn2   S    
C25   H3    S    
C9    O7    A    
C6    C8    A    
C26   H4    S    
C17   C19   A    
C20   C22   A    
C18   C20   A    
C13   C15   A    
C25   C29   A    
C3    C32   A    
C13   C24   A    
C11   C14   A    
C14   C16   A    
O5    Zn1   S    
C21   C24   A    
C7    N1    A    
C6    N1    A    
C5    H9    S    
C30   C32   A    
C2    H8    S    
C5    N2    A    
C13   H13   S    
O3    Zn2   S    
C16   C18   A    
C6    H10   S    
C32   H7    S    
C8    N2    A    
O4    Zn1   S    
C15   C17   A    
C24   H11   S    
C19   H17   S    
C20   H18   S    
C3    C12   S    
C19   C21   A    
C16   C29   S    
C17   C28   S    
C26   C28   A    
C4    C30   A    
C30   H5    S    
C18   H16   S    
C2    C31   A    
C9    O5    A    
C22   H1    S    
