data_mof_unit_45811.cif
_audit_creation_date              2012-12-10T17:35:00-0500
_audit_creation_method            fapswitch 2.2
_symmetry_space_group_name_H-M    P1
_symmetry_Int_Tables_number       1
_space_group_crystal_system       triclinic
_cell_length_a                    12.451397
_cell_length_b                    13.47388
_cell_length_c                    13.842209
_cell_angle_alpha                 107.404173
_cell_angle_beta                  73.571526
_cell_angle_gamma                 118.387215
_cell_volume                      1921.96797635

loop_
_atom_site_label
_atom_site_type_symbol
_atom_type_description
_atom_site_fract_x
_atom_site_fract_y
_atom_site_fract_z
_atom_type_partial_charge
C1    C     C_R   0.144754 0.712709 0.509923 0.969107
C2    C     C_1   0.969036 0.503701 0.792337 -0.150980
C3    C     C_R   0.664269 0.082957 0.668249 0.621283
C4    C     C_R   0.770500 0.176492 0.521911 -0.282924
C5    C     C_R   0.212385 0.865042 0.415784 -0.411141
C6    C     C_R   0.304290 0.962421 0.379729 0.585381
C7    C     C_R   0.416690 0.021249 0.415986 0.681993
C8    C     C_R   0.438028 0.984894 0.492309 -0.169287
C9    C     C_R   0.336023 0.896256 0.539332 -0.216761
C10   C     C_R   0.553146 0.038219 0.528989 -0.144965
C11   C     C_R   0.555206 0.020910 0.624921 -0.328905
C12   C     C_R   0.982833 0.503595 0.686339 0.902379
C13   C     C_R   0.447684 0.943528 0.676885 0.615220
C14   C     C_R   0.340702 0.880337 0.633596 0.605719
C15   C     C_R   0.666214 0.108654 0.474614 0.656118
C16   C     C_R   0.771647 0.160468 0.617276 0.023486
C17   C     C_R   0.228311 0.829910 0.493957 -0.121520
C18   C     C_R   0.633032 0.653709 0.683726 0.045998
C19   C     C_R   0.250161 0.351361 0.360065 0.330551
C20   C     C_R   0.339680 0.310125 0.337049 -0.348315
C21   C     C_R   0.434713 0.360694 0.393549 0.748322
C22   C     C_R   0.444128 0.456104 0.474552 -0.186178
C23   C     C_R   0.855011 0.287693 0.492407 0.919360
C24   C     C_R   0.344446 0.489143 0.502539 -0.013202
C25   C     C_R   0.545548 0.517170 0.531458 -0.194351
C26   C     C_R   0.532117 0.590011 0.628384 -0.198919
C27   C     C_R   0.420159 0.600730 0.665873 0.199288
C28   C     C_R   0.342312 0.569629 0.595603 0.592827
C29   C     C_R   0.661479 0.511469 0.495883 0.777188
C30   C     C_R   0.738384 0.634524 0.647753 0.650977
C31   C     C_R   0.015082 0.493997 0.313511 0.802304
C32   C     C_1   0.019347 0.483800 0.207005 -0.101356
C33   C     C_2   0.016462 0.463092 0.012129 0.432221
C34   C     C_2   0.954884 0.508146 0.987205 0.526013
C35   C     C_1   0.959876 0.504736 0.881420 0.007916
C36   C     C_1   0.019117 0.474060 0.117894 0.069138
Cu1   Cu    Cu3+1 0.899780 0.525060 0.522890 1.116540
Cu2   Cu    Cu3+1 0.100220 0.474940 0.477110 1.033373
H1    H     H_    0.333782 0.236027 0.276226 0.232282
H2    H     H_    0.129793 0.815076 0.380710 0.203380
N1    N     N_R   0.748810 0.563010 0.557590 -0.323644
N2    N     N_R   0.250540 0.437620 0.443020 -0.191159
O1    O     O_R   0.025040 0.682470 0.528790 -0.547908
O2    O     O_R   0.194310 0.640150 0.490130 -0.513370
O3    O     O_R   0.903380 0.524130 0.659910 -0.529539
O4    O     O_R   0.072660 0.481800 0.621240 -0.534216
O5    O     O_R   0.805690 0.359850 0.509870 -0.549773
O6    O     O_R   0.974960 0.317530 0.471210 -0.576257
O7    O     O_R   0.927340 0.518200 0.378760 -0.504470
O8    O     O_R   0.096620 0.475870 0.340090 -0.574435
F1    F     F_    0.892106 0.563043 0.061246 -0.623016
F2    F     F_    0.237024 0.812781 0.690077 -0.612654
F3    F     F_    0.834154 0.691865 0.700884 -0.620325
N3    N     N_2   0.388200 0.643039 0.773498 -0.363048
H3    H     H_    0.422143 0.620611 0.819456 0.279659
C37   C     C_3   0.261261 0.622986 0.816779 -0.433759
H4    H     H_    0.249543 0.642462 0.901987 0.205729
H5    H     H_    0.199331 0.531324 0.791694 0.217671
H6    H     H_    0.236197 0.681303 0.795501 0.314257
N4    N     N_2   0.633664 0.742387 0.771204 -0.422455
H7    H     H_    0.675676 0.746639 0.827699 0.299312
C38   C     C_3   0.676355 0.853405 0.746679 -0.401117
H8    H     H_    0.775421 0.885173 0.710073 0.200187
H9    H     H_    0.666595 0.915217 0.818565 0.291677
H10   H     H_    0.620228 0.847740 0.693869 0.245448
F4    F     F_    0.694236 0.465382 0.397564 -0.554263
N5    N     N_2   0.152131 0.295700 0.302334 -0.370011
H11   H     H_    0.097625 0.211321 0.310273 0.259111
C39   C     C_3   0.189471 0.306644 0.195590 -0.562778
H12   H     H_    0.105777 0.272670 0.160411 0.242210
H13   H     H_    0.244058 0.256797 0.152453 0.224707
H14   H     H_    0.245679 0.398428 0.189073 0.238685
F5    F     F_    0.507385 0.305970 0.374537 -0.514768
F6    F     F_    0.275658 0.629054 0.617325 -0.629198
F7    F     F_    0.078882 0.407725 0.938286 -0.690222
N6    N     N_2   0.878352 0.228495 0.665483 -0.423973
H15   H     H_    0.859062 0.249238 0.744473 0.303145
C40   C     C_3   0.971763 0.184977 0.631218 -0.547060
H16   H     H_    0.936174 0.101433 0.654930 0.228673
H17   H     H_    0.055254 0.247492 0.666238 0.231826
H18   H     H_    0.999134 0.173058 0.546385 0.231701
F8    F     F_    0.445055 0.927830 0.770148 -0.564553
F9    F     F_    0.665158 0.074720 0.763337 -0.624515
F10   F     F_    0.680965 0.107884 0.373505 -0.579604
F11   F     F_    0.497071 0.120302 0.383652 -0.507585
F12   F     F_    0.285592 0.998640 0.307002 -0.603884

loop_
_geom_bond_atom_site_label_1
_geom_bond_atom_site_label_2
_ccdc_geom_bond_type
C2    C35   T    
Cu1   O1    S    
C24   N2    A    
C19   C20   A    
C18   C26   A    
C2    C12   S    
C27   N3    S    
C7    C8    A    
C26   C27   A    
C38   H8    S    
C32   C36   T    
N6    C40   S    
Cu2   N2    S    
C10   C15   A    
C5    C6    A    
C40   H17   S    
C5    C17   A    
C21   F5    S    
C33   C36   S    
C37   H4    S    
N4    C38   S    
C34   C35   S    
C39   H13   S    
C38   H9    S    
C33   F7    S    
C14   F2    S    
C8    C9    A    
C22   C25   A    
C30   N1    A    
C19   N5    S    
C18   C30   A    
Cu1   O5    S    
Cu2   O6    S    
C19   N2    A    
C28   F6    S    
C13   C14   A    
C31   O7    A    
C1    O1    A    
C25   C29   A    
C30   F3    S    
N3    C37   S    
C23   O5    A    
N5    H11   S    
N6    H15   S    
C12   O4    A    
C20   H1    S    
C40   H16   S    
C25   C26   A    
C13   F8    S    
N4    H7    S    
N5    C39   S    
C4    C16   A    
C39   H14   S    
C9    C14   A    
Cu2   O2    S    
Cu1   Cu2   S    
Cu1   O7    S    
C1    O2    A    
C31   C32   S    
C33   C34   D    
C34   F1    S    
C6    C7    A    
C9    C17   A    
C3    F9    S    
C22   C24   A    
C31   O8    A    
Cu1   O3    S    
C18   N4    S    
C4    C23   S    
N3    H3    S    
C23   O6    A    
C38   H10   S    
C29   N1    A    
C16   N6    S    
C24   C28   A    
C12   O3    A    
C15   F10   S    
Cu2   O8    S    
C1    C17   S    
C6    F12   S    
C37   H6    S    
C4    C15   A    
C11   C13   A    
C40   H18   S    
C7    F11   S    
C37   H5    S    
Cu1   N1    S    
C39   H12   S    
Cu2   O4    S    
C3    C11   A    
C10   C11   A    
C29   F4    S    
C20   C21   A    
C8    C10   A    
C5    H2    S    
C27   C28   A    
C21   C22   A    
C3    C16   A    
