data_mof_unit_44252.cif
_audit_creation_date              2012-12-11T20:41:34-0500
_audit_creation_method            fapswitch 2.2
_symmetry_space_group_name_H-M    P1
_symmetry_Int_Tables_number       1
_space_group_crystal_system       triclinic
_cell_length_a                    8.251327
_cell_length_b                    18.854431
_cell_length_c                    26.957786
_cell_angle_alpha                 96.919591
_cell_angle_beta                  92.655639
_cell_angle_gamma                 86.27221
_cell_volume                      4151.43712961

loop_
_atom_site_label
_atom_site_type_symbol
_atom_type_description
_atom_site_fract_x
_atom_site_fract_y
_atom_site_fract_z
_atom_type_partial_charge
Ba1   Ba    Ba6+2 0.852670 0.466460 0.522850 1.659830
Ba2   Ba    Ba6+2 0.337150 0.533490 0.477140 1.646627
C1    C     C_3   0.550400 0.223223 0.662904 -0.054086
C2    C     C_R   0.903235 0.567534 0.176399 0.590193
C3    C     C_2   0.760415 0.546052 0.272640 -0.076080
C4    C     C_3   0.084285 0.289841 0.652550 0.344262
C5    C     C_3   0.745742 0.570943 0.327578 -0.047067
C6    C     C_1   0.981764 0.489567 0.342586 0.031616
C7    C     C_2   0.021625 0.486154 0.294739 -0.107909
C8    C     C_2   0.902486 0.513532 0.255994 0.183077
C9    C     C_R   0.011053 0.502054 0.100200 -0.082426
C10   C     C_R   0.049726 0.442889 0.126811 -0.029182
C11   C     C_R   0.123660 0.380681 0.101428 -0.053134
C12   C     C_3   0.576144 0.292386 0.640620 0.365358
C13   C     C_R   0.934430 0.564043 0.125067 -0.058878
C14   C     C_2   0.851040 0.526567 0.360515 -0.295837
C15   C     C_2   0.348642 0.480588 0.641331 -0.275220
C16   C     C_3   0.045623 0.255258 0.698391 -0.314489
C17   C     C_R   0.148279 0.431619 0.970801 0.022506
C18   C     C_R   0.068706 0.559926 0.973789 0.029860
C19   C     C_R   0.128504 0.494940 0.946927 0.054093
C20   C     C_R   0.199215 0.367330 0.941504 -0.095932
C21   C     C_R   0.234719 0.366113 0.891207 -0.054548
C22   C     C_R   0.223447 0.429055 0.867960 -0.030574
C23   C     C_3   0.518381 0.643619 0.630140 0.293614
C24   C     C_R   0.171625 0.493784 0.896005 -0.078956
C25   C     C_R   0.164752 0.557667 0.873436 -0.038703
C26   C     C_R   0.204955 0.555739 0.822838 0.597210
C27   C     C_R   0.263223 0.428754 0.817329 0.591843
C28   C     C_3   0.183156 0.317585 0.416352 0.307096
C29   C     C_2   0.450122 0.474053 0.729244 -0.079989
C30   C     C_3   0.496094 0.483624 0.676679 -0.059244
C31   C     C_1   0.211040 0.512693 0.657331 0.042524
C32   C     C_2   0.170970 0.513680 0.704712 -0.095952
C33   C     C_2   0.295375 0.491290 0.743341 0.217561
C34   C     C_3   0.504252 0.669668 0.685508 -0.363707
C35   C     C_R   0.118337 0.435058 0.022984 0.028860
C36   C     C_R   0.047448 0.499155 0.048564 0.036197
C37   C     C_R   0.009903 0.560044 0.022715 -0.000624
C38   C     C_R   0.157039 0.376717 0.050784 -0.094291
C39   C     C_R   0.882348 0.620488 0.097642 -0.030743
C40   C     C_3   0.196856 0.236692 0.403580 -0.350908
C41   C     C_R   0.080924 0.623591 0.952030 -0.053433
C42   C     C_R   0.123792 0.622511 0.902549 -0.034699
C43   C     C_R   0.911322 0.617613 0.046863 0.132242
C44   C     C_2   0.409350 0.300598 0.520802 -0.256142
C45   C     C_3   0.068934 0.686188 0.342374 0.335728
C46   C     C_3   0.327075 0.253299 0.551951 -0.053563
C47   C     C_2   0.363700 0.174391 0.536796 -0.103420
C48   C     C_2   0.490484 0.151475 0.507557 -0.056220
C49   C     C_2   0.580622 0.205994 0.485637 -0.116808
C50   C     C_1   0.530227 0.274662 0.492079 0.058361
C51   C     C_R   0.647449 0.932726 0.489857 0.470784
C52   C     C_3   0.021200 0.684020 0.582714 0.314900
C53   C     C_R   0.543814 0.073939 0.499615 0.491535
C54   C     C_R   0.614035 0.807491 0.508422 -0.127902
C55   C     C_R   0.664700 0.735042 0.505622 0.039732
C56   C     C_3   0.080864 0.706936 0.289918 0.011567
C57   C     C_R   0.898845 0.756383 0.460265 0.009592
C58   C     C_R   0.849164 0.829472 0.462558 -0.128386
C59   C     C_R   0.703692 0.855620 0.486081 -0.068379
C60   C     C_R   0.802113 0.709453 0.479706 -0.283356
C61   C     C_3   0.041588 0.764605 0.593071 -0.230420
C62   C     C_3   0.667740 0.379047 0.372377 0.300580
C63   C     C_3   0.661166 0.361833 0.315773 -0.346649
C64   C     C_3   0.922508 0.801372 0.631071 -0.362838
C65   C     C_3   0.531025 0.724719 0.363347 0.327220
C66   C     C_3   0.488552 0.796475 0.344079 -0.315360
C67   C     C_R   0.012048 0.446832 0.178056 0.601120
H1    H     H_    0.635056 0.279041 0.604150 0.078142
H2    H     H_    0.584359 0.426672 0.382496 0.076059
H3    H     H_    0.747785 0.315813 0.304386 0.138376
H4    H     H_    0.694129 0.408676 0.298070 0.067197
H5    H     H_    0.536300 0.348282 0.302432 0.137099
H6    H     H_    0.455849 0.320310 0.634573 -0.108512
H7    H     H_    0.430708 0.203074 0.649704 0.050583
H8    H     H_    0.395672 0.630407 0.614607 0.027167
H9    H     H_    0.602368 0.594974 0.625873 0.040006
H10   H     H_    0.425885 0.720000 0.690326 0.143375
H11   H     H_    0.448895 0.629079 0.704818 0.081115
H12   H     H_    0.281803 0.221660 0.372756 0.127470
H13   H     H_    0.626559 0.679736 0.702888 0.127583
H14   H     H_    0.552187 0.232769 0.704395 0.130157
H15   H     H_    0.102628 0.284374 0.732320 0.115248
H16   H     H_    0.139807 0.634369 0.344513 0.055612
H17   H     H_    0.939442 0.679756 0.349068 -0.049724
H18   H     H_    0.056201 0.660222 0.262291 0.086404
H19   H     H_    0.204693 0.723138 0.284082 0.125511
H20   H     H_    0.665272 0.715095 0.362529 -0.029472
H21   H     H_    0.492659 0.728227 0.402593 0.072732
H22   H     H_    0.557848 0.838585 0.366496 0.089174
H23   H     H_    0.243147 0.210952 0.436700 0.070952
H24   H     H_    0.356924 0.811376 0.347215 0.159836
H25   H     H_    0.032688 0.345825 0.656308 0.087090
H26   H     H_    0.520439 0.793642 0.304298 0.161144
H27   H     H_    0.141920 0.465204 0.283772 0.134947
H28   H     H_    0.156333 0.334321 0.120743 0.127640
H29   H     H_    0.544059 0.460353 0.756617 0.095339
H30   H     H_    0.272669 0.315298 0.870582 0.124243
H31   H     H_    0.209653 0.316466 0.956185 0.076292
H32   H     H_    0.216866 0.327390 0.034619 0.075701
H33   H     H_    0.665996 0.563731 0.246748 0.126175
H34   H     H_    0.075509 0.216829 0.391841 0.141358
H35   H     H_    0.809933 0.665899 0.115094 0.165169
H36   H     H_    0.064499 0.675285 0.973694 0.126426
H37   H     H_    0.217745 0.290215 0.652179 -0.068467
H38   H     H_    0.127013 0.673047 0.887389 0.136101
H39   H     H_    0.049478 0.532084 0.716071 0.115000
H40   H     H_    0.836571 0.538183 0.400531 0.083309
H41   H     H_    0.353138 0.449669 0.604699 0.068773
H42   H     H_    0.297155 0.136892 0.554288 0.117409
H43   H     H_    0.685945 0.188865 0.463541 0.110696
H44   H     H_    0.506943 0.826168 0.529057 0.109617
H45   H     H_    0.892911 0.673608 0.573315 -0.004296
H46   H     H_    0.924813 0.865483 0.447096 0.116757
H47   H     H_    0.382692 0.357875 0.528341 0.069769
H48   H     H_    0.912753 0.257306 0.703020 0.172621
H49   H     H_    0.841024 0.653344 0.478299 0.059543
H50   H     H_    0.094228 0.198619 0.694695 0.140568
H51   H     H_    0.305110 0.336734 0.426456 -0.002079
H52   H     H_    0.103404 0.331064 0.448538 0.083393
H53   H     H_    0.795769 0.796880 0.615939 0.139807
H54   H     H_    0.936954 0.777102 0.666684 0.165759
H55   H     H_    0.946189 0.859026 0.638841 0.140271
H56   H     H_    0.095339 0.663383 0.550246 0.064953
H57   H     H_    0.021637 0.789245 0.557784 0.076553
H58   H     H_    0.168133 0.773935 0.607166 0.132349
H59   H     H_    0.793300 0.390791 0.385081 0.007261
I1    I     I_    0.726634 0.139157 0.639053 -0.424267
I2    I     I_    0.909957 0.793737 0.277529 -0.379839
I3    I     I_    0.755783 0.691240 0.009498 -0.429257
N1    N     N_R   0.940359 0.509069 0.202813 -0.424450
N2    N     N_R   0.252587 0.491675 0.795229 -0.426498
N3    N     N_R   0.508231 0.955873 0.513308 -0.233276
N4    N     N_R   0.457755 0.024760 0.518141 -0.227434
N5    N     N_R   0.682633 0.050909 0.475724 -0.226023
N6    N     N_R   0.733358 0.981758 0.470903 -0.228073
O1    O     O_2   0.914730 0.537460 0.618690 -0.459646
O2    O     O_2   0.236309 0.753261 0.470411 -0.483375
O3    O     O_3   0.132996 0.739498 0.377192 -0.587701
O4    O     O_3   0.146720 0.537410 0.558510 -0.491700
O5    O     O_3   0.553920 0.415280 0.473710 -0.491842
O6    O     O_2   0.383540 0.672140 0.526840 -0.463715
O7    O     O_3   0.579458 0.698041 0.606570 -0.643700
O8    O     O_2   0.417883 0.531970 0.323275 -0.497461
O9    O     O_3   0.450253 0.670502 0.333266 -0.592801
O10   O     O_2   0.040817 0.394330 0.200225 -0.591784
O11   O     O_2   0.306718 0.372459 0.792889 -0.605888
O12   O     O_3   0.621424 0.319620 0.393551 -0.631404
O13   O     O_2   0.843675 0.623411 0.197607 -0.584183
O14   O     O_2   0.199246 0.611297 0.803492 -0.588380
O15   O     O_3   0.666360 0.409390 0.586570 -0.480288
O16   O     O_2   0.831468 0.449120 0.671523 -0.492250
O17   O     O_3   0.071456 0.651762 0.625452 -0.634166
O18   O     O_3   0.672987 0.336696 0.673396 -0.600213
O19   O     O_2   0.806150 0.327840 0.473120 -0.454520
O20   O     O_3   0.073640 0.373350 0.561550 -0.491080
O21   O     O_2   0.008581 0.246131 0.511373 -0.468746
O22   O     O_3   0.019576 0.251182 0.608988 -0.554587
O23   O     O_2   0.274960 0.462520 0.381280 -0.458500
O24   O     O_3   0.042980 0.462530 0.441480 -0.497183
O25   O     O_3   0.523340 0.590550 0.413420 -0.476278
O26   O     O_3   0.118684 0.348334 0.374510 -0.622091
O27   O     O_3   0.635780 0.584660 0.526290 -0.472703
O28   O     O_3   0.116060 0.626590 0.438450 -0.492997
P1    P     P_3+3 0.084800 0.558370 0.611580 0.994122
P2    P     P_3+3 0.628800 0.338360 0.458800 0.989879
P3    P     P_3+3 0.106364 0.280141 0.557460 0.976751
P4    P     P_3+3 0.104900 0.441570 0.388420 0.995705
P5    P     P_3+3 0.096844 0.719676 0.437173 0.959393
P6    P     P_3+3 0.665859 0.421067 0.652121 0.975165
P7    P     P_3+3 0.568770 0.674229 0.541816 0.949061
P8    P     P_3+3 0.533417 0.588031 0.348734 0.949302

loop_
_geom_bond_atom_site_label_1
_geom_bond_atom_site_label_2
_ccdc_geom_bond_type
C27   N2    Am   
C10   C67   A    
C49   H43   S    
C12   O18   S    
Ba1   O19   S    
C21   H30   S    
C31   P1    S    
O12   P2    S    
C19   C24   A    
C40   H34   S    
C33   N2    S    
C27   O11   D    
C4    O22   S    
O21   P3    D    
C55   C60   A    
C2    N1    Am   
O25   P8    S    
O22   P3    S    
O4    P1    S    
O2    P5    D    
C51   N6    A    
C45   H16   S    
C17   C19   A    
C22   C24   A    
O6    P7    D    
C32   C33   S    
C35   C38   A    
C50   P2    S    
C36   C37   A    
C62   H2    S    
C52   C61   S    
Ba1   P2    S    
C53   N5    A    
O9    P8    S    
C44   C50   D    
C65   H20   S    
C66   H22   S    
C63   H4    S    
C54   C55   A    
O20   P3    S    
Ba1   O15   S    
Ba1   Ba2   S    
C41   H36   S    
C29   H29   S    
Ba2   O4    S    
C22   C27   A    
C23   H8    S    
C11   C38   A    
Ba1   O5    S    
C17   C35   A    
O5    P2    S    
C9    C13   A    
C25   C42   A    
Ba1   O27   S    
C34   H13   S    
C6    C7    D    
C4    H25   S    
C56   H18   S    
C46   P3    S    
C45   O3    S    
C16   H15   S    
C54   H44   S    
C64   H53   S    
C57   P5    S    
C7    C8    S    
C40   H23   S    
C37   C43   A    
C55   P7    S    
O24   P4    S    
C38   H32   S    
C61   C64   S    
Ba1   O24   S    
C57   C58   A    
C6    C14   D    
C15   H41   S    
Ba2   O6    S    
C12   H1    S    
Ba2   O25   S    
C40   H12   S    
C15   C31   D    
C28   O26   S    
C47   H42   S    
Ba2   O24   S    
C14   H40   S    
C31   C32   D    
C4    H37   S    
C4    C16   S    
C52   H56   S    
C44   C46   S    
C66   H26   S    
C20   H31   S    
C26   N2    Am   
C45   H17   S    
C17   C20   A    
C13   C39   A    
C34   H11   S    
Ba2   O27   S    
C3    C5    S    
O15   P6    S    
C52   H45   S    
Ba2   P4    S    
O19   P2    D    
C62   H59   S    
C23   H9    S    
C65   H21   S    
C63   H5    S    
C65   C66   S    
C58   C59   A    
C9    C36   A    
C41   C42   A    
C35   C36   A    
C29   C30   S    
C7    H27   S    
C28   H52   S    
O23   P4    D    
C16   H48   S    
O16   P6    D    
C65   O9    S    
C48   C49   S    
C24   C25   A    
C54   C59   A    
C10   C11   A    
C1    H7    S    
Ba2   O28   S    
C1    C12   S    
C46   C47   S    
C30   P6    S    
O8    P8    D    
C43   I3    S    
C1    H14   S    
C67   O10   D    
C64   H55   S    
O27   P7    S    
C23   O7    S    
C51   C59   S    
C18   C41   A    
C6    P4    S    
C42   H38   S    
O28   P5    S    
C18   C37   A    
C3    H33   S    
C5    C14   S    
C57   C60   A    
O3    P5    S    
C21   C22   A    
C1    I1    S    
C28   C40   S    
C51   N3    A    
C48   C53   S    
N5    N6    A    
C34   H10   S    
C56   H19   S    
C52   O17   S    
C9    C10   A    
N3    N4    A    
Ba2   O5    S    
C63   H3    S    
C2    O13   D    
O7    P7    S    
C66   H24   S    
C39   H35   S    
C44   H47   S    
C62   O12   S    
O1    P1    D    
C32   H39   S    
C62   C63   S    
C2    C13   A    
Ba1   O20   S    
C49   C50   D    
C12   H6    S    
C45   C56   S    
C28   H51   S    
Ba1   P1    S    
C56   I2    S    
C67   N1    Am   
C53   N4    A    
C5    P8    S    
C29   C33   D    
C11   H28   S    
O26   P4    S    
C8    N1    S    
C60   H49   S    
C61   H57   S    
Ba1   O4    S    
C23   C34   S    
C64   H54   S    
O18   P6    S    
C3    C8    D    
C18   C19   A    
C26   O14   D    
Ba2   O23   S    
C47   C48   D    
C25   C26   A    
C15   C30   S    
C39   C43   A    
C20   C21   A    
O17   P1    S    
C58   H46   S    
C16   H50   S    
C61   H58   S    
Ba1   O1    S    
