data_mof_unit_55652.cif
_audit_creation_date              2012-12-10T17:11:03-0500
_audit_creation_method            fapswitch 2.2
_symmetry_space_group_name_H-M    P1
_symmetry_Int_Tables_number       1
_space_group_crystal_system       triclinic
_cell_length_a                    11.692807
_cell_length_b                    12.974806
_cell_length_c                    13.48534
_cell_angle_alpha                 92.706764
_cell_angle_beta                  76.873543
_cell_angle_gamma                 100.104184
_cell_volume                      1961.47004022

loop_
_atom_site_label
_atom_site_type_symbol
_atom_type_description
_atom_site_fract_x
_atom_site_fract_y
_atom_site_fract_z
_atom_type_partial_charge
C1    C     C_R   0.521688 0.700798 0.499057 0.801907
C2    C     C_R   0.447175 0.489680 0.975039 0.086434
C3    C     C_R   0.474132 0.525886 0.873282 0.066947
C4    C     C_R   0.533977 0.518237 0.035078 0.075471
C5    C     C_R   0.643561 0.583865 0.993169 0.155970
C6    C     C_R   0.662395 0.625968 0.896827 -0.227815
C7    C     C_R   0.576792 0.600643 0.839570 -0.179987
C8    C     C_R   0.515106 0.485378 0.136018 -0.241058
C9    C     C_R   0.709506 0.578491 0.150252 -0.196458
C10   C     C_R   0.397019 0.487506 0.807654 -0.107218
C11   C     C_R   0.465570 0.185734 0.500742 -0.046541
C12   C     C_R   0.436576 0.497460 0.696014 0.781018
C13   C     C_R   0.534810 0.813991 0.492473 -0.047133
C14   C     C_R   0.657185 0.982386 0.444919 -0.211398
C15   C     C_R   0.645991 0.874322 0.451615 -0.226303
C16   C     C_R   0.433593 0.861463 0.522484 -0.258509
C17   C     C_R   0.443418 0.969164 0.513989 0.176569
C18   C     C_R   0.556466 0.030318 0.476348 0.178587
C19   C     C_R   0.566837 0.138390 0.470677 -0.265296
C20   C     C_R   0.353046 0.124653 0.535297 -0.198689
C21   C     C_R   0.342086 0.016674 0.542577 -0.215776
C22   C     C_R   0.951621 0.603737 0.587083 -0.423803
C23   C     C_R   0.478767 0.299170 0.498879 0.803185
C24   C     C_R   0.832729 0.597177 0.577110 0.682126
C25   C     C_R   0.854287 0.452154 0.464100 -0.076041
C26   C     C_R   0.975829 0.460450 0.468408 0.070279
C27   C     C_R   0.024118 0.536831 0.531659 0.007823
C28   C     C_R   0.144720 0.545407 0.537430 0.053829
C29   C     C_R   0.170482 0.406740 0.418560 0.081859
C30   C     C_R   0.050507 0.394845 0.411348 -0.316138
C31   C     C_R   0.563228 0.504702 0.304508 0.791476
C32   C     C_R   0.731511 0.610711 0.049829 -0.193923
C33   C     C_R   0.599486 0.519003 0.194471 -0.044748
C34   C     C_R   0.285926 0.426619 0.847706 -0.183235
C35   C     C_R   0.254436 0.398316 0.949521 -0.149701
C36   C     C_R   0.334542 0.426970 0.012190 -0.177686
Cu1   Cu    Cu3+1 0.386470 0.492430 0.492410 0.937259
Cu2   Cu    Cu3+1 0.613530 0.507570 0.507590 0.968254
H1    H     H_    0.775446 0.605158 0.194866 0.150957
H2    H     H_    0.274171 0.160628 0.558961 0.155347
H3    H     H_    0.744005 0.028211 0.414485 0.133100
H4    H     H_    0.254868 0.970546 0.570964 0.132554
H5    H     H_    0.723874 0.837791 0.424054 0.141005
H6    H     H_    0.347180 0.814605 0.552660 0.140278
H7    H     H_    0.181954 0.603604 0.586836 0.113681
H8    H     H_    0.227272 0.355815 0.374325 0.119285
H9    H     H_    0.988016 0.662128 0.636574 0.145783
H10   H     H_    0.016724 0.335042 0.361525 0.130494
H11   H     H_    0.742995 0.680111 0.866574 0.146705
H12   H     H_    0.816178 0.393049 0.416006 0.138429
H13   H     H_    0.815457 0.660206 0.017707 0.131591
H14   H     H_    0.433627 0.436637 0.172939 0.137653
H15   H     H_    0.224913 0.397214 0.799266 0.154629
H16   H     H_    0.304726 0.399131 0.089233 0.121633
H17   H     H_    0.168767 0.350478 0.979323 0.138124
H18   H     H_    0.589977 0.641957 0.769428 0.205374
H19   H     H_    0.653609 0.185628 0.442725 0.140614
N1    N     N_R   0.215880 0.481050 0.481000 -0.181138
N2    N     N_R   0.784100 0.518950 0.519000 -0.211144
O1    O     O_R   0.419710 0.645650 0.494620 -0.588933
O2    O     O_R   0.611450 0.658430 0.507430 -0.562477
O3    O     O_R   0.357340 0.490460 0.641450 -0.589142
O4    O     O_R   0.549080 0.503250 0.654260 -0.542840
O5    O     O_R   0.388550 0.341570 0.492570 -0.594701
O6    O     O_R   0.580290 0.354350 0.505380 -0.585109
O7    O     O_R   0.450920 0.496750 0.345740 -0.583568
O8    O     O_R   0.642660 0.509540 0.358550 -0.593572
O9    O     O_3   0.762293 0.665710 0.630744 -0.610936
C37   C     C_3   0.815720 0.771855 0.610399 0.021874
H20   H     H_    0.749288 0.811627 0.588288 0.182971
H21   H     H_    0.895839 0.783008 0.545970 0.121906
C38   C     C_3   0.844417 0.827304 0.706736 -0.375570
H22   H     H_    0.760055 0.828986 0.764338 0.219551
H23   H     H_    0.901589 0.784752 0.739276 0.208987
C39   C     C_3   0.908184 0.939634 0.684347 -0.909300
H24   H     H_    0.994721 0.940348 0.629063 0.248667
H25   H     H_    0.925606 0.978460 0.755853 0.255658
H26   H     H_    0.852148 0.984434 0.652661 0.260038

loop_
_geom_bond_atom_site_label_1
_geom_bond_atom_site_label_2
_ccdc_geom_bond_type
C31   O7    A    
C14   C18   A    
C35   C36   A    
C4    C8    A    
Cu1   O3    S    
C19   H19   S    
C31   O8    A    
C11   C19   A    
C26   C27   A    
Cu1   Cu2   S    
C30   H10   S    
C34   C35   A    
C3    C7    A    
C5    C6    A    
C20   H2    S    
C9    H1    S    
C18   C19   A    
C37   H21   S    
C25   H12   S    
C9    C32   A    
O9    C37   S    
C31   C33   S    
C8    H14   S    
Cu1   N1    S    
C5    C32   A    
C22   H9    S    
C9    C33   A    
C7    H18   S    
C38   C39   S    
C11   C20   A    
C28   H7    S    
C35   H17   S    
Cu2   O8    S    
C38   H23   S    
C1    O1    A    
C12   O4    A    
C38   H22   S    
C25   C26   A    
C17   C21   A    
Cu2   N2    S    
C37   C38   S    
C2    C4    A    
C39   H24   S    
C32   H13   S    
C29   C30   A    
C12   O3    A    
Cu2   O6    S    
Cu1   O7    S    
C17   C18   A    
C10   C34   A    
C20   C21   A    
C39   H25   S    
C10   C12   S    
C14   H3    S    
C23   O5    A    
C26   C30   A    
C22   C27   A    
C13   C15   A    
C22   C24   A    
C1    C13   S    
Cu1   O5    S    
Cu2   O4    S    
C2    C36   A    
C16   H6    S    
C4    C5    A    
C1    O2    A    
C6    C7    A    
C28   N1    A    
C29   H8    S    
Cu2   O2    S    
C2    C3    A    
C15   H5    S    
C3    C10   A    
C23   O6    A    
C16   C17   A    
C24   N2    A    
C11   C23   S    
C8    C33   A    
C6    H11   S    
C37   H20   S    
C39   H26   S    
Cu1   O1    S    
C36   H16   S    
C24   O9    S    
C21   H4    S    
C29   N1    A    
C34   H15   S    
C13   C16   A    
C27   C28   A    
C14   C15   A    
C25   N2    A    
