data_mof_unit_33549.cif
_audit_creation_date              2012-12-10T17:23:39-0500
_audit_creation_method            fapswitch 2.2
_symmetry_space_group_name_H-M    P1
_symmetry_Int_Tables_number       1
_space_group_crystal_system       triclinic
_cell_length_a                    9.605275
_cell_length_b                    10.778565
_cell_length_c                    17.361807
_cell_angle_alpha                 92.577063
_cell_angle_beta                  85.975461
_cell_angle_gamma                 90.037727
_cell_volume                      1791.23516276

loop_
_atom_site_label
_atom_site_type_symbol
_atom_type_description
_atom_site_fract_x
_atom_site_fract_y
_atom_site_fract_z
_atom_type_partial_charge
C1    C     C_R   0.499656 0.737407 0.502705 0.794667
C2    C     C_R   0.343039 0.493983 0.776218 -0.209788
C3    C     C_R   0.413486 0.517579 0.147114 -0.228724
C4    C     C_R   0.405983 0.515705 0.227064 -0.196168
C5    C     C_R   0.657453 0.490920 0.223753 -0.271965
C6    C     C_R   0.665076 0.492347 0.143428 0.622793
C7    C     C_R   0.542778 0.503812 0.104620 0.061816
C8    C     C_2   0.449451 0.460561 0.977972 -0.248264
C9    C     C_2   0.552421 0.503991 0.019973 -0.152768
C10   C     C_R   0.527697 0.501888 0.265970 -0.121112
C11   C     C_R   0.337273 0.879669 0.625553 -0.186777
C12   C     C_R   0.481757 0.497817 0.649642 0.767847
C13   C     C_R   0.258459 0.948754 0.682770 -0.138036
C14   C     C_R   0.258390 0.077778 0.682688 -0.127316
C15   C     C_R   0.337046 0.138536 0.625353 -0.169846
C16   C     C_R   0.415941 0.070421 0.565883 0.098335
C17   C     C_R   0.416051 0.939167 0.565998 0.097942
C18   C     C_R   0.499142 0.871611 0.507985 -0.102205
C19   C     C_R   0.584824 0.932617 0.453624 -0.190188
C20   C     C_R   0.584716 0.060600 0.453494 -0.204559
C21   C     C_R   0.498948 0.129519 0.507742 -0.088761
C22   C     C_R   0.868951 0.335382 0.397011 -0.151758
C23   C     C_R   0.499652 0.262921 0.502357 0.767675
C24   C     C_R   0.947366 0.254872 0.346638 -0.202004
C25   C     C_R   0.090831 0.254643 0.346708 -0.192060
C26   C     C_R   0.156773 0.334943 0.397141 -0.143819
C27   C     C_R   0.081114 0.418933 0.449427 0.207331
C28   C     C_R   0.931587 0.419064 0.449400 0.214101
C29   C     C_R   0.920091 0.576969 0.548198 -0.060053
C30   C     C_R   0.067945 0.576945 0.548175 -0.059708
C31   C     C_R   0.518256 0.500215 0.350280 0.808325
C32   C     C_R   0.472580 0.487343 0.733470 -0.027843
C33   C     C_R   0.594288 0.466059 0.771096 -0.195688
C34   C     C_R   0.587241 0.454126 0.850405 -0.146453
C35   C     C_R   0.458459 0.465192 0.893568 0.184683
C36   C     C_R   0.336148 0.482493 0.855959 -0.157579
Cu1   Cu    Cu3+1 0.359340 0.500010 0.500010 0.928611
Cu2   Cu    Cu3+1 0.640660 0.499990 0.499990 0.937590
H1    H     H_    0.695216 0.457616 0.739300 0.156899
H2    H     H_    0.649763 0.880628 0.409884 0.155509
H3    H     H_    0.337761 0.779912 0.629646 0.138285
H4    H     H_    0.198705 0.901974 0.727987 0.135235
H5    H     H_    0.198612 0.131141 0.727850 0.139353
H6    H     H_    0.337187 0.238840 0.629289 0.154520
H7    H     H_    0.649575 0.106129 0.409649 0.139000
H8    H     H_    0.860018 0.640109 0.587732 0.138895
H9    H     H_    0.759825 0.327728 0.392224 0.192755
H10   H     H_    0.896093 0.192063 0.307278 0.153734
H11   H     H_    0.304725 0.526127 0.258315 0.180949
H12   H     H_    0.151829 0.191648 0.307392 0.155809
H13   H     H_    0.267100 0.326837 0.392464 0.198880
H14   H     H_    0.118139 0.640065 0.587697 0.132064
H15   H     H_    0.752804 0.480561 0.252688 0.182535
H16   H     H_    0.647414 0.540242 0.991814 0.186858
H17   H     H_    0.235832 0.489772 0.888528 0.136337
H18   H     H_    0.318081 0.531796 0.119028 0.167499
H19   H     H_    0.247498 0.508860 0.748265 0.150119
H20   H     H_    0.353882 0.424930 0.005859 0.160499
H21   H     H_    0.682609 0.435384 0.877533 0.139230
N1    N     N_R   0.852190 0.498790 0.499250 -0.200165
N2    N     N_R   0.148060 0.498710 0.499220 -0.199971
O1    O     O_R   0.381190 0.680360 0.500010 -0.576570
O2    O     O_R   0.618760 0.680340 0.500000 -0.573211
O3    O     O_R   0.367440 0.500030 0.613600 -0.599090
O4    O     O_R   0.605010 0.500010 0.613590 -0.582470
O5    O     O_R   0.381240 0.319660 0.500000 -0.602932
O6    O     O_R   0.618810 0.319640 0.499990 -0.590431
O7    O     O_R   0.394990 0.499990 0.386410 -0.600015
O8    O     O_R   0.632560 0.499970 0.386400 -0.602065
F1    F     F_    0.791436 0.480195 0.103541 -0.686317

loop_
_geom_bond_atom_site_label_1
_geom_bond_atom_site_label_2
_ccdc_geom_bond_type
Cu1   N2    S    
C24   C25   A    
C29   N1    A    
C11   H3    S    
C16   C21   A    
C25   H12   S    
C12   O4    A    
C29   H8    S    
C31   O7    A    
C19   C20   A    
Cu2   O4    S    
C4    H11   S    
Cu1   O5    S    
C2    C36   A    
C28   N1    A    
Cu1   O1    S    
C1    C18   S    
Cu2   O8    S    
C5    C10   A    
C36   H17   S    
C22   C28   A    
C13   C14   A    
Cu2   O6    S    
C2    C32   A    
C11   C13   A    
C20   H7    S    
C26   C27   A    
C29   C30   A    
C35   C36   A    
Cu2   N1    S    
C1    O2    A    
C23   O5    A    
C5    H15   S    
C13   H4    S    
Cu1   Cu2   S    
C15   H6    S    
C33   C34   A    
C6    C7    A    
C3    C7    A    
C21   C23   S    
C5    C6    A    
C12   O3    A    
C16   C17   A    
C22   C24   A    
C2    H19   S    
C12   C32   S    
C19   H2    S    
C4    C10   A    
C15   C16   A    
C24   H10   S    
Cu1   O7    S    
C7    C9    S    
C31   O8    A    
Cu1   O3    S    
C18   C19   A    
C20   C21   A    
C1    O1    A    
C17   C18   A    
C34   C35   A    
C3    H18   S    
C30   N2    A    
C23   O6    A    
C27   C28   A    
C6    F1    S    
C30   H14   S    
C14   C15   A    
C14   H5    S    
C9    H16   S    
C27   N2    A    
C8    H20   S    
C25   C26   A    
C26   H13   S    
C34   H21   S    
C10   C31   S    
C33   H1    S    
C22   H9    S    
C11   C17   A    
C3    C4    A    
C32   C33   A    
C8    C9    D    
Cu2   O2    S    
C8    C35   S    
