data_mof_unit_68092.cif
_audit_creation_date              2013-03-05T15:56:11-0500
_audit_creation_method            fapswitch 2.2
_symmetry_space_group_name_H-M    P1
_symmetry_Int_Tables_number       1
_space_group_crystal_system       triclinic
_cell_length_a                    6.915132
_cell_length_b                    14.994986
_cell_length_c                    16.015465
_cell_angle_alpha                 89.999893
_cell_angle_beta                  89.999765
_cell_angle_gamma                 90.001081
_cell_volume                      1660.68052167

loop_
_atom_site_label
_atom_site_type_symbol
_atom_site_description
_atom_site_fract_x
_atom_site_fract_y
_atom_site_fract_z
_atom_type_partial_charge
O1    O     O_R   0.638140 0.833910 0.163320 -0.580972
O2    O     O_R   0.361860 0.166090 0.836680 -0.603242
O3    O     O_R   0.361860 0.166090 0.663320 -0.580966
O4    O     O_R   0.638140 0.833910 0.336680 -0.603239
O5    O     O_R   0.138140 0.666090 0.336680 -0.580962
O6    O     O_R   0.861860 0.333910 0.663320 -0.603243
O7    O     O_R   0.861860 0.333910 0.836680 -0.580961
O8    O     O_R   0.138140 0.666090 0.163320 -0.603236
O9    O     O_R   0.308390 0.844930 0.336080 -0.600239
O10   O     O_R   0.691610 0.155070 0.663920 -0.593948
O11   O     O_R   0.691610 0.155070 0.836080 -0.600232
O12   O     O_R   0.308390 0.844930 0.163920 -0.593945
O13   O     O_R   0.808390 0.655070 0.163920 -0.600246
O14   O     O_R   0.191610 0.344930 0.836080 -0.593954
O15   O     O_R   0.191610 0.344930 0.663920 -0.600240
O16   O     O_R   0.808390 0.655070 0.336080 -0.593948
C1    C     C_R   0.478512 0.865217 0.366376 1.150588
C2    C     C_R   0.523708 0.137639 0.630480 1.103484
C3    C     C_R   0.521489 0.134780 0.866374 1.150612
C4    C     C_R   0.476293 0.862359 0.130479 1.103500
C5    C     C_R   0.978509 0.634786 0.133621 1.150617
C6    C     C_R   0.023709 0.362361 0.869520 1.103534
C7    C     C_R   0.021490 0.365216 0.633623 1.150594
C8    C     C_R   0.976290 0.637639 0.369520 1.103490
O17   O     O_3   0.471620 0.691320 0.250000 -0.308585
O18   O     O_3   0.528380 0.308680 0.750000 -0.308572
O19   O     O_3   0.971620 0.808680 0.250000 -0.308593
O20   O     O_3   0.028380 0.191320 0.750000 -0.308599
V1    V     V_3+5 0.196770 0.760880 0.250000 1.228477
V2    V     V_3+5 0.803230 0.239120 0.750000 1.228475
V3    V     V_3+5 0.696770 0.739120 0.250000 1.228481
V4    V     V_3+5 0.303230 0.260880 0.750000 1.228467
C9    C     C_R   0.844065 0.500896 0.444479 -0.019455
C10   C     C_R   0.101544 0.515404 0.576609 -0.051625
C11   C     C_R   0.155925 0.499111 0.944471 -0.019559
C12   C     C_R   0.898411 0.484609 0.076599 -0.051309
C13   C     C_R   0.344075 0.999099 0.055517 -0.019435
C14   C     C_R   0.601561 0.984595 0.923387 -0.051589
C15   C     C_R   0.655931 0.000898 0.555520 -0.019431
C16   C     C_R   0.398446 0.015402 0.423391 -0.051616
C17   C     C_R   0.877649 0.425745 0.496761 0.457705
C18   C     C_R   0.109046 0.579699 0.512287 0.455420
C19   C     C_R   0.122347 0.574260 0.996757 0.457734
C20   C     C_R   0.890946 0.420307 0.012284 0.455320
C21   C     C_R   0.377662 0.074249 0.003234 0.457744
C22   C     C_R   0.609059 0.920300 0.987710 0.455421
C23   C     C_R   0.622349 0.925748 0.503237 0.457691
C24   C     C_R   0.390946 0.079697 0.487713 0.455410
C25   C     C_R   0.006923 0.433568 0.565369 -0.412375
C26   C     C_R   0.982171 0.571646 0.441725 -0.422358
C27   C     C_R   0.993065 0.566439 0.065364 -0.412513
C28   C     C_R   0.017826 0.428358 0.941722 -0.422426
C29   C     C_R   0.506928 0.066427 0.934625 -0.412410
C30   C     C_R   0.482179 0.928352 0.058272 -0.422359
C31   C     C_R   0.493078 0.933569 0.434628 -0.412370
C32   C     C_R   0.517825 0.071646 0.558275 -0.422344
N1    N     N_2   0.648918 0.517942 0.419185 -0.106585
H1    H     H_    0.594740 0.580190 0.432815 0.233958
C33   C     C_3   0.572644 0.478817 0.343684 -0.650673
H2    H     H_    0.444958 0.437196 0.359255 0.278264
H3    H     H_    0.681321 0.437509 0.312009 0.257484
H4    H     H_    0.525013 0.531826 0.300164 0.206804
N2    N     N_2   0.161697 0.540509 0.658165 -0.090870
H5    H     H_    0.264641 0.500280 0.684943 0.166372
C34   C     C_3   0.006931 0.569439 0.713162 -0.684230
H6    H     H_    0.053190 0.630038 0.747466 0.294078
H7    H     H_    0.972130 0.516049 0.758748 0.164350
H8    H     H_    0.873292 0.586639 0.677901 0.261549
N3    N     N_2   0.351063 0.482075 0.919155 -0.106626
H9    H     H_    0.405241 0.419819 0.932756 0.233697
C35   C     C_3   0.427297 0.521216 0.843654 -0.650641
H10   H     H_    0.554978 0.562841 0.859221 0.278275
H11   H     H_    0.318595 0.562524 0.811995 0.257474
H12   H     H_    0.474927 0.468217 0.800123 0.206754
N4    N     N_2   0.838203 0.459514 0.158150 -0.090748
H13   H     H_    0.735220 0.499733 0.184915 0.166512
C36   C     C_3   0.992921 0.430569 0.213165 -0.684240
H14   H     H_    0.946645 0.369950 0.247434 0.294127
H15   H     H_    0.027655 0.483941 0.258779 0.164333
H16   H     H_    0.126606 0.413397 0.177924 0.261468
N5    N     N_2   0.148929 0.982054 0.080815 -0.106565
H17   H     H_    0.094746 0.919804 0.067186 0.233964
C37   C     C_3   0.072667 0.021177 0.156319 -0.650741
H18   H     H_    0.944991 0.062802 0.140751 0.278269
H19   H     H_    0.181358 0.062478 0.187993 0.257460
H20   H     H_    0.025026 0.968167 0.199836 0.206806
N6    N     N_2   0.661740 0.959495 0.841834 -0.090871
H21   H     H_    0.764700 0.999722 0.815061 0.166386
C38   C     C_3   0.506998 0.930555 0.786829 -0.684210
H22   H     H_    0.553284 0.869962 0.752524 0.294083
H23   H     H_    0.472193 0.983945 0.741244 0.164331
H24   H     H_    0.373356 0.913343 0.822083 0.261561
N7    N     N_2   0.851076 0.017945 0.580817 -0.106571
H25   H     H_    0.905260 0.080194 0.567189 0.233975
C39   C     C_3   0.927344 0.978818 0.656318 -0.650769
H26   H     H_    0.055029 0.937199 0.640747 0.278269
H27   H     H_    0.818662 0.937508 0.687989 0.257473
H28   H     H_    0.974974 0.031825 0.699840 0.206805
N8    N     N_2   0.338271 0.040504 0.341837 -0.090874
H29   H     H_    0.235316 0.000275 0.315063 0.166379
C40   C     C_3   0.493019 0.069439 0.286832 -0.684193
H30   H     H_    0.446737 0.130029 0.252522 0.294087
H31   H     H_    0.527829 0.016045 0.241251 0.164325
H32   H     H_    0.626659 0.086654 0.322088 0.261562
S1    S     S_3+6 0.733455 0.328932 0.481247 0.031052
O21   O     O_2   0.728738 0.305239 0.390253 -0.212557
O22   O     O_2   0.807147 0.248778 0.526870 -0.257696
O23   O     O_3   0.508650 0.352710 0.514216 -0.483883
H33   H     H_    0.525196 0.376031 0.571615 0.324225
S2    S     S_3+6 0.253640 0.674752 0.536191 0.044051
O24   O     O_2   0.301132 0.729715 0.461635 -0.257144
O25   O     O_2   0.146176 0.731456 0.597872 -0.156796
O26   O     O_3   0.461870 0.643157 0.582281 -0.461725
H34   H     H_    0.481129 0.579741 0.567428 0.297118
S3    S     S_3+6 0.266542 0.671074 0.981247 0.031046
O27   O     O_2   0.271249 0.694778 0.890256 -0.212558
O28   O     O_2   0.192859 0.751226 0.026877 -0.257714
O29   O     O_3   0.491350 0.647291 0.014210 -0.483878
H35   H     H_    0.474808 0.623969 0.071609 0.324242
S4    S     S_3+6 0.746436 0.325235 0.036204 0.043998
O30   O     O_2   0.698702 0.270334 0.961635 -0.257294
O31   O     O_2   0.854094 0.268488 0.097786 -0.156641
O32   O     O_3   0.538382 0.356797 0.082459 -0.461627
H36   H     H_    0.518508 0.420087 0.067231 0.297191
S5    S     S_3+6 0.233473 0.171060 0.018746 0.031018
O33   O     O_2   0.228739 0.194741 0.109742 -0.212577
O34   O     O_2   0.307174 0.251224 0.973138 -0.257841
O35   O     O_3   0.008680 0.147279 0.985759 -0.483884
H37   H     H_    0.025249 0.123968 0.928357 0.324227
S6    S     S_3+6 0.753656 0.825251 0.963809 0.044048
O36   O     O_2   0.801152 0.770292 0.038367 -0.257153
O37   O     O_2   0.646192 0.768541 0.902130 -0.156802
O38   O     O_3   0.961882 0.856848 0.917715 -0.461722
H38   H     H_    0.981160 0.920261 0.932581 0.297124
S7    S     S_3+6 0.766540 0.828936 0.518752 0.031051
O39   O     O_2   0.771252 0.805240 0.609745 -0.212569
O40   O     O_2   0.692850 0.748780 0.473128 -0.257692
O41   O     O_3   0.991349 0.852717 0.485785 -0.483882
H39   H     H_    0.974806 0.876035 0.428385 0.324224
S8    S     S_3+6 0.246347 0.174746 0.463811 0.044055
O42   O     O_2   0.198860 0.229709 0.538368 -0.257142
O43   O     O_2   0.353806 0.231453 0.402128 -0.156782
O44   O     O_3   0.038114 0.143148 0.417725 -0.461728
H40   H     H_    0.018861 0.079731 0.432574 0.297119

loop_
_geom_bond_atom_site_label_1
_geom_bond_atom_site_label_2
_geom_bond_distance
_ccdc_geom_bond_type
O17   V3    1.713993 S    
S7    O41   1.680059 S    
N6    H21   1.026946 S    
N2    C34   1.452375 S    
O18   V4    1.713993 S    
C40   H30   1.108990 S    
O12   V1    2.021070 S    
O19   V1    1.714018 S    
O32   H36   0.989471 S    
O16   C8    1.305068 A    
C39   H26   1.109636 S    
C10   C18   1.411871 A    
S8    O44   1.686049 S    
C24   C32   1.435780 A    
C19   C27   1.421363 A    
O35   H37   0.990179 S    
C16   N8    1.421546 S    
N5    H17   1.029222 S    
C39   H28   1.107289 S    
S7    O39   1.500344 D    
C36   H14   1.108993 S    
O16   V3    2.021091 S    
S1    O22   1.496057 D    
O11   C3    1.308386 A    
N7    H25   1.029222 S    
C17   S1    1.778594 S    
O12   C4    1.305074 A    
O8    V1    2.027765 S    
C15   C23   1.422994 A    
S8    O43   1.500371 D    
N1    C33   1.443782 S    
C20   S4    1.782595 S    
O44   H40   0.989221 S    
O1    V3    2.027772 S    
O23   H33   0.990179 S    
O3    C2    1.308146 A    
O2    V4    2.027771 S    
N3    C35   1.443778 S    
C16   C24   1.411877 A    
O29   H35   0.990178 S    
C15   N7    1.431960 S    
C19   S3    1.778603 S    
S2    O24   1.487568 D    
C37   H18   1.109637 S    
O11   V2    2.021069 S    
C21   S5    1.778567 S    
S3    O28   1.496055 D    
S5    O35   1.680073 S    
C38   H23   1.109888 S    
C11   C19   1.423005 A    
C1    C31   1.501832 S    
C37   H19   1.098092 S    
S4    O32   1.686032 S    
C2    C32   1.522552 S    
C16   C31   1.402277 A    
C3    C29   1.501821 S    
O15   C7    1.308406 A    
C23   C31   1.421351 A    
C21   C29   1.421329 A    
C33   H2    1.109636 S    
N7    C39   1.443782 S    
O7    V2    2.027764 S    
O17   V1    2.168041 S    
C13   N5    1.431962 S    
O3    V4    2.027773 S    
C17   C25   1.421356 A    
N5    C37   1.443782 S    
S4    O31   1.500353 D    
O5    V1    2.027758 S    
C36   H15   1.109890 S    
C8    C26   1.522547 S    
S1    O23   1.680059 S    
C33   H3    1.098092 S    
C24   S8    1.782645 S    
O19   V3    2.168007 S    
O20   V4    2.168007 S    
C34   H8    1.113315 S    
S8    O42   1.487569 D    
C4    C30   1.522555 S    
C35   H11   1.098091 S    
C34   H7    1.109892 S    
C9    C26   1.428095 A    
S6    O37   1.500371 D    
N4    H13   1.026946 S    
C12   N4    1.421544 S    
O10   V2    2.021077 S    
N8    H29   1.026942 S    
S3    O29   1.680059 S    
C22   C30   1.435785 A    
O8    C5    1.290383 A    
O13   C5    1.308393 A    
C15   C32   1.428100 A    
C38   H24   1.113308 S    
N4    C36   1.452374 S    
S2    O26   1.686049 S    
C14   C29   1.402271 A    
C12   C27   1.402275 A    
C18   C26   1.435775 A    
O4    C1    1.290379 A    
O9    C1    1.308400 A    
O6    V2    2.027759 S    
O18   V2    2.168041 S    
C40   H32   1.113313 S    
N6    C38   1.452370 S    
O38   H38   0.989241 S    
C12   C20   1.411861 A    
S6    O38   1.686048 S    
C13   C30   1.428091 A    
C13   C21   1.422992 A    
C5    C27   1.501834 S    
S4    O30   1.487596 D    
C6    C28   1.522555 S    
O26   H34   0.989232 S    
C36   H16   1.113315 S    
S7    O40   1.496059 D    
C33   H4    1.107291 S    
C9    N1    1.431960 S    
C23   S7    1.778602 S    
O2    C3    1.290386 A    
O13   V3    2.021091 S    
O14   V4    2.021090 S    
O1    C4    1.308143 A    
O15   V4    2.021092 S    
C22   S6    1.782636 S    
C35   H12   1.107301 S    
C39   H27   1.098093 S    
O9    V1    2.021076 S    
O7    C6    1.308143 A    
S1    O21   1.500346 D    
C14   N6    1.421543 S    
C9    C17   1.422995 A    
O14   C6    1.305070 A    
O20   V2    1.714018 S    
S6    O36   1.487570 D    
C18   S2    1.782640 S    
C35   H10   1.109636 S    
C20   C28   1.435776 A    
N1    H1    1.029224 S    
S5    O33   1.500343 D    
O5    C8    1.308140 A    
O10   C2    1.305070 A    
O6    C7    1.290372 A    
C10   N2    1.421539 S    
N3    H9    1.029225 S    
S2    O25   1.500371 D    
C14   C22   1.411880 A    
O4    V3    2.027772 S    
C7    C25   1.501841 S    
O41   H39   0.990179 S    
N2    H5    1.026935 S    
C37   H20   1.107289 S    
C11   N3    1.431974 S    
C10   C25   1.402271 A    
C40   H31   1.109893 S    
C34   H6    1.108991 S    
C11   C28   1.428097 A    
S5    O34   1.496063 D    
C38   H22   1.108986 S    
N8    C40   1.452372 S    
S3    O27   1.500343 D    
