data_mof_unit_22182.cif
_audit_creation_date              2012-10-26T18:50:26-0400
_audit_creation_method            fapswitch 2.2
_symmetry_space_group_name_H-M    P1
_symmetry_Int_Tables_number       1
_space_group_crystal_system       triclinic
_cell_length_a                    9.610995
_cell_length_b                    10.83928
_cell_length_c                    15.785125
_cell_angle_alpha                 84.146958
_cell_angle_beta                  73.778541
_cell_angle_gamma                 89.729009
_cell_volume                      1570.25144384

loop_
_atom_site_label
_atom_site_type_symbol
_atom_type_description
_atom_site_fract_x
_atom_site_fract_y
_atom_site_fract_z
_atom_type_partial_charge
C1    C     C_R   0.003090 0.262545 0.496029 0.532965
C2    C     C_R   0.228791 0.459621 0.050507 0.001318
C3    C     C_R   0.330084 0.498094 0.093420 -0.011885
C4    C     C_R   0.917125 0.504475 0.671202 0.576096
C5    C     C_R   0.080632 0.448738 0.096535 -0.128109
C6    C     C_R   0.032741 0.470883 0.185125 -0.163449
C7    C     C_R   0.283257 0.495914 0.186878 0.241454
C8    C     C_R   0.277680 0.115318 0.465858 -0.117894
C9    C     C_R   0.395076 0.053743 0.485742 0.141225
C10   C     C_R   0.372098 0.935646 0.532555 0.130260
C11   C     C_R   0.237708 0.874988 0.549216 -0.125051
C12   C     C_R   0.670375 0.525185 0.903474 -0.014386
C13   C     C_R   0.123071 0.932750 0.521673 -0.004232
C14   C     C_R   0.136553 0.060513 0.493436 -0.004513
C15   C     C_R   0.008105 0.127410 0.494773 -0.012267
C16   C     C_R   0.995964 0.735122 0.510546 0.532292
C17   C     C_R   0.876868 0.062509 0.508044 -0.165851
C18   C     C_R   0.871909 0.934386 0.517417 -0.165236
C19   C     C_R   0.995314 0.868040 0.521136 -0.018544
C20   C     C_R   0.693042 0.676522 0.368593 0.312674
C21   C     C_R   0.633985 0.745268 0.304832 0.281332
C22   C     C_R   0.488338 0.738762 0.313715 -0.171406
C23   C     C_R   0.772585 0.554722 0.947853 -0.026238
C24   C     C_R   0.399681 0.664272 0.381001 -0.109961
C25   C     C_R   0.449732 0.582718 0.440226 0.066724
C26   C     C_R   0.601155 0.584922 0.437432 0.090141
C27   C     C_R   0.548423 0.421936 0.557298 -0.008569
C28   C     C_R   0.083223 0.498061 0.328603 0.563113
C29   C     C_R   0.400337 0.421676 0.557561 0.200499
C30   C     C_R   0.868384 0.518161 0.767357 0.032982
C31   C     C_R   0.133056 0.491006 0.231928 -0.001973
C32   C     C_R   0.920991 0.551063 0.904952 -0.106785
C33   C     C_R   0.969943 0.528306 0.816032 0.249673
C34   C     C_R   0.523368 0.499998 0.953414 -0.036889
C35   C     C_R   0.718305 0.528997 0.809988 0.042205
C36   C     C_3   0.852558 0.768319 0.035960 -0.088224
C37   C     C_3   0.902500 0.810977 0.327163 -0.057631
C38   C     C_3   0.681801 0.931635 0.214634 -0.177918
C39   C     C_3   0.424338 0.362346 0.244739 -0.104587
C40   C     C_3   0.190916 0.243272 0.936940 -0.127753
C41   C     C_3   0.191240 0.629583 0.770430 -0.102428
C42   C     C_R   0.476488 0.527028 0.042828 -0.034629
C43   C     C_R   0.576660 0.585374 0.077699 -0.073487
C44   C     C_R   0.723970 0.594448 0.032772 0.250242
C45   C     C_R   0.425050 0.440400 0.918367 -0.116778
C46   C     C_R   0.278706 0.424388 0.964401 0.260877
Cu1   Cu    Cu3+1 0.140660 0.499990 0.500010 0.979261
Cu2   Cu    Cu3+1 0.859340 0.500010 0.499990 0.987278
H1    H     H_    0.001165 0.421542 0.064621 0.173809
H2    H     H_    0.999651 0.565731 0.940491 0.175772
H3    H     H_    0.543330 0.626284 0.139480 0.199391
H4    H     H_    0.460450 0.401673 0.856009 0.125092
H5    H     H_    0.753131 0.824432 0.045339 0.127403
H6    H     H_    0.912532 0.775173 0.964365 0.077401
H7    H     H_    0.924284 0.809475 0.070345 0.162744
H8    H     H_    0.534408 0.201996 0.430716 0.207738
H9    H     H_    0.605982 0.061625 0.416294 0.219503
H10   H     H_    0.506467 0.792544 0.534201 0.217545
H11   H     H_    0.449313 0.856043 0.630857 0.220208
H12   H     H_    0.777579 0.110892 0.510187 0.180073
H13   H     H_    0.827173 0.886115 0.351399 0.102815
H14   H     H_    0.947446 0.820730 0.253962 0.160862
H15   H     H_    0.999551 0.822054 0.350347 0.101253
H16   H     H_    0.639804 0.974259 0.277863 0.096707
H17   H     H_    0.600443 0.937861 0.176500 0.113476
H18   H     H_    0.778604 0.987386 0.174467 0.114105
H19   H     H_    0.488390 0.332859 0.180081 0.109686
H20   H     H_    0.328475 0.298884 0.274311 0.101124
H21   H     H_    0.494145 0.353889 0.290284 0.133436
H22   H     H_    0.302081 0.354035 0.683749 0.243190
H23   H     H_    0.299776 0.204417 0.427074 0.135097
H24   H     H_    0.335213 0.247348 0.610526 0.217113
H25   H     H_    0.160262 0.208426 0.008710 0.097128
H26   H     H_    0.300132 0.210513 0.902755 0.106136
H27   H     H_    0.111900 0.202819 0.907338 0.144870
H28   H     H_    0.209873 0.644305 0.835052 0.117131
H29   H     H_    0.133861 0.709753 0.746843 0.086840
H30   H     H_    0.299089 0.625996 0.721464 0.132695
H31   H     H_    0.577683 0.502479 0.735898 0.235314
H32   H     H_    0.542839 0.630100 0.793358 0.225276
H33   H     H_    0.223541 0.784354 0.586384 0.141753
H34   H     H_    0.771596 0.887084 0.520531 0.179287
H35   H     H_    0.583060 0.357893 0.604186 0.113831
H36   H     H_    0.442233 0.789553 0.265718 0.113016
H37   H     H_    0.291449 0.671501 0.379354 0.210883
H38   H     H_    0.917644 0.463792 0.218434 0.170475
N1    N     N_R   0.648320 0.501210 0.499140 -0.244084
N2    N     N_R   0.352470 0.501290 0.499110 -0.211879
N3    N     N_3   0.536063 0.112641 0.462358 -0.629131
N4    N     N_3   0.486181 0.876506 0.561979 -0.628510
N5    N     N_3   0.299359 0.337371 0.620154 -0.538610
N6    N     N_3   0.624049 0.575554 0.757705 -0.614198
O1    O     O_R   0.118810 0.319640 0.500010 -0.487032
O2    O     O_3   0.840175 0.690567 0.358285 -0.499599
O3    O     O_3   0.723264 0.807091 0.227575 -0.558099
O4    O     O_3   0.383490 0.487153 0.235294 -0.569163
O5    O     O_3   0.184636 0.373591 0.924477 -0.550727
O6    O     O_3   0.116665 0.515685 0.776403 -0.512331
O7    O     O_R   0.881240 0.319660 0.500000 -0.517070
O8    O     O_R   0.055570 0.499980 0.629840 -0.433491
O9    O     O_R   0.818000 0.500010 0.629830 -0.498707
O10   O     O_R   0.118760 0.680340 0.500000 -0.557424
O11   O     O_R   0.881190 0.680360 0.499990 -0.449290
O12   O     O_R   0.182000 0.499990 0.370170 -0.484455
O13   O     O_R   0.944430 0.500020 0.370160 -0.449656
O14   O     O_3   0.818972 0.644019 0.072692 -0.552661

loop_
_geom_bond_atom_site_label_1
_geom_bond_atom_site_label_2
_ccdc_geom_bond_type
C3    C42   A    
C27   C29   A    
C39   H20   S    
H22   N5    S    
C34   C42   A    
C1    O7    A    
C37   H14   S    
C45   C46   A    
C11   H33   S    
C7    O4    S    
C12   C23   A    
H9    N3    S    
C30   C35   A    
C18   C19   A    
C3    C7    A    
C41   H29   S    
C5    C6    A    
C40   H25   S    
C33   O6    S    
C29   N2    A    
C36   H5    S    
Cu1   Cu2   S    
C8    C9    A    
C38   O3    S    
C1    C15   S    
C24   H37   S    
C35   N6    S    
C6    C31   A    
Cu1   O10   S    
C21   C22   A    
C5    H1    S    
C37   H15   S    
C38   H16   S    
Cu1   O1    S    
C7    C31   A    
C13   C19   A    
C36   O14   S    
C41   H30   S    
C38   H18   S    
C24   C25   A    
C9    N3    S    
C40   O5    S    
H24   N5    S    
C26   N1    A    
C21   O3    S    
C45   H4    S    
C25   C26   A    
Cu2   O11   S    
C25   N2    A    
C2    C46   A    
Cu1   O8    S    
H11   N4    S    
C22   H36   S    
H32   N6    S    
C43   C44   A    
C28   O12   A    
C16   O11   A    
Cu2   O13   S    
C38   H17   S    
C28   O13   A    
C4    O9    A    
C17   C18   A    
C39   H21   S    
Cu2   N1    S    
C34   C45   A    
C12   C35   A    
C27   N1    A    
H10   N4    S    
C32   H2    S    
H31   N6    S    
C16   O10   A    
H8    N3    S    
C46   O5    S    
C4    O8    A    
C22   C24   A    
C2    C5    A    
C42   C43   A    
C12   C34   A    
C29   N5    S    
C9    C10   A    
C15   C17   A    
Cu2   O7    S    
C20   O2    S    
C8    H23   S    
C8    C14   A    
Cu1   O12   S    
C30   C33   A    
C14   C15   A    
C39   H19   S    
C28   C31   S    
C23   C32   A    
C37   H13   S    
C44   O14   S    
C6    H38   S    
C40   H27   S    
Cu1   N2    S    
C27   H35   S    
C2    C3    A    
C36   H7    S    
C32   C33   A    
C41   H28   S    
C11   C13   A    
C43   H3    S    
C20   C26   A    
C16   C19   S    
Cu2   O9    S    
C18   H34   S    
C40   H26   S    
C37   O2    S    
C39   O4    S    
C36   H6    S    
C10   C11   A    
C23   C44   A    
C17   H12   S    
C20   C21   A    
C10   N4    S    
C1    O1    A    
C41   O6    S    
C13   C14   A    
C4    C30   S    
