data_mof_unit_13238.cif
_audit_creation_date              2012-12-10T18:41:21-0500
_audit_creation_method            fapswitch 2.2
_symmetry_space_group_name_H-M    P1
_symmetry_Int_Tables_number       1
_space_group_crystal_system       triclinic
_cell_length_a                    15.135126
_cell_length_b                    13.856036
_cell_length_c                    10.856992
_cell_angle_alpha                 90.161
_cell_angle_beta                  90.25038
_cell_angle_gamma                 89.481123
_cell_volume                      2276.72690029

loop_
_atom_site_label
_atom_site_type_symbol
_atom_type_description
_atom_site_fract_x
_atom_site_fract_y
_atom_site_fract_z
_atom_type_partial_charge
C1    C     C_R   0.330351 0.500544 0.495653 0.914697
C2    C     C_R   0.670250 0.499714 0.505864 0.924811
C3    C     C_R   0.187005 0.493984 0.380604 0.387726
C4    C     C_R   0.819258 0.449989 0.595661 0.377936
C5    C     C_R   0.094688 0.495909 0.383590 -0.170839
C6    C     C_R   0.911045 0.451384 0.585988 -0.178397
C7    C     C_R   0.049855 0.510166 0.494934 -0.065807
C8    C     C_R   0.952712 0.507617 0.497266 -0.057175
C9    C     C_R   0.557527 0.106684 0.577880 0.184718
C10   C     C_R   0.441578 0.107778 0.422167 0.202964
C11   C     C_R   0.557103 0.208857 0.573881 0.664229
C12   C     C_R   0.441701 0.209888 0.427263 0.663543
C13   C     C_R   0.499693 0.054536 0.499626 -0.247833
C14   C     C_R   0.429501 0.894130 0.550122 -0.182121
C15   C     C_R   0.569704 0.892724 0.448510 -0.175602
C16   C     C_R   0.430538 0.792498 0.549039 0.739472
C17   C     C_R   0.569018 0.791176 0.450001 0.713986
C18   C     C_R   0.499605 0.945785 0.499401 0.104724
C19   C     C_R   0.507846 0.499457 0.262492 0.905821
C20   C     C_R   0.489618 0.499970 0.736732 0.900415
C21   C     C_R   0.506608 0.581651 0.060518 -0.084610
C22   C     C_R   0.487908 0.582327 0.938921 -0.040949
C23   C     C_R   0.513034 0.497015 0.128277 -0.211870
C24   C     C_R   0.480674 0.498256 0.870333 -0.222148
C25   C     C_R   0.509927 0.408835 0.060639 0.325827
C26   C     C_R   0.479485 0.410086 0.936975 0.310160
C27   C     C_3   0.487397 0.689802 0.930425 0.109883
C28   C     C_3   0.513925 0.688905 0.068314 0.208623
C29   C     C_R   0.098195 0.523178 0.604540 0.688632
C30   C     C_R   0.901390 0.560841 0.413311 0.686024
C31   C     C_R   0.189874 0.518338 0.602922 -0.212806
C32   C     C_R   0.809609 0.556390 0.418134 -0.227252
C33   C     C_R   0.234473 0.502684 0.492211 -0.222737
C34   C     C_R   0.767300 0.500422 0.507419 -0.251222
Cu1   Cu    Cu3+1 0.500000 0.596430 0.500000 1.124938
Cu2   Cu    Cu3+1 0.500000 0.403570 0.500000 1.184446
H1    H     H_    0.374129 0.932361 0.590848 0.229530
H2    H     H_    0.624862 0.929802 0.407388 0.214652
H3    H     H_    0.537000 0.717373 0.864607 0.164339
H4    H     H_    0.466471 0.721666 0.134288 0.158669
H5    H     H_    0.226377 0.527459 0.688225 0.224152
H6    H     H_    0.771288 0.597376 0.352033 0.258209
H7    H     H_    0.057408 0.485786 0.299298 0.240537
H8    H     H_    0.950685 0.409664 0.650351 0.233434
N1    N     N_R   0.500000 0.258690 0.500000 -0.337398
N2    N     N_R   0.500000 0.741330 0.500000 -0.319547
O1    O     O_R   0.371460 0.581430 0.500010 -0.514551
O2    O     O_R   0.628540 0.581430 0.499990 -0.535052
O3    O     O_R   0.371470 0.418560 0.500010 -0.529647
O4    O     O_R   0.628530 0.418560 0.499990 -0.515525
O5    O     O_R   0.499990 0.581450 0.319660 -0.566976
O6    O     O_R   0.500010 0.581450 0.680340 -0.580112
O7    O     O_R   0.500010 0.418580 0.319660 -0.506344
O8    O     O_R   0.499990 0.418580 0.680340 -0.496812
S1    S     S_3+6 0.566019 0.303128 0.113209 0.095810
O9    O     O_2   0.632830 0.327373 0.211167 -0.291106
O10   O     O_2   0.500689 0.232663 0.163148 -0.189306
O11   O     O_3   0.619847 0.251509 0.994714 -0.432502
H9    H     H_    0.645565 0.191178 0.028704 0.407610
S2    S     S_3+6 0.416802 0.310285 0.883047 0.120067
O12   O     O_2   0.364161 0.270500 0.988116 -0.149854
O13   O     O_2   0.353804 0.341260 0.782931 -0.295757
O14   O     O_3   0.483909 0.223014 0.829262 -0.432705
H10   H     H_    0.444499 0.168306 0.809792 0.369844
F1    F     F_    0.360746 0.746195 0.597440 -0.557315
F2    F     F_    0.638635 0.743734 0.400546 -0.596151
S3    S     S_3+6 0.378059 0.737417 0.903800 0.084212
O15   O     O_2   0.328311 0.670769 0.819624 -0.170122
O16   O     O_2   0.327186 0.748137 0.021713 -0.249776
O17   O     O_3   0.385929 0.846294 0.837202 -0.450626
H11   H     H_    0.421718 0.885143 0.895290 0.368590
S4    S     S_3+6 0.626066 0.725452 0.093619 0.069714
O18   O     O_2   0.669263 0.658047 0.184035 -0.227270
O19   O     O_2   0.677999 0.723271 0.975876 -0.247760
O20   O     O_3   0.625555 0.838344 0.150717 -0.486393
H12   H     H_    0.687872 0.851184 0.173106 0.405867
F3    F     F_    0.056837 0.541675 0.712920 -0.579188
F4    F     F_    0.939727 0.618590 0.328455 -0.583918
S5    S     S_3+6 0.240780 0.486620 0.236393 0.083749
O21   O     O_2   0.296633 0.396722 0.230665 -0.190775
O22   O     O_2   0.174381 0.484998 0.132996 -0.194299
O23   O     O_3   0.305821 0.583268 0.220447 -0.522728
H13   H     H_    0.327820 0.578718 0.134922 0.383228
S6    S     S_3+6 0.776992 0.391705 0.726960 0.123289
O24   O     O_2   0.777554 0.284777 0.704090 -0.142924
O25   O     O_2   0.836488 0.412467 0.834959 -0.209383
O26   O     O_3   0.674775 0.430335 0.761139 -0.517151
H14   H     H_    0.663682 0.405877 0.845206 0.399588
S7    S     S_3+6 0.629465 0.045697 0.682312 0.106135
O27   O     O_2   0.707728 0.007353 0.612244 -0.234408
O28   O     O_2   0.661405 0.112501 0.781887 -0.124391
O29   O     O_3   0.576473 0.953114 0.748286 -0.548018
H15   H     H_    0.622769 0.916882 0.793983 0.394217
S8    S     S_3+6 0.369254 0.048306 0.317697 0.126299
O30   O     O_2   0.291318 0.011233 0.387965 -0.239980
O31   O     O_2   0.336832 0.115971 0.219066 -0.102501
O32   O     O_3   0.422152 0.954900 0.250358 -0.514812
H16   H     H_    0.375646 0.919264 0.205234 0.396014
F5    F     F_    0.611940 0.259264 0.647422 -0.516860
F6    F     F_    0.383093 0.260904 0.358759 -0.530023

loop_
_geom_bond_atom_site_label_1
_geom_bond_atom_site_label_2
_ccdc_geom_bond_type
C15   C18   A    
S1    O9    D    
C7    C29   A    
C14   C18   A    
Cu1   Cu2   S    
S6    O26   S    
O26   H14   S    
Cu1   O1    S    
O32   H16   S    
C1    C33   S    
C7    C8    S    
C3    C33   A    
C17   F2    S    
C13   C18   S    
S2    O14   S    
S2    O13   D    
S6    O25   D    
C10   S8    S    
C11   F5    S    
C9    C13   A    
Cu2   O7    S    
C2    O4    A    
C20   C24   S    
C27   H3    S    
C31   C33   A    
O17   H11   S    
S7    O28   D    
C19   O7    A    
C5    H7    S    
C3    S5    S    
C6    H8    S    
C21   C22   A    
C28   S4    S    
S4    O20   S    
Cu1   O2    S    
C4    C34   A    
C28   H4    S    
S3    O15   D    
Cu2   O8    S    
S6    O24   D    
S4    O19   D    
C9    S7    S    
C5    C7    A    
C1    O1    A    
C6    C8    A    
S8    O32   S    
C2    O2    A    
O11   H9    S    
S5    O21   D    
S2    O12   D    
S3    O16   D    
C32   C34   A    
C19   C23   S    
O20   H12   S    
C15   H2    S    
C4    S6    S    
Cu2   N1    S    
C17   N2    A    
S7    O29   S    
S8    O31   D    
C9    C11   A    
C10   C12   A    
C20   O8    A    
C21   C28   S    
C22   C27   S    
S1    O10   D    
Cu1   O5    S    
C14   C16   A    
C11   N1    A    
C4    C6    A    
C16   N2    A    
Cu1   O6    S    
Cu2   O4    S    
S5    O22   D    
C15   C17   A    
C31   H5    S    
C25   S1    S    
C24   C26   A    
S4    O18   D    
C3    C5    A    
C10   C13   A    
S5    O23   S    
C12   N1    A    
S3    O17   S    
C8    C30   A    
C21   C23   A    
C25   C26   A    
C29   C31   A    
C14   H1    S    
C30   C32   A    
C2    C34   S    
C26   S2    S    
O29   H15   S    
C22   C24   A    
C23   C25   A    
S8    O30   D    
C12   F6    S    
C27   S3    S    
O14   H10   S    
C30   F4    S    
C19   O5    A    
C29   F3    S    
C20   O6    A    
O23   H13   S    
S1    O11   S    
C27   C28   S    
C32   H6    S    
C16   F1    S    
S7    O27   D    
Cu1   N2    S    
C1    O3    A    
Cu2   O3    S    
