data_mof_unit_9199.cif
_audit_creation_date              2012-12-11T17:36:21-0500
_audit_creation_method            fapswitch 2.2
_symmetry_space_group_name_H-M    P1
_symmetry_Int_Tables_number       1
_space_group_crystal_system       triclinic
_cell_length_a                    25.848958
_cell_length_b                    6.898952
_cell_length_c                    21.642819
_cell_angle_alpha                 90.002321
_cell_angle_beta                  96.193704
_cell_angle_gamma                 90.001917
_cell_volume                      3837.05046106

loop_
_atom_site_label
_atom_site_type_symbol
_atom_type_description
_atom_site_fract_x
_atom_site_fract_y
_atom_site_fract_z
_atom_type_partial_charge
O1    O     O_R   0.208650 0.594520 0.175450 -0.539985
O2    O     O_R   0.791350 0.405480 0.824550 -0.529881
O3    O     O_R   0.291350 0.094520 0.324550 -0.539982
O4    O     O_R   0.708650 0.905480 0.675450 -0.529892
O5    O     O_R   0.192980 0.260780 0.300160 -0.524711
O6    O     O_R   0.807020 0.739220 0.699840 -0.527821
O7    O     O_R   0.307020 0.760780 0.199840 -0.524715
O8    O     O_R   0.692980 0.239220 0.800160 -0.527809
C1    C     C_R   0.177771 0.433334 0.316796 0.665770
C2    C     C_R   0.820140 0.567230 0.680084 0.673509
C3    C     C_R   0.322228 0.933335 0.183203 0.665756
C4    C     C_R   0.679858 0.067230 0.819914 0.673530
O9    O     O_R   0.202550 0.264660 0.174420 -0.533199
O10   O     O_R   0.797450 0.735340 0.825580 -0.544387
O11   O     O_R   0.297450 0.764660 0.325580 -0.533196
O12   O     O_R   0.702550 0.235340 0.674420 -0.544388
O13   O     O_R   0.300990 0.096480 0.197920 -0.548733
O14   O     O_R   0.699010 0.903520 0.802080 -0.545419
O15   O     O_R   0.199010 0.596480 0.302080 -0.548736
O16   O     O_R   0.800990 0.403520 0.697920 -0.545410
C5    C     C_R   0.190793 0.433489 0.151168 0.688736
C6    C     C_R   0.809372 0.565986 0.848753 0.699374
C7    C     C_R   0.309208 0.933502 0.348830 0.688740
C8    C     C_R   0.690629 0.065974 0.651247 0.699360
O17   O     O_3   0.282290 0.427760 0.257860 -0.363678
O18   O     O_3   0.717710 0.572240 0.742140 -0.364355
O19   O     O_3   0.217710 0.927760 0.242140 -0.363684
O20   O     O_3   0.782290 0.072240 0.757860 -0.364347
V1    V     V_3+5 0.244010 0.152080 0.248540 1.443765
V2    V     V_3+5 0.755990 0.847920 0.751460 1.446553
V3    V     V_3+5 0.255990 0.652080 0.251460 1.443763
V4    V     V_3+5 0.744010 0.347920 0.748540 1.446571
C9    C     C_R   0.657021 0.053164 0.591658 -0.065355
C10   C     C_R   0.342893 0.938766 0.408375 -0.053726
C11   C     C_R   0.842980 0.553233 0.908344 -0.065345
C12   C     C_R   0.157105 0.438692 0.091625 -0.053753
C13   C     C_R   0.649652 0.023236 0.479771 -0.130892
C14   C     C_R   0.352470 0.889362 0.519557 -0.141156
C15   C     C_R   0.850361 0.523981 0.020245 -0.130913
C16   C     C_R   0.147492 0.388599 0.980474 -0.141167
C17   C     C_R   0.679993 0.050004 0.536232 -0.158064
C18   C     C_R   0.320953 0.902731 0.463367 -0.155133
C19   C     C_R   0.820019 0.550528 0.963776 -0.157977
C20   C     C_R   0.179022 0.402176 0.036650 -0.155119
C21   C     C_R   0.602851 0.026955 0.590022 -0.212494
C22   C     C_R   0.397169 0.960882 0.410090 -0.212965
C23   C     C_R   0.897142 0.526777 0.909984 -0.212497
C24   C     C_R   0.102837 0.461074 0.089907 -0.212965
C25   C     C_R   0.571525 0.982976 0.533361 0.086288
C26   C     C_R   0.430657 0.930776 0.466099 0.086425
C27   C     C_R   0.928465 0.483040 0.966664 0.086279
C28   C     C_R   0.069330 0.430740 0.033924 0.086436
C29   C     C_R   0.595914 0.990131 0.477812 0.057846
C30   C     C_R   0.406838 0.902793 0.521420 0.065983
C31   C     C_R   0.904089 0.490666 0.022213 0.057834
C32   C     C_R   0.093130 0.402273 0.978616 0.065982
C33   C     C_R   0.516852 0.937806 0.529484 -0.084334
C34   C     C_R   0.486621 0.932410 0.469591 -0.089427
C35   C     C_R   0.983127 0.437683 0.970557 -0.084322
C36   C     C_R   0.013367 0.432579 0.030446 -0.089410
C37   C     C_R   0.513983 0.920695 0.415910 0.350527
C38   C     C_R   0.491259 0.889698 0.582608 0.346350
C39   C     C_R   0.986013 0.421339 0.084140 0.350522
C40   C     C_R   0.008696 0.389111 0.917458 0.346356
C41   C     C_R   0.567194 0.956533 0.420587 -0.175770
C42   C     C_R   0.437236 0.880324 0.578151 -0.187400
C43   C     C_R   0.932811 0.457346 0.079452 -0.175793
C44   C     C_R   0.062715 0.379545 0.921907 -0.187410
H1    H     H_    0.586733 0.950147 0.378721 0.153547
H2    H     H_    0.418875 0.846873 0.619640 0.144987
H3    H     H_    0.913279 0.451325 0.121326 0.153547
H4    H     H_    0.081059 0.345731 0.880436 0.144990
H5    H     H_    0.412090 0.002321 0.367331 0.147721
H6    H     H_    0.586190 0.043747 0.633311 0.149896
H7    H     H_    0.087937 0.502853 0.132646 0.147720
H8    H     H_    0.913801 0.543230 0.866684 0.149906
H9    H     H_    0.279265 0.884355 0.462728 0.100647
H10   H     H_    0.721610 0.066833 0.536594 0.137789
H11   H     H_    0.220702 0.383569 0.037292 0.100666
H12   H     H_    0.778409 0.567559 0.963414 0.137592
H13   H     H_    0.668543 0.024063 0.437425 0.124960
H14   H     H_    0.334292 0.863786 0.561666 0.112454
H15   H     H_    0.831479 0.525169 0.062594 0.124945
H16   H     H_    0.165654 0.362646 0.938378 0.112461
C45   C     C_R   0.406519 0.824266 0.053790 -0.118485
C46   C     C_R   0.558273 0.185791 0.898269 -0.107835
C47   C     C_R   0.093462 0.324223 0.446189 -0.118473
C48   C     C_R   0.941740 0.685723 0.601753 -0.107874
H17   H     H_    0.408110 0.715263 0.018013 0.114251
H18   H     H_    0.528906 0.298395 0.895339 0.117587
H19   H     H_    0.091859 0.215191 0.481951 0.114247
H20   H     H_    0.971124 0.798274 0.604706 0.117589
C49   C     C_R   0.369312 0.807096 0.096150 -0.112648
C50   C     C_R   0.599313 0.198210 0.860851 -0.100482
C51   C     C_R   0.130671 0.307060 0.403831 -0.112561
C52   C     C_R   0.900701 0.698151 0.639172 -0.100667
H21   H     H_    0.342375 0.686377 0.091329 0.120489
H22   H     H_    0.600088 0.319490 0.829187 0.135041
H23   H     H_    0.157598 0.186315 0.408640 0.120511
H24   H     H_    0.899943 0.819381 0.670860 0.134992
C53   C     C_R   0.365709 0.946712 0.142999 -0.123624
C54   C     C_R   0.638358 0.054717 0.863290 -0.132725
C55   C     C_R   0.134288 0.446711 0.356998 -0.123653
C56   C     C_R   0.861636 0.554720 0.636706 -0.132687
C57   C     C_R   0.402068 0.102791 0.147991 -0.033193
C58   C     C_R   0.635799 0.898358 0.906060 -0.010771
C59   C     C_R   0.097941 0.602819 0.352021 -0.033189
C60   C     C_R   0.864172 0.398420 0.593905 -0.010736
C61   C     C_R   0.438703 0.119060 0.104352 -0.104758
C62   C     C_R   0.593742 0.886734 0.942357 -0.111823
C63   C     C_R   0.061305 0.619085 0.395659 -0.104780
C64   C     C_R   0.906227 0.386791 0.557604 -0.111763
H25   H     H_    0.466450 0.237466 0.107790 0.157801
H26   H     H_    0.591774 0.768492 0.975043 0.156119
H27   H     H_    0.033568 0.737515 0.392232 0.157792
H28   H     H_    0.908178 0.268597 0.524895 0.156139
C65   C     C_R   0.440974 0.981538 0.057193 0.075265
C66   C     C_R   0.555102 0.029147 0.938860 0.072201
C67   C     C_R   0.059020 0.481526 0.442802 0.075261
C68   C     C_R   0.944889 0.529137 0.561130 0.072205
C69   C     C_1   0.479980 0.999856 0.013845 -0.037658
C70   C     C_1   0.513526 0.015237 0.978917 -0.035477
C71   C     C_1   0.020012 0.499839 0.486148 -0.037653
C72   C     C_1   0.986465 0.515220 0.521074 -0.035486
O21   O     O_3   0.491896 0.852424 0.359347 -0.639632
H29   H     H_    0.467898 0.745743 0.367736 0.295924
O22   O     O_3   0.517238 0.828013 0.637995 -0.650681
H30   H     H_    0.546882 0.746941 0.627909 0.287486
O23   O     O_3   0.008094 0.353376 0.140741 -0.639684
H31   H     H_    0.032062 0.246538 0.132416 0.295921
O24   O     O_3   0.982690 0.327157 0.862118 -0.650685
H32   H     H_    0.953029 0.246280 0.872263 0.287507
C73   C     C_2   0.404500 0.244225 0.200032 0.406192
H33   H     H_    0.386714 0.211637 0.241955 0.050491
O25   O     O_2   0.427258 0.398585 0.197128 -0.525534
C74   C     C_2   0.677837 0.751903 0.916899 0.358844
H34   H     H_    0.716936 0.784874 0.906558 0.045218
O26   O     O_2   0.669442 0.593150 0.938731 -0.541706
C75   C     C_2   0.095519 0.744285 0.299992 0.406227
H35   H     H_    0.113292 0.711687 0.258059 0.050518
O27   O     O_2   0.072785 0.898679 0.302918 -0.525582
C76   C     C_2   0.822115 0.252032 0.583044 0.358778
H36   H     H_    0.783025 0.285012 0.593412 0.045248
O28   O     O_2   0.830485 0.093315 0.561158 -0.541706

loop_
_geom_bond_atom_site_label_1
_geom_bond_atom_site_label_2
_ccdc_geom_bond_type
O17   V3    S    
C48   C52   A    
O1    C5    A    
C47   H19   S    
O19   V1    S    
C9    C21   A    
C16   H16   S    
O3    C7    A    
C10   C18   A    
C56   C60   A    
C11   C23   A    
C62   C66   A    
C60   C76   S    
C61   C65   A    
C71   C72   T    
C5    C12   S    
C42   H2    S    
O7    C3    A    
C6    C11   S    
O5    C1    A    
C26   C30   A    
C36   C39   A    
C40   C44   A    
C63   C67   A    
C23   H8    S    
C14   C18   A    
C58   C62   A    
C38   O22   S    
O4    C8    A    
C51   H23   S    
C44   H4    S    
C50   H22   S    
O1    V3    S    
O13   V1    S    
O2    V4    S    
C66   C70   S    
O3    V1    S    
C65   C69   S    
C46   C50   A    
C45   C49   A    
C1    O15   A    
C15   C31   A    
C48   H20   S    
C2    O16   A    
C16   C32   A    
C47   C51   A    
O2    C6    A    
C54   C58   A    
C10   C22   A    
C48   C68   A    
C11   C19   A    
C62   H26   S    
C16   C20   A    
C43   H3    S    
C1    C55   S    
C13   C29   A    
C34   C37   A    
O11   C7    A    
O15   V3    S    
C35   C36   A    
O12   C8    A    
C14   H14   S    
O17   V1    S    
C24   H7    S    
C13   H13   S    
C47   C67   A    
O10   V2    S    
C51   C55   A    
O5    V1    S    
C53   C57   A    
C39   C43   A    
O7    V3    S    
C38   C42   A    
O19   V3    S    
C26   C34   A    
O20   V4    S    
C74   O26   D    
C46   H18   S    
C49   C53   A    
C17   H10   S    
C64   C68   A    
C45   H17   S    
O18   V4    S    
C15   C19   A    
C33   C38   A    
C19   H12   S    
C32   C44   A    
C60   C64   A    
C68   C72   S    
C21   H6    S    
O8    V4    S    
C4    C54   S    
C63   H27   S    
C31   C43   A    
C22   H5    S    
C14   C30   A    
C40   O24   S    
C21   C25   A    
O8    C4    A    
C7    C10   S    
C35   C40   A    
O9    C5    A    
C3    C53   S    
C45   C65   A    
C69   C70   T    
O14   V2    S    
O6    V2    S    
O18   V2    S    
C67   C71   S    
C46   C66   A    
O21   H29   S    
C76   O28   D    
C12   C20   A    
C27   C35   A    
O22   H30   S    
C49   H21   S    
C64   H28   S    
C29   C41   A    
C57   C73   S    
O23   H31   S    
O16   V4    S    
O9    V1    S    
C57   C61   A    
C37   O21   S    
C3    O13   A    
C59   C63   A    
C20   H11   S    
C74   H34   S    
O6    C2    A    
C25   C33   A    
C23   C27   A    
C75   H35   S    
O11   V3    S    
C30   C42   A    
C61   H25   S    
O12   V4    S    
C22   C26   A    
C8    C9    S    
C9    C17   A    
O10   C6    A    
C52   C56   A    
C15   H15   S    
O20   V2    S    
C75   O27   D    
C33   C34   A    
C73   H33   S    
C41   H1    S    
C52   H24   S    
C2    C56   S    
C12   C24   A    
C27   C31   A    
C39   O23   S    
C13   C17   A    
O24   H32   S    
C25   C29   A    
C37   C41   A    
C24   C28   A    
C50   C54   A    
C18   H9    S    
C28   C36   A    
C4    O14   A    
C73   O25   D    
C76   H36   S    
C55   C59   A    
C59   C75   S    
O4    V2    S    
C28   C32   A    
C58   C74   S    
