data_mof_unit_57288.cif
_audit_creation_date              2012-10-26T19:15:57-0400
_audit_creation_method            fapswitch 2.2
_symmetry_space_group_name_H-M    P1
_symmetry_Int_Tables_number       1
_space_group_crystal_system       triclinic
_cell_length_a                    7.791038
_cell_length_b                    9.089182
_cell_length_c                    17.086269
_cell_angle_alpha                 89.575809
_cell_angle_beta                  94.042541
_cell_angle_gamma                 90.093695
_cell_volume                      1206.90562138

loop_
_atom_site_label
_atom_site_type_symbol
_atom_type_description
_atom_site_fract_x
_atom_site_fract_y
_atom_site_fract_z
_atom_type_partial_charge
C1    C     C_R   0.499895 0.220053 0.499967 0.542243
C2    C     C_R   0.532904 0.404495 0.138889 -0.070594
C3    C     C_R   0.540656 0.471845 0.900699 0.198089
C4    C     C_R   0.459344 0.528177 0.099304 0.198093
C5    C     C_R   0.614477 0.361308 0.858033 -0.091920
C6    C     C_R   0.385602 0.638748 0.141974 -0.091915
C7    C     C_R   0.611769 0.369167 0.776217 -0.043140
C8    C     C_R   0.388314 0.630884 0.223790 -0.043134
C9    C     C_1   0.499882 0.065386 0.499988 -0.061832
C10   C     C_1   0.500117 0.934614 0.500012 -0.061834
C11   C     C_3   0.615253 0.258908 0.261019 -0.390659
C12   C     C_R   0.500104 0.779947 0.500032 0.542240
C13   C     C_3   0.384570 0.741031 0.738974 -0.390634
C14   C     C_3   0.686673 0.244027 0.732164 -0.384858
C15   C     C_3   0.313503 0.756057 0.267850 -0.384877
C16   C     C_R   0.521337 0.497559 0.650963 0.546431
C17   C     C_R   0.478663 0.502442 0.349037 0.546433
C18   C     C_R   0.533829 0.491698 0.736626 0.046520
C19   C     C_R   0.466170 0.508312 0.263375 0.046538
C20   C     C_R   0.462707 0.606222 0.779397 -0.048954
C21   C     C_R   0.537207 0.393755 0.220600 -0.048950
C22   C     C_R   0.467011 0.595487 0.861108 -0.070600
Cu1   Cu    Cu3+1 0.669080 0.500010 0.500000 1.001684
Cu2   Cu    Cu3+1 0.330920 0.499990 0.500000 1.001682
H1    H     H_    0.519979 0.206177 0.297708 0.131396
H2    H     H_    0.328324 0.732909 0.110880 0.121367
H3    H     H_    0.734402 0.154041 0.772290 0.119507
H4    H     H_    0.586819 0.197235 0.689829 0.132301
H5    H     H_    0.796629 0.284159 0.699990 0.164762
H6    H     H_    0.265820 0.846063 0.227728 0.119510
H7    H     H_    0.203534 0.715974 0.300032 0.164754
H8    H     H_    0.413399 0.802802 0.310181 0.132296
H9    H     H_    0.654690 0.176187 0.218264 0.119507
H10   H     H_    0.731244 0.290019 0.298719 0.165875
H11   H     H_    0.479804 0.793804 0.702279 0.131400
H12   H     H_    0.268591 0.709867 0.701280 0.165888
H13   H     H_    0.345090 0.823741 0.781726 0.119500
H14   H     H_    0.587641 0.316380 0.106380 0.139852
H15   H     H_    0.412205 0.683576 0.893612 0.139856
H16   H     H_    0.671818 0.267177 0.889132 0.121372
N1    N     N_1   0.076820 0.499970 0.500010 -0.083228
N2    N     N_1   0.923180 0.500030 0.499990 -0.083227
N3    N     N_2   0.543216 0.453646 0.983281 -0.252226
N4    N     N_2   0.456786 0.546378 0.016721 -0.252231
O1    O     O_R   0.642760 0.288400 0.500000 -0.500699
O2    O     O_R   0.357240 0.711600 0.500000 -0.500700
O3    O     O_R   0.357190 0.288380 0.500000 -0.493229
O4    O     O_R   0.642810 0.711620 0.500000 -0.493230
O5    O     O_R   0.658410 0.498660 0.613920 -0.504647
O6    O     O_R   0.341590 0.501340 0.386080 -0.504640
O7    O     O_R   0.372840 0.498650 0.613930 -0.503573
O8    O     O_R   0.627160 0.501350 0.386070 -0.503564

loop_
_geom_bond_atom_site_label_1
_geom_bond_atom_site_label_2
_ccdc_geom_bond_type
C17   O6    A    
C2    C4    A    
N3    N4    D    
C15   H7    S    
Cu1   O1    S    
C14   H3    S    
N1    N2    T    
C2    H14   S    
C13   H13   S    
C16   O7    A    
C12   O4    A    
Cu1   Cu2   S    
C7    C18   A    
C3    N3    S    
Cu2   O7    S    
Cu2   O2    S    
C15   H8    S    
Cu2   N1    S    
C1    O1    A    
Cu1   O8    S    
C6    H2    S    
Cu1   N2    S    
C10   C12   S    
C2    C21   A    
C22   H15   S    
C17   O8    A    
C4    C6    A    
C19   C21   A    
C20   C22   A    
C13   H11   S    
C8    C15   S    
C18   C20   A    
C7    C14   S    
Cu2   O6    S    
Cu1   O5    S    
C8    C19   A    
C11   H1    S    
C14   H5    S    
C14   H4    S    
C11   H9    S    
C1    C9    S    
C16   O5    A    
C15   H6    S    
C16   C18   S    
C9    C10   T    
C5    H16   S    
C5    C7    A    
C1    O3    A    
C3    C22   A    
C6    C8    A    
Cu1   O4    S    
C4    N4    S    
C13   C20   S    
C17   C19   S    
Cu2   O3    S    
C11   C21   S    
C11   H10   S    
C13   H12   S    
C3    C5    A    
C12   O2    A    
