data_mof_unit_33868.cif
_audit_creation_date              2012-12-10T16:43:25-0500
_audit_creation_method            fapswitch 2.2
_symmetry_space_group_name_H-M    P1
_symmetry_Int_Tables_number       1
_space_group_crystal_system       triclinic
_cell_length_a                    10.792849
_cell_length_b                    8.687738
_cell_length_c                    7.493165
_cell_angle_alpha                 102.94448
_cell_angle_beta                  93.079173
_cell_angle_gamma                 93.39723
_cell_volume                      681.91948025

loop_
_atom_site_label
_atom_site_type_symbol
_atom_type_description
_atom_site_fract_x
_atom_site_fract_y
_atom_site_fract_z
_atom_type_partial_charge
C1    C     C_R   0.494268 0.200016 0.453733 0.911343
C2    C     C_R   0.065402 0.541400 0.670091 0.100323
C3    C     C_R   0.125536 0.474713 0.510437 -0.134137
C4    C     C_R   0.054211 0.417610 0.345504 -0.222391
C5    C     C_R   0.928365 0.438342 0.332906 0.413964
C6    C     C_R   0.872923 0.526392 0.486975 -0.209786
C7    C     C_2   0.486763 0.031954 0.429272 -0.340902
C8    C     C_2   0.506949 0.968345 0.572792 -0.316988
C9    C     C_R   0.261681 0.488479 0.503127 0.824021
C10   C     C_R   0.503192 0.800025 0.546738 0.864824
C11   C     C_R   0.737797 0.509994 0.496369 0.828253
C12   C     C_R   0.112629 0.546620 0.851022 0.054070
C13   C     C_R   0.069622 0.656288 0.997056 -0.294624
C14   C     C_R   0.974023 0.749647 0.965143 -0.064834
C15   C     C_R   0.910392 0.721323 0.791017 0.031696
C16   C     C_R   0.948442 0.599794 0.647517 -0.086108
Cu1   Cu    Cu3+1 0.513920 0.517380 0.684380 0.986152
Cu2   Cu    Cu3+1 0.486080 0.482620 0.315620 0.979037
H1    H     H_    0.095992 0.354514 0.225343 0.175724
H2    H     H_    0.107667 0.666702 0.136376 0.149584
H3    H     H_    0.946399 0.839144 0.078432 0.199786
H4    H     H_    0.463252 0.960391 0.292189 0.155560
H5    H     H_    0.528030 0.040315 0.711003 0.198045
H6    H     H_    0.427001 0.354116 0.950774 0.238547
N1    N     N_2   0.465100 0.456430 0.038520 -0.265521
N2    N     N_2   0.534900 0.543570 0.961480 -0.203990
O1    O     O_R   0.509050 0.286130 0.619770 -0.580003
O2    O     O_R   0.485540 0.256780 0.308360 -0.578689
O3    O     O_R   0.331410 0.514680 0.655740 -0.586454
O4    O     O_R   0.307900 0.485330 0.344330 -0.622164
O5    O     O_R   0.514460 0.743220 0.691640 -0.614324
O6    O     O_R   0.490950 0.713870 0.380230 -0.603334
O7    O     O_R   0.692100 0.514670 0.655670 -0.581352
O8    O     O_R   0.668590 0.485320 0.344260 -0.532482
C17   C     C_2   0.588172 0.691019 0.064323 0.784442
H7    H     H_    0.543220 0.797583 0.056663 -0.000707
O9    O     O_2   0.690322 0.701458 0.145576 -0.601420
C18   C     C_2   0.181666 0.416855 0.895329 0.380697
H8    H     H_    0.226920 0.431576 0.029812 0.082859
O10   O     O_2   0.183683 0.289950 0.785376 -0.551769
C19   C     C_2   0.815247 0.829651 0.755845 0.414418
H9    H     H_    0.779955 0.826056 0.616586 0.048789
O11   O     O_2   0.777062 0.926539 0.881422 -0.524964
O12   O     O_3   0.862675 0.368906 0.169489 -0.673330
H10   H     H_    0.821569 0.454598 0.127376 0.368136

loop_
_geom_bond_atom_site_label_1
_geom_bond_atom_site_label_2
_ccdc_geom_bond_type
C1    O2    A    
Cu2   O4    S    
C2    C16   A    
C7    H4    S    
C19   O11   D    
C19   H9    S    
C17   H7    S    
C9    O3    A    
C2    C12   A    
C2    C3    A    
C7    C8    D    
C13   C14   A    
H6    N1    S    
C18   O10   D    
Cu2   O8    S    
C5    C6    A    
Cu2   N1    S    
Cu1   O7    S    
C9    O4    A    
C3    C9    S    
Cu1   N2    S    
C14   H3    S    
C17   O9    D    
C5    O12   S    
Cu1   Cu2   S    
C12   C18   S    
C18   H8    S    
Cu1   O5    S    
Cu2   O6    S    
C6    C16   A    
C3    C4    A    
Cu1   O1    S    
C10   O6    A    
N2    C17   S    
C11   O7    A    
C8    H5    S    
Cu2   O2    S    
C12   C13   A    
C15   C19   S    
C8    C10   S    
C6    C11   S    
C1    O1    A    
C14   C15   A    
C13   H2    S    
N1    N2    D    
C1    C7    S    
C4    H1    S    
C10   O5    A    
C11   O8    A    
O12   H10   S    
C15   C16   A    
C4    C5    A    
Cu1   O3    S    
