data_mof_unit_46397.cif
_audit_creation_date              2012-12-10T20:39:09-0500
_audit_creation_method            fapswitch 2.2
_symmetry_space_group_name_H-M    P1
_symmetry_Int_Tables_number       1
_space_group_crystal_system       triclinic
_cell_length_a                    18.923875
_cell_length_b                    10.689633
_cell_length_c                    9.898419
_cell_angle_alpha                 89.097645
_cell_angle_beta                  90.019183
_cell_angle_gamma                 91.158944
_cell_volume                      2001.68615874

loop_
_atom_site_label
_atom_site_type_symbol
_atom_type_description
_atom_site_fract_x
_atom_site_fract_y
_atom_site_fract_z
_atom_type_partial_charge
C1    C     C_R   0.507882 0.260712 0.499406 0.936901
C2    C     C_R   0.290484 0.529902 0.496766 -0.102980
C3    C     C_R   0.932481 0.612430 0.480685 0.280041
C4    C     C_R   0.074870 0.623087 0.479507 0.302341
C5    C     C_R   0.819862 0.595017 0.599379 -0.197549
C6    C     C_R   0.751194 0.549574 0.614157 -0.058283
C7    C     C_R   0.714124 0.503504 0.500346 -0.136747
C8    C     C_R   0.752693 0.479077 0.381271 0.171936
C9    C     C_R   0.823362 0.522424 0.367997 -0.059221
C10   C     C_R   0.856424 0.582884 0.478155 -0.026119
C11   C     C_R   0.544532 0.060298 0.605812 0.100557
C12   C     C_R   0.365319 0.503249 0.499727 0.920596
C13   C     C_R   0.527835 0.130753 0.491569 -0.220952
C14   C     C_R   0.528187 0.068200 0.365768 -0.079783
C15   C     C_R   0.507739 0.941461 0.367323 0.243323
C16   C     C_R   0.513808 0.873032 0.490754 -0.206426
C17   C     C_R   0.543403 0.932398 0.602302 -0.020061
C18   C     C_3   0.526491 0.919612 0.749305 -0.199459
C19   C     C_3   0.522632 0.061778 0.749864 -0.392672
C20   C     C_R   0.438494 0.487698 0.071060 0.103545
C21   C     C_R   0.556690 0.546131 0.069432 0.236816
C22   C     C_R   0.557415 0.540103 0.926284 -0.108320
C23   C     C_R   0.500371 0.740747 0.498086 0.891724
C24   C     C_R   0.437844 0.491221 0.930043 0.130564
C25   C     C_3   0.376118 0.400132 0.926134 -0.189419
C26   C     C_3   0.377887 0.397270 0.083015 -0.331984
C27   C     C_R   0.635643 0.495924 0.500322 0.876349
C28   C     C_R   0.263504 0.618112 0.584870 -0.177118
C29   C     C_R   0.193352 0.652511 0.574473 -0.134749
C30   C     C_R   0.150161 0.601264 0.473808 0.016369
C31   C     C_R   0.177502 0.513667 0.383582 0.192464
C32   C     C_R   0.247586 0.478679 0.396038 -0.173858
H1    H     H_    0.297012 0.661918 0.659968 0.192088
H2    H     H_    0.475255 0.870437 0.770702 0.179584
H3    H     H_    0.467029 0.089319 0.757663 0.217379
H4    H     H_    0.561470 0.111312 0.815370 0.249879
H5    H     H_    0.602071 0.576952 0.870855 0.162732
H6    H     H_    0.331635 0.441611 0.130319 0.219563
H7    H     H_    0.172470 0.718344 0.645620 0.178211
H8    H     H_    0.268251 0.409775 0.328630 0.192445
H9    H     H_    0.846842 0.633241 0.686793 0.171872
N1    N     N_R   0.038180 0.656480 0.367391 -0.119924
N2    N     N_R   0.967900 0.651865 0.368209 -0.153236
N3    N     N_R   0.969514 0.586181 0.594569 -0.136191
N4    N     N_R   0.039525 0.591472 0.594077 -0.137599
N5    N     N_R   0.499530 0.499140 0.142800 -0.155755
N6    N     N_R   0.499530 0.499180 0.857150 -0.150592
O1    O     O_R   0.500010 0.316790 0.614690 -0.595476
O2    O     O_R   0.500000 0.316760 0.385350 -0.649748
O3    O     O_R   0.398140 0.500000 0.614710 -0.620090
O4    O     O_R   0.398130 0.499970 0.385370 -0.596021
O5    O     O_R   0.500000 0.683240 0.614650 -0.644135
O6    O     O_R   0.499990 0.683210 0.385310 -0.573491
O7    O     O_R   0.601870 0.500030 0.614630 -0.599720
O8    O     O_R   0.601860 0.500000 0.385290 -0.592377
Zn1   Zn    Zn3+2 0.500000 0.500020 0.653130 0.979770
Zn2   Zn    Zn3+2 0.500000 0.499980 0.346870 1.009252
I1    I     I_    0.448650 0.874169 0.195626 -0.185884
C33   C     C_2   0.588245 0.866090 0.824670 0.529420
H10   H     H_    0.613403 0.783329 0.787091 0.021343
O9    O     O_2   0.610252 0.913659 0.928072 -0.472493
I2    I     I_    0.635785 0.666268 0.150773 -0.171516
C34   C     C_2   0.309718 0.459446 0.871076 0.507135
H11   H     H_    0.277166 0.411549 0.797062 0.124238
O10   O     O_2   0.291146 0.561431 0.910518 -0.573553
C35   C     C_2   0.395497 0.280148 0.859756 0.423705
H12   H     H_    0.446089 0.241011 0.884946 0.049783
O11   O     O_2   0.356011 0.227109 0.780485 -0.571204
C36   C     C_2   0.396724 0.275138 0.150308 0.510344
H13   H     H_    0.443530 0.226436 0.120104 0.051386
O12   O     O_2   0.359231 0.230036 0.239508 -0.543749
I3    I     I_    0.115903 0.420729 0.234598 -0.255221
C37   C     C_2   0.724957 0.537748 0.754083 0.459586
H14   H     H_    0.732562 0.614490 0.823510 0.074047
O13   O     O_2   0.700192 0.438142 0.796036 -0.515084
I4    I     I_    0.712811 0.344956 0.239970 -0.229279
C38   C     C_2   0.863695 0.496154 0.243492 0.499637
H15   H     H_    0.916575 0.459225 0.250306 0.089093
O14   O     O_2   0.838737 0.518356 0.132115 -0.504520
C39   C     C_2   0.555894 0.128483 0.238794 0.451261
H16   H     H_    0.572445 0.225453 0.234830 0.107417
O15   O     O_2   0.565399 0.068197 0.137117 -0.492139

loop_
_geom_bond_atom_site_label_1
_geom_bond_atom_site_label_2
_ccdc_geom_bond_type
C35   O11   D    
C34   O10   D    
C37   H14   S    
C2    C12   S    
C27   O7    A    
O2    Zn2   S    
C7    C8    A    
C38   H15   S    
C11   C19   S    
C20   C26   S    
C28   C29   A    
C19   H4    S    
C5    C6    A    
C27   O8    A    
C16   C17   A    
C15   C16   A    
C8    I4    S    
C7    C27   S    
C2    C32   A    
C18   C19   S    
C25   C34   S    
C36   O12   D    
C20   C24   A    
C8    C9    A    
O4    Zn2   S    
C14   C39   S    
C9    C10   A    
C22   N6    A    
C33   H10   S    
C21   C22   A    
C37   O13   D    
C23   O6    A    
C4    N4    A    
C38   O14   D    
O7    Zn1   S    
C3    N3    A    
C33   O9    D    
C24   C25   S    
C39   O15   D    
O6    Zn2   S    
C26   H6    S    
C25   C26   S    
C22   H5    S    
O3    Zn1   S    
C29   C30   A    
C31   C32   A    
C3    N2    A    
C29   H7    S    
C17   C18   S    
C9    C38   S    
C18   H2    S    
C21   I2    S    
C31   I3    S    
C28   H1    S    
C16   C23   S    
O8    Zn2   S    
N5    Zn2   S    
C15   I1    S    
C1    C13   S    
N1    N2    A    
C12   O4    A    
N3    N4    A    
C6    C37   S    
C21   N5    A    
O1    Zn1   S    
C5    H9    S    
C11   C17   A    
C24   N6    A    
C25   C35   S    
C39   H16   S    
C12   O3    A    
C1    O1    A    
C6    C7    A    
C5    C10   A    
C3    C10   S    
C19   H3    S    
C11   C13   A    
C23   O5    A    
C30   C31   A    
C4    N1    A    
C35   H12   S    
C32   H8    S    
C36   H13   S    
C20   N5    A    
C34   H11   S    
C18   C33   S    
C26   C36   S    
C14   C15   A    
C2    C28   A    
C13   C14   A    
C1    O2    A    
C4    C30   S    
O5    Zn1   S    
N6    Zn1   S    
