data_mof_unit_45910.cif
_audit_creation_date              2013-03-05T15:54:26-0500
_audit_creation_method            fapswitch 2.2
_symmetry_space_group_name_H-M    P1
_symmetry_Int_Tables_number       1
_space_group_crystal_system       triclinic
_cell_length_a                    15.740217
_cell_length_b                    10.699335
_cell_length_c                    9.910562
_cell_angle_alpha                 91.355252
_cell_angle_beta                  90.083587
_cell_angle_gamma                 91.789134
_cell_volume                      1667.75195959

loop_
_atom_site_label
_atom_site_type_symbol
_atom_site_description
_atom_site_fract_x
_atom_site_fract_y
_atom_site_fract_z
_atom_type_partial_charge
O1    O     O_R   0.500000 0.316780 0.614690 -0.657149
O2    O     O_R   0.499990 0.316750 0.385360 -0.599734
C1    C     C_R   0.510984 0.261576 0.498209 0.861381
O3    O     O_R   0.376780 0.500000 0.614650 -0.621739
O4    O     O_R   0.376770 0.499980 0.385310 -0.633968
C2    C     C_R   0.338069 0.499551 0.499887 0.875220
Zn1   Zn    Zn3+2 0.500010 0.500020 0.653130 1.044643
Zn2   Zn    Zn3+2 0.499990 0.499980 0.346870 1.008209
O5    O     O_R   0.500010 0.683250 0.614640 -0.518352
O6    O     O_R   0.500000 0.683220 0.385310 -0.637160
O7    O     O_R   0.623230 0.500020 0.614690 -0.578844
O8    O     O_R   0.623220 0.500000 0.385350 -0.588279
C3    C     C_R   0.494585 0.740431 0.502557 0.931210
C4    C     C_R   0.661948 0.500321 0.500124 0.888113
C5    C     C_3   0.969863 0.394191 0.553088 -0.258839
C6    C     C_3   0.025733 0.405869 0.425778 0.593184
H1    H     H_    0.943844 0.305779 0.595277 0.208136
C7    C     C_1   0.249285 0.500175 0.499736 -0.111348
C8    C     C_1   0.750787 0.500493 0.500395 -0.107384
C9    C     C_3   0.028426 0.493041 0.628038 -0.210467
C10   C     C_3   0.083359 0.502975 0.499851 -0.137782
C11   C     C_3   0.973356 0.600586 0.576397 -0.223827
C12   C     C_3   0.916778 0.501645 0.500983 -0.088322
C13   C     C_3   0.028941 0.607749 0.449053 0.179236
C14   C     C_3   0.971517 0.511512 0.374037 0.573688
C15   C     C_1   0.174103 0.501267 0.499714 0.135680
C16   C     C_1   0.826018 0.500876 0.500688 0.117746
H2    H     H_    0.950495 0.681247 0.637173 0.212363
H3    H     H_    0.053460 0.485351 0.732196 0.214790
C17   C     C_R   0.585238 0.127609 0.725894 -0.254033
H4    H     H_    0.619638 0.215903 0.714080 0.199882
C18   C     C_R   0.587277 0.071626 0.851030 0.656076
C19   C     C_R   0.540486 0.961220 0.870968 -0.224813
H5    H     H_    0.535968 0.922558 0.970704 0.219863
C20   C     C_R   0.498684 0.900614 0.762463 0.613702
C21   C     C_R   0.509215 0.945832 0.629487 -0.054561
C22   C     C_R   0.541102 0.068500 0.616477 -0.101362
C23   C     C_R   0.527194 0.129104 0.494226 -0.147508
C24   C     C_R   0.510433 0.059153 0.374714 0.297146
H6    H     H_    0.480855 0.880217 0.290469 0.209864
C25   C     C_R   0.491739 0.933499 0.383622 -0.249013
C26   C     C_R   0.491855 0.875369 0.508391 -0.121082
H7    H     H_    0.596481 0.639170 0.129200 0.183632
C27   C     C_R   0.387308 0.338119 0.136162 -0.041106
H8    H     H_    0.385143 0.330849 0.243010 0.188573
C28   C     C_R   0.330810 0.259333 0.064124 -0.083479
H9    H     H_    0.287494 0.197185 0.117150 0.184098
C29   C     C_R   0.330901 0.258691 0.924485 -0.163637
H10   H     H_    0.287403 0.196397 0.868625 0.173004
C30   C     C_R   0.386999 0.337549 0.856053 -0.107057
H11   H     H_    0.383246 0.330998 0.748973 0.200961
C31   C     C_R   0.444381 0.420004 0.925687 0.063316
C32   C     C_R   0.444463 0.420125 0.070283 0.156644
N1    N     N_R   0.499210 0.498800 0.142780 -0.146127
C33   C     C_R   0.553134 0.576563 0.073637 -0.172217
C34   C     C_R   0.553230 0.576506 0.930503 0.716812
N2    N     N_R   0.499180 0.498720 0.857170 -0.160569
F1    F     F_    0.054050 0.306691 0.347936 -0.596851
F2    F     F_    0.440860 0.808491 0.791676 -0.629025
F3    F     F_    0.607822 0.654787 0.865593 -0.639265
F4    F     F_    0.941188 0.521423 0.243836 -0.581357
N3    N     N_R   0.059823 0.724495 0.391094 0.253071
O9    O     O_R   0.005855 0.805775 0.351818 -0.294610
O10   O     O_R   0.140885 0.748423 0.378479 -0.350948
N4    N     N_R   0.518011 0.111906 0.243265 0.217546
O11   O     O_R   0.466576 0.074059 0.146833 -0.423371
O12   O     O_R   0.585166 0.179771 0.213698 -0.285702
F5    F     F_    0.631417 0.127800 0.954241 -0.576905

loop_
_geom_bond_atom_site_label_1
_geom_bond_atom_site_label_2
_geom_bond_distance
_ccdc_geom_bond_type
C11   H2    1.110189 S    
O4    Zn2   1.977114 S    
C30   C31   1.410662 A    
C33   C34   1.418527 A    
C13   C14   1.527623 S    
C5    H1    1.110129 S    
C6    C10   1.531079 S    
C12   C16   1.428349 S    
C8    C16   1.184023 T    
C25   C26   1.397240 A    
N1    C33   1.366312 A    
C3    C26   1.445521 S    
C20   C21   1.422707 A    
C7    C15   1.183805 T    
C18   F5    1.353879 S    
Zn2   O8    1.976249 S    
C20   F2    1.357201 S    
C18   C19   1.390694 A    
N3    O9    1.300221 A    
C5    C12   1.540587 S    
C19   H5    1.082074 S    
C6    F1    1.382622 S    
C24   C25   1.372159 A    
C14   F4    1.382764 S    
C32   N1    1.375381 A    
C31   C32   1.432996 A    
C17   C18   1.390705 A    
C29   C30   1.390615 A    
C24   N4    1.435597 S    
C22   C23   1.407668 A    
C21   C22   1.399348 A    
O3    Zn1   1.976249 S    
O4    C2    1.289417 A    
C27   C32   1.408888 A    
C11   C13   1.538754 S    
H7    C33   1.081837 S    
H6    C25   1.084049 S    
C19   C20   1.395730 A    
C10   C15   1.429028 S    
O8    C4    1.289620 A    
Zn1   O7    1.977115 S    
O2    C1    1.290848 A    
C9    H3    1.110157 S    
C12   C14   1.529749 S    
C17   H4    1.082967 S    
C2    C7    1.397706 S    
O7    C4    1.289438 A    
C28   C29   1.383758 A    
O3    C2    1.289350 A    
N4    O12   1.301329 A    
C31   N2    1.377605 A    
C9    C11   1.557615 S    
C5    C6    1.544251 S    
Zn1   O5    2.006041 S    
C23   C24   1.406222 A    
C9    C10   1.541654 S    
C17   C22   1.412934 A    
Zn2   O6    1.988346 S    
N4    O11   1.300669 A    
C10   C13   1.526160 S    
Zn2   N1    2.022403 S    
C6    C14   1.534650 S    
C34   N2    1.367487 A    
O5    C3    1.284760 A    
C13   N3    1.457165 S    
C29   H10   1.082784 S    
O1    Zn1   1.988347 S    
N3    O10   1.300300 A    
C30   H11   1.063309 S    
C28   H9    1.082795 S    
C21   C26   1.423633 A    
C4    C8    1.398286 S    
Zn1   N2    2.022587 S    
C11   C12   1.540807 S    
O2    Zn2   2.006042 S    
C27   H8    1.064130 S    
C34   F3    1.354939 S    
C1    C23   1.447599 S    
C27   C28   1.390687 A    
C5    C9    1.555642 S    
O1    C1    1.298495 A    
O6    C3    1.304631 A    
