data_mof_unit_30667.cif
_audit_creation_date              2012-12-11T15:39:33-0500
_audit_creation_method            fapswitch 2.2
_symmetry_space_group_name_H-M    P1
_symmetry_Int_Tables_number       1
_space_group_crystal_system       triclinic
_cell_length_a                    14.33227
_cell_length_b                    14.791598
_cell_length_c                    33.202752
_cell_angle_alpha                 97.585695
_cell_angle_beta                  90.335787
_cell_angle_gamma                 118.900172
_cell_volume                      6088.64817579

loop_
_atom_site_label
_atom_site_type_symbol
_atom_type_description
_atom_site_fract_x
_atom_site_fract_y
_atom_site_fract_z
_atom_type_partial_charge
C1    C     C_R   0.617203 0.909833 0.437216 0.543792
C2    C     C_R   0.711853 0.436872 0.949293 0.526383
C3    C     C_R   0.765690 0.813117 0.763588 -0.117608
C4    C     C_R   0.757646 0.833264 0.724393 -0.115249
C5    C     C_R   0.679148 0.756158 0.695125 0.033385
C6    C     C_R   0.610063 0.657307 0.705718 -0.113244
C7    C     C_R   0.618134 0.637041 0.745208 -0.115592
C8    C     C_R   0.695704 0.715200 0.774547 0.028183
C9    C     C_R   0.561169 0.751933 0.638653 -0.126074
C10   C     C_R   0.546751 0.789298 0.604168 -0.139947
C11   C     C_R   0.739182 0.887517 0.600676 -0.018197
C12   C     C_3   0.231645 0.741393 0.185612 -0.252169
C13   C     C_R   0.743139 0.716550 0.945939 0.566538
C14   C     C_3   0.260964 0.670160 0.156960 -0.308545
C15   C     C_3   0.308116 0.618886 0.181202 -0.458392
C16   C     C_1   0.866428 0.381230 0.824201 0.181469
C17   C     C_3   0.483381 0.295200 0.906039 -0.239474
C18   C     C_3   0.462543 0.215710 0.934970 -0.279481
C19   C     C_3   0.359917 0.188895 0.955989 -0.444572
C20   C     C_3   0.809097 0.263865 0.301244 -0.253080
C21   C     C_3   0.842218 0.203900 0.268354 -0.312622
C22   C     C_3   0.864809 0.126236 0.286399 -0.452203
C23   C     C_3   0.294548 0.756903 0.784143 -0.257292
C24   C     C_R   0.836702 0.447869 0.165823 -0.121075
C25   C     C_3   0.388623 0.852923 0.809222 -0.289280
C26   C     C_3   0.469521 0.825196 0.825933 -0.446270
C27   C     C_1   0.205828 0.986432 0.854235 0.168294
C28   C     C_1   0.833093 0.954802 0.581605 0.208776
C29   C     C_R   0.831247 0.457525 0.124782 -0.124937
C30   C     C_R   0.790430 0.362175 0.246501 -0.095287
C31   C     C_R   0.782871 0.343752 0.287238 0.014978
C32   C     C_R   0.744020 0.397366 0.314889 0.025631
C33   C     C_R   0.719324 0.470315 0.301917 -0.127554
C34   C     C_R   0.726397 0.486432 0.261519 -0.122068
C35   C     C_R   0.758651 0.430021 0.233329 0.013248
C36   C     C_R   0.752227 0.436511 0.189595 0.031527
C37   C     C_R   0.600907 0.317502 0.360942 -0.123692
C38   C     C_R   0.593850 0.205417 0.456585 0.540991
C39   C     C_R   0.563849 0.271114 0.395533 -0.125034
C40   C     C_R   0.745691 0.323546 0.419418 -0.127591
C41   C     C_R   0.783017 0.372294 0.385162 -0.125161
C42   C     C_R   0.710182 0.365055 0.354835 0.021444
C43   C     C_R   0.635514 0.270275 0.424245 0.024606
C44   C     C_R   0.241485 0.877272 0.394038 0.020162
C45   C     C_R   0.226163 0.957494 0.382155 -0.129220
C46   C     C_R   0.198098 0.954356 0.341437 -0.116915
C47   C     C_R   0.752914 0.848879 0.635263 -0.121370
C48   C     C_R   0.184287 0.870796 0.312236 0.040722
C49   C     C_R   0.192556 0.787453 0.324148 -0.114703
C50   C     C_R   0.295158 0.892698 0.434513 0.541617
C51   C     C_R   0.220746 0.790421 0.364838 -0.129721
C52   C     C_R   0.183535 0.797748 0.165208 0.015150
C53   C     C_R   0.160084 0.780434 0.122710 -0.106188
C54   C     C_R   0.088734 0.900039 0.129787 -0.135897
C55   C     C_R   0.112465 0.918956 0.171875 -0.125912
C56   C     C_R   0.155783 0.865483 0.189764 0.038782
C57   C     C_1   0.163951 0.873687 0.233504 -0.040743
C58   C     C_R   0.664286 0.783215 0.655123 0.018700
C59   C     C_1   0.171424 0.874194 0.269659 -0.036966
C60   C     C_R   0.107759 0.826933 0.105075 0.003036
C61   C     C_R   0.639100 0.875062 0.396468 0.021268
C62   C     C_R   0.614012 0.904717 0.551486 0.543128
C63   C     C_R   0.553467 0.802895 0.368268 -0.130154
C64   C     C_R   0.570001 0.787611 0.327165 -0.117451
C65   C     C_R   0.672309 0.842854 0.313986 0.033888
C66   C     C_R   0.759466 0.907971 0.342316 -0.123811
C67   C     C_R   0.742912 0.924702 0.383397 -0.125126
C68   C     C_R   0.787898 0.914943 0.176110 -0.115939
C69   C     C_R   0.634985 0.859606 0.585360 0.005995
C70   C     C_R   0.798283 0.904635 0.134176 -0.129148
C71   C     C_R   0.625813 0.746612 0.123977 -0.126207
C72   C     C_R   0.615907 0.756948 0.165805 -0.115889
C73   C     C_R   0.698216 0.839191 0.191999 0.040875
C74   C     C_R   0.589657 0.199405 0.570863 0.540509
C75   C     C_1   0.692438 0.841585 0.235155 -0.036777
C76   C     C_1   0.685015 0.841505 0.271183 -0.041640
C77   C     C_R   0.719185 0.817876 0.107908 0.020753
C78   C     C_R   0.622493 0.249636 0.613756 0.018693
C79   C     C_R   0.556768 0.280262 0.636233 -0.126002
C80   C     C_R   0.051723 0.781031 0.063952 0.541912
C81   C     C_R   0.572333 0.303265 0.678657 -0.115595
C82   C     C_R   0.653830 0.296334 0.698938 0.038989
C83   C     C_R   0.724426 0.273506 0.676757 -0.110080
C84   C     C_R   0.709198 0.250639 0.634322 -0.129084
C85   C     C_R   0.770763 0.360540 0.844540 -0.003173
C86   C     C_R   0.289117 0.886760 0.548590 0.543885
C87   C     C_R   0.778733 0.386133 0.886778 -0.148868
C88   C     C_R   0.586756 0.323701 0.885827 -0.007591
C89   C     C_R   0.580166 0.298509 0.843170 -0.116552
C90   C     C_R   0.671838 0.321203 0.822554 0.011373
C91   C     C_R   0.744536 0.487943 0.066538 0.543891
C92   C     C_1   0.664486 0.310782 0.778867 -0.015049
C93   C     C_1   0.660016 0.304829 0.742418 -0.017364
C94   C     C_R   0.689451 0.375385 0.907767 0.011410
C95   C     C_R   0.073558 0.756921 0.909710 0.000605
C96   C     C_R   0.124601 0.859911 0.901412 -0.146487
C97   C     C_R   0.155921 0.880146 0.862368 -0.011766
C98   C     C_R   0.741060 0.455763 0.106878 0.020426
C99   C     C_R   0.134893 0.796277 0.831354 0.003074
C100  C     C_R   0.087286 0.694150 0.840294 -0.137954
C101  C     C_R   0.058396 0.674714 0.879335 -0.126517
C102  C     C_R   0.743478 0.788896 0.066681 0.552431
C103  C     C_R   0.217553 0.785554 0.765324 0.013348
C104  C     C_R   0.216449 0.789621 0.723488 -0.101441
C105  C     C_R   0.150046 0.820068 0.704957 0.015805
C106  C     C_R   0.085131 0.848572 0.728328 -0.115499
C107  C     C_R   0.083982 0.843391 0.769788 -0.104144
C108  C     C_R   0.148656 0.811066 0.788493 0.044063
C109  C     C_R   0.184553 0.924659 0.648879 -0.116406
C110  C     C_R   0.654472 0.439165 0.130305 -0.125354
C111  C     C_R   0.219174 0.941403 0.610079 -0.120982
C112  C     C_R   0.183842 0.762065 0.595048 -0.128686
C113  C     C_R   0.022606 0.732718 0.947742 0.529891
C114  C     C_R   0.149829 0.745650 0.633797 -0.123467
C115  C     C_R   0.155743 0.828508 0.661558 0.028715
C116  C     C_R   0.225017 0.861896 0.583855 0.021727
C117  C     C_R   0.724980 0.701671 0.901433 0.019375
C118  C     C_R   0.622723 0.650819 0.880739 -0.123602
C119  C     C_R   0.612034 0.650023 0.838636 -0.121601
C120  C     C_R   0.703531 0.698156 0.817026 0.031719
C121  C     C_R   0.804845 0.740722 0.837552 -0.113004
C122  C     C_R   0.660187 0.429911 0.171316 -0.118986
C123  C     C_R   0.815305 0.744046 0.879281 -0.127488
Cr1   Cr    Cr6+3 0.424820 0.846020 0.489780 1.011132
Cr2   Cr    Cr6+3 0.657880 0.078580 0.505700 1.031293
Cr3   Cr    Cr6+3 0.417280 0.075360 0.504550 1.016389
Cr4   Cr    Cr6+3 0.903360 0.812540 0.006510 1.005190
Cr5   Cr    Cr6+3 0.914630 0.587050 0.006280 1.002846
Cr6   Cr    Cr6+3 0.673560 0.582680 0.008540 1.000510
H1    H     H_    0.584043 0.437727 0.117462 0.126223
H2    H     H_    0.047847 0.936438 0.117093 0.126987
H3    H     H_    0.899644 0.471020 0.107618 0.126110
H4    H     H_    0.191855 0.019195 0.332486 0.104457
H5    H     H_    0.871474 0.960275 0.122799 0.119862
H6    H     H_    0.852036 0.979030 0.196175 0.098873
H7    H     H_    0.839174 0.950268 0.332365 0.108414
H8    H     H_    0.810319 0.980256 0.404519 0.130273
H9    H     H_    0.472531 0.763799 0.377376 0.126999
H10   H     H_    0.546493 0.697846 0.177876 0.101709
H11   H     H_    0.563568 0.678864 0.104588 0.120669
H12   H     H_    0.478508 0.230430 0.398518 0.125758
H13   H     H_    0.502121 0.736897 0.305399 0.103734
H14   H     H_    0.857355 0.422186 0.902831 0.134899
H15   H     H_    0.867998 0.411850 0.381545 0.104804
H16   H     H_    0.788136 0.268618 0.692326 0.124593
H17   H     H_    0.761150 0.227320 0.617933 0.135781
H18   H     H_    0.489495 0.280461 0.621304 0.128487
H19   H     H_    0.503648 0.264344 0.825637 0.122636
H20   H     H_    0.517832 0.321679 0.695693 0.106427
H21   H     H_    0.136506 0.923695 0.924908 0.117209
H22   H     H_    0.017527 0.594555 0.884989 0.137887
H23   H     H_    0.908375 0.452933 0.179335 0.100329
H24   H     H_    0.126142 0.670503 0.643127 0.110465
H25   H     H_    0.269577 0.771559 0.705291 0.103077
H26   H     H_    0.034549 0.873454 0.714392 0.110113
H27   H     H_    0.031374 0.863446 0.787314 0.106355
H28   H     H_    0.189270 0.989302 0.670081 0.112326
H29   H     H_    0.249514 0.018817 0.602011 0.131950
H30   H     H_    0.067911 0.628767 0.816479 0.141628
H31   H     H_    0.185547 0.698817 0.575100 0.128673
H32   H     H_    0.551794 0.616760 0.897253 0.121762
H33   H     H_    0.815324 0.320077 0.224039 0.099402
H34   H     H_    0.802450 0.325055 0.441544 0.118754
H35   H     H_    0.894697 0.782889 0.894497 0.134647
H36   H     H_    0.833070 0.871613 0.647201 0.107898
H37   H     H_    0.810198 0.910905 0.717545 0.106478
H38   H     H_    0.824783 0.875766 0.785786 0.107614
H39   H     H_    0.532821 0.616749 0.823471 0.101911
H40   H     H_    0.549246 0.596159 0.683596 0.102660
H41   H     H_    0.563922 0.560682 0.752823 0.103339
H42   H     H_    0.491457 0.702658 0.653590 0.104846
H43   H     H_    0.465830 0.766481 0.593286 0.135818
H44   H     H_    0.876508 0.775587 0.821582 0.107001
H45   H     H_    0.175557 0.725446 0.103205 0.121678
H46   H     H_    0.593065 0.418765 0.188931 0.104049
H47   H     H_    0.689169 0.511022 0.322790 0.116581
H48   H     H_    0.703306 0.540569 0.251951 0.114685
H49   H     H_    0.543648 0.311680 0.337880 0.109949
H50   H     H_    0.379021 0.679314 0.201294 0.150468
H51   H     H_    0.247596 0.566854 0.200245 0.147093
H52   H     H_    0.332955 0.571398 0.159918 0.137894
H53   H     H_    0.188327 0.607252 0.138346 0.157286
H54   H     H_    0.320903 0.716850 0.136449 0.164035
H55   H     H_    0.305243 0.801528 0.204566 0.150978
H56   H     H_    0.182036 0.722405 0.301661 0.102362
H57   H     H_    0.173618 0.693193 0.206357 0.145923
H58   H     H_    0.366429 0.260002 0.974736 0.154404
H59   H     H_    0.290290 0.155445 0.933102 0.171792
H60   H     H_    0.346344 0.130310 0.976234 0.140038
H61   H     H_    0.455329 0.142934 0.917361 0.168387
H62   H     H_    0.529998 0.247272 0.958743 0.172319
H63   H     H_    0.483492 0.365957 0.921957 0.173084
H64   H     H_    0.414566 0.259771 0.882641 0.159290
H65   H     H_    0.930097 0.167363 0.311235 0.147388
H66   H     H_    0.791476 0.068656 0.298712 0.170267
H67   H     H_    0.232243 0.727692 0.372909 0.122478
H68   H     H_    0.889404 0.084129 0.262442 0.138663
H69   H     H_    0.776828 0.159899 0.243625 0.166559
H70   H     H_    0.915920 0.259468 0.255394 0.154181
H71   H     H_    0.875936 0.305274 0.325418 0.139655
H72   H     H_    0.737830 0.205802 0.314647 0.161953
H73   H     H_    0.431042 0.764532 0.845944 0.155779
H74   H     H_    0.502745 0.795706 0.800562 0.160601
H75   H     H_    0.536336 0.895906 0.844083 0.153663
H76   H     H_    0.429443 0.914506 0.789714 0.172388
H77   H     H_    0.359325 0.885018 0.835183 0.177083
H78   H     H_    0.241608 0.025558 0.403853 0.124999
H79   H     H_    0.252648 0.695292 0.803382 0.148891
H80   H     H_    0.326872 0.723157 0.759808 0.133587
H81   H     H_    0.091486 0.971047 0.190723 0.107547
N1    N     N_1   0.942993 0.397775 0.807904 -0.328703
N2    N     N_1   0.245608 0.071391 0.847466 -0.343151
N3    N     N_1   0.908465 0.008682 0.566351 -0.300961
O1    O     O_R   0.318160 0.824460 0.443680 -0.521095
O2    O     O_R   0.668160 0.499860 0.053480 -0.519581
O3    O     O_R   0.689170 0.693840 0.050110 -0.495738
O4    O     O_R   0.525040 0.857250 0.449830 -0.503577
O5    O     O_R   0.803860 0.812940 0.962540 -0.506022
O6    O     O_R   0.982950 0.787950 0.964120 -0.526657
O7    O     O_R   0.007050 0.649970 0.960540 -0.515290
O8    O     O_R   0.807910 0.482370 0.965590 -0.505829
O9    O     O_R   0.643310 0.460980 0.963840 -0.527984
O10   O     O_R   0.666140 0.657800 0.967020 -0.502374
O11   O     O_3   0.830520 0.660760 0.007110 -0.258249
O12   O     O_R   0.645130 0.163230 0.552140 -0.502226
O13   O     O_R   0.684760 0.998800 0.456360 -0.510472
O14   O     O_R   0.647540 0.166310 0.470260 -0.499369
O15   O     O_R   0.500960 0.181750 0.467450 -0.518346
O16   O     O_R   0.331100 0.981120 0.457080 -0.501119
O17   O     O_R   0.315560 0.821140 0.532010 -0.522530
O18   O     O_R   0.522630 0.854180 0.531710 -0.504100
O19   O     O_R   0.682160 0.995480 0.544690 -0.495986
O20   O     O_R   0.498360 0.178430 0.555780 -0.518061
O21   O     O_R   0.328690 0.978040 0.538950 -0.498989
O22   O     O_3   0.499990 0.999990 0.500010 -0.238947
O23   O     O_R   0.828710 0.851830 0.052170 -0.515306
O24   O     O_R   0.005980 0.823990 0.047210 -0.500280
O25   O     O_R   0.031900 0.688850 0.050170 -0.517211
O26   O     O_R   0.830940 0.518420 0.048680 -0.497978

loop_
_geom_bond_atom_site_label_1
_geom_bond_atom_site_label_2
_ccdc_geom_bond_type
C1    O13   A    
C89   H19   S    
C55   C56   A    
C118  H32   S    
C102  O23   A    
C98   C110  A    
C15   H50   S    
C23   H79   S    
C17   C88   S    
C41   C42   A    
C22   H68   S    
C17   H64   S    
C95   C96   A    
C100  C101  A    
C71   C77   A    
C21   H69   S    
Cr6   O10   S    
Cr2   O19   S    
C109  H28   S    
Cr5   O11   S    
C112  C114  A    
C114  C115  A    
Cr4   O6    S    
C7    C8    A    
C12   H55   S    
Cr1   O1    S    
C45   C46   A    
C120  C121  A    
Cr5   O26   S    
C54   H2    S    
Cr4   O23   S    
C24   C36   A    
C65   C76   S    
C5    C58   S    
C83   C84   A    
Cr2   O22   S    
C38   O15   A    
C26   H73   S    
C111  H29   S    
C21   H70   S    
C20   H72   S    
C18   C19   S    
C74   O12   A    
C51   H67   S    
C109  C111  A    
C30   C31   A    
C47   H36   S    
C25   H76   S    
C13   C117  S    
C57   C59   T    
C29   H3    S    
C47   C58   A    
C106  C107  A    
C50   O1    A    
Cr5   O25   S    
C122  H46   S    
C87   C94   A    
C2    O9    A    
C56   C57   S    
C50   O16   A    
C86   C116  S    
C9    C58   A    
C80   O25   A    
C37   C42   A    
C61   C63   A    
C33   H47   S    
C24   C29   A    
C27   N2    T    
C91   O2    A    
C24   H23   S    
C19   H58   S    
C83   H16   S    
Cr1   O22   S    
C11   C47   A    
C72   H10   S    
C23   C103  S    
C39   H12   S    
C121  H44   S    
C49   C51   A    
C48   C49   A    
C107  C108  A    
C111  C116  A    
C13   O5    A    
C112  H31   S    
C9    C10   A    
Cr5   O7    S    
C113  O7    A    
C107  H27   S    
C23   C25   S    
C66   C67   A    
C12   H57   S    
C45   H78   S    
C82   C93   S    
C15   H51   S    
C118  C119  A    
C70   C77   A    
C73   C75   S    
C77   C102  S    
C13   O10   A    
Cr6   O11   S    
Cr2   O12   S    
C104  C105  A    
C12   C52   S    
C53   C60   A    
C53   H45   S    
C14   H54   S    
C6    C7    A    
C88   C94   A    
C85   C87   A    
C17   H63   S    
C26   H75   S    
C46   C48   A    
C18   H62   S    
C25   H77   S    
C3    H38   S    
C86   O17   A    
C2    C94   S    
Cr3   O16   S    
C40   H34   S    
C27   C97   S    
C3    C8    A    
C97   C99   A    
C29   C98   A    
C79   C81   A    
C109  C115  A    
C78   C79   A    
C72   C73   A    
C39   C43   A    
C23   H80   S    
C68   C73   A    
C101  H22   S    
C2    O8    A    
C81   C82   A    
C3    C4    A    
C62   C69   S    
C35   C36   S    
C80   O24   A    
Cr6   O2    S    
C36   C122  A    
C75   C76   T    
C99   C108  S    
C78   C84   A    
C19   H59   S    
C61   C67   A    
C90   C92   S    
C31   C32   A    
C34   C35   A    
C96   H21   S    
C96   C97   A    
C40   C43   A    
C17   C18   S    
C119  C120  A    
C86   O21   A    
C88   C89   A    
C74   O20   A    
Cr3   O22   S    
C37   H49   S    
C103  C108  A    
Cr4   O11   S    
C41   H15   S    
C66   H7    S    
C30   C35   A    
C44   C51   A    
C102  O3    A    
C40   C41   A    
C19   H60   S    
C62   O18   A    
C62   O19   A    
C82   C83   A    
C16   C85   S    
C20   C31   S    
C63   H9    S    
C22   H66   S    
C9    H42   S    
C30   H33   S    
Cr2   O13   S    
C112  C116  A    
C52   C53   A    
C8    C120  S    
C48   C59   S    
C18   H61   S    
C44   C50   S    
C28   N3    T    
C4    H37   S    
C54   C55   A    
C60   C80   S    
C114  H24   S    
C105  C115  S    
C68   H6    S    
Cr3   O15   S    
C44   C45   A    
C12   C14   S    
C4    C5    A    
C14   H53   S    
C1    C61   S    
Cr5   O8    S    
Cr2   O14   S    
C79   H18   S    
C85   C90   A    
C11   C69   A    
Cr4   O24   S    
C71   H11   S    
C84   H17   S    
C105  C106  A    
C99   C100  A    
C54   C60   A    
C87   H14   S    
C32   C33   A    
Cr6   O3    S    
C26   H74   S    
C25   C26   S    
C38   C43   S    
C37   C39   A    
Cr6   O9    S    
C117  C118  A    
C110  C122  A    
C46   H4    S    
C123  H35   S    
C100  H30   S    
C5    C6    A    
C64   H13   S    
C11   C28   S    
C95   C113  S    
C81   H20   S    
C15   H52   S    
C64   C65   A    
C92   C93   T    
Cr3   O20   S    
C33   C34   A    
C110  H1    S    
C16   N1    T    
C65   C66   A    
C91   C98   S    
C117  C123  A    
Cr3   O21   S    
C121  C123  A    
Cr1   O18   S    
Cr1   O4    S    
C63   C64   A    
C10   C69   A    
C95   C101  A    
C71   C72   A    
C49   H56   S    
C20   C21   S    
C68   C70   A    
C106  H26   S    
C74   C78   S    
C7    H41   S    
C91   O26   A    
C103  C104  A    
C70   H5    S    
C32   C42   S    
C14   C15   S    
C22   H65   S    
C34   H48   S    
C1    O4    A    
C104  H25   S    
C89   C90   A    
C21   C22   S    
C67   H8    S    
C10   H43   S    
C119  H39   S    
C113  O6    A    
C20   H71   S    
Cr1   O17   S    
C52   C56   A    
Cr4   O5    S    
C38   O14   A    
C55   H81   S    
C6    H40   S    
