data_mof_unit_32823.cif
_audit_creation_date              2012-12-10T19:18:34-0500
_audit_creation_method            fapswitch 2.2
_symmetry_space_group_name_H-M    P1
_symmetry_Int_Tables_number       1
_space_group_crystal_system       triclinic
_cell_length_a                    15.752083
_cell_length_b                    14.983981
_cell_length_c                    10.55382
_cell_angle_alpha                 89.595682
_cell_angle_beta                  88.685965
_cell_angle_gamma                 90.206285
_cell_volume                      2490.27193658

loop_
_atom_site_label
_atom_site_type_symbol
_atom_type_description
_atom_site_fract_x
_atom_site_fract_y
_atom_site_fract_z
_atom_type_partial_charge
C1    C     C_R   0.337822 0.499887 0.498653 0.917230
C2    C     C_3   0.501338 0.501247 0.122475 -0.132112
C3    C     C_3   0.048238 0.586480 0.537961 -0.490469
C4    C     C_3   0.046402 0.418779 0.547177 -0.475411
C5    C     C_3   0.949036 0.417900 0.544451 -0.408309
C6    C     C_3   0.950488 0.586255 0.538983 -0.424424
C7    C     C_1   0.750882 0.500765 0.487362 -0.189964
C8    C     C_3   0.082448 0.500993 0.473020 0.243120
C9    C     C_3   0.917389 0.501346 0.473636 0.289942
C10   C     C_3   0.952001 0.498808 0.335001 -0.537632
C11   C     C_3   0.053170 0.498776 0.331703 1.025048
C12   C     C_1   0.826016 0.501289 0.478512 -0.087095
C13   C     C_1   0.174054 0.500173 0.480427 -0.000538
C14   C     C_R   0.500940 0.500410 0.256965 0.933923
C15   C     C_1   0.249116 0.499809 0.488972 -0.144479
C16   C     C_3   0.421759 0.051642 0.433041 -0.419208
C17   C     C_3   0.420252 0.947438 0.439638 -0.403777
C18   C     C_3   0.501714 0.051708 0.633522 -0.380606
C19   C     C_3   0.507709 0.947805 0.633177 -0.398912
C20   C     C_3   0.502140 0.090061 0.496446 0.220646
C21   C     C_3   0.503608 0.909908 0.496240 0.214235
C22   C     C_3   0.579318 0.948542 0.411774 -0.150979
C23   C     C_3   0.581676 0.054430 0.420117 -0.147054
C24   C     C_1   0.500214 0.809219 0.496692 0.005403
C25   C     C_1   0.499611 0.190778 0.497030 0.009612
C26   C     C_R   0.662216 0.500188 0.498036 0.895304
C27   C     C_R   0.500739 0.499568 0.743322 0.912750
C28   C     C_3   0.474026 0.579151 0.039209 0.525290
C29   C     C_3   0.449616 0.435963 0.044916 0.521960
C30   C     C_3   0.420376 0.514252 0.962487 -0.179490
C31   C     C_3   0.500002 0.498374 0.877958 -0.148752
C32   C     C_3   0.553600 0.564332 0.954249 -0.225293
C33   C     C_3   0.528592 0.418753 0.960082 -0.228057
C34   C     C_3   0.580735 0.485126 0.039188 -0.301985
H1    H     H_    0.921516 0.552540 0.280247 0.146513
H2    H     H_    0.928434 0.436412 0.290908 0.169352
H3    H     H_    0.364618 0.925072 0.498738 0.176868
H4    H     H_    0.363462 0.078072 0.480829 0.175152
H5    H     H_    0.553669 0.081039 0.689102 0.157843
H6    H     H_    0.566284 0.926976 0.680711 0.145189
H7    H     H_    0.441832 0.071526 0.683659 0.161154
H8    H     H_    0.454238 0.919820 0.691867 0.161117
H9    H     H_    0.573228 0.078233 0.320846 0.096232
H10   H     H_    0.559977 0.933229 0.313156 0.115973
H11   H     H_    0.420093 0.073831 0.332285 0.164196
H12   H     H_    0.410999 0.920383 0.342967 0.165650
H13   H     H_    0.596540 0.615853 0.911693 0.144557
H14   H     H_    0.551132 0.353635 0.923033 0.153912
H15   H     H_    0.645299 0.473753 0.075977 0.160345
H16   H     H_    0.925956 0.588875 0.638695 0.178404
H17   H     H_    0.922539 0.416049 0.643223 0.174552
H18   H     H_    0.070354 0.590175 0.636925 0.188049
H19   H     H_    0.065400 0.421338 0.647535 0.170905
H20   H     H_    0.071874 0.355522 0.507167 0.210890
H21   H     H_    0.073116 0.647294 0.488722 0.201959
H22   H     H_    0.927178 0.356443 0.496256 0.174781
H23   H     H_    0.927240 0.646865 0.489575 0.167840
N1    N     N_1   0.498630 0.731150 0.497460 -0.080516
N2    N     N_1   0.498630 0.268850 0.497460 -0.083377
O1    O     O_R   0.377210 0.574260 0.500130 -0.606069
O2    O     O_R   0.377210 0.425740 0.500130 -0.611530
O3    O     O_R   0.500050 0.574220 0.314080 -0.581199
O4    O     O_R   0.500050 0.425780 0.314080 -0.587591
O5    O     O_R   0.622930 0.574200 0.500140 -0.616205
O6    O     O_R   0.622930 0.425800 0.500140 -0.613544
O7    O     O_R   0.500090 0.574240 0.686180 -0.628564
O8    O     O_R   0.500090 0.425760 0.686180 -0.636240
Zn1   Zn    Zn3+2 0.500090 0.599130 0.500180 0.989400
Zn2   Zn    Zn3+2 0.500090 0.400870 0.500180 0.980933
C35   C     C_R   0.330557 0.522156 0.918116 0.135201
C36   C     C_R   0.274497 0.585690 0.969781 -0.114257
C37   C     C_R   0.189271 0.586130 0.935682 -0.139152
C38   C     C_R   0.158780 0.521404 0.853657 -0.155847
C39   C     C_R   0.214246 0.458243 0.801847 -0.165924
C40   C     C_R   0.299879 0.459689 0.831885 -0.167750
H24   H     H_    0.295299 0.633351 0.038809 0.180500
H25   H     H_    0.146304 0.635078 0.975571 0.135551
H26   H     H_    0.092004 0.519392 0.832273 0.116477
H27   H     H_    0.191380 0.406996 0.739729 0.127107
H28   H     H_    0.341441 0.409510 0.791618 0.132816
C41   C     C_R   0.665281 0.096368 0.463020 0.138904
C42   C     C_R   0.702572 0.166069 0.390200 -0.165809
C43   C     C_R   0.777963 0.206688 0.427458 -0.112449
C44   C     C_R   0.817568 0.178111 0.537397 -0.114997
C45   C     C_R   0.781730 0.109154 0.610445 -0.151809
C46   C     C_R   0.706138 0.068705 0.574025 -0.114662
H29   H     H_    0.672926 0.189771 0.304797 0.116785
H30   H     H_    0.805658 0.260410 0.371002 0.123595
H31   H     H_    0.876111 0.209175 0.566038 0.115708
H32   H     H_    0.812655 0.086819 0.695471 0.122386
H33   H     H_    0.680931 0.014947 0.631973 0.123204
C47   C     C_R   0.666741 0.903830 0.417416 0.122934
C48   C     C_R   0.691569 0.845119 0.515066 -0.132008
C49   C     C_R   0.772456 0.806834 0.512618 -0.130715
C50   C     C_R   0.829819 0.826378 0.413532 -0.119287
C51   C     C_R   0.806340 0.883860 0.316103 -0.125829
C52   C     C_R   0.725541 0.921982 0.317675 -0.141558
H34   H     H_    0.649887 0.827907 0.593733 0.110937
H35   H     H_    0.790720 0.761897 0.587924 0.121751
H36   H     H_    0.892496 0.797064 0.412134 0.107744
H37   H     H_    0.850781 0.898925 0.239111 0.118883
H38   H     H_    0.708707 0.966426 0.240918 0.110010
O9    O     O_3   0.446807 0.660855 0.091809 -0.594446
C53   C     C_3   0.451519 0.728376 0.998267 -0.356021
H39   H     H_    0.420961 0.707977 0.908788 0.166244
H40   H     H_    0.518620 0.748349 0.979164 0.168688
H41   H     H_    0.417288 0.787886 0.034414 0.184250
O10   O     O_3   0.398275 0.371912 0.109517 -0.584078
C54   C     C_3   0.367723 0.306907 0.025885 -0.304835
H42   H     H_    0.406796 0.298355 0.937682 0.131899
H43   H     H_    0.301355 0.322829 0.001494 0.182678
H44   H     H_    0.366517 0.241567 0.075962 0.180407
O11   O     O_3   0.097318 0.570280 0.265636 -0.621752
C55   C     C_3   0.047162 0.639719 0.217168 -0.449929
H45   H     H_    0.007094 0.671269 0.291986 0.169833
H46   H     H_    0.009313 0.615973 0.136448 0.168350
H47   H     H_    0.090268 0.692759 0.179609 0.203584
O12   O     O_3   0.081064 0.415672 0.280934 -0.650693
C56   C     C_3   0.081347 0.415219 0.147036 -0.260511
H48   H     H_    0.140316 0.447307 0.109175 0.231790
H49   H     H_    0.024546 0.448019 0.107085 0.134456
H50   H     H_    0.081561 0.344944 0.114761 0.164804

loop_
_geom_bond_atom_site_label_1
_geom_bond_atom_site_label_2
_ccdc_geom_bond_type
O7    Zn1   S    
C48   C49   A    
C4    H19   S    
C38   C39   A    
C5    H22   S    
C50   C51   A    
C4    C8    S    
C3    C6    S    
C6    C9    S    
C53   H40   S    
C55   H45   S    
C45   C46   A    
C8    C13   S    
C7    C26   S    
C2    C29   S    
O5    Zn1   S    
C19   C21   S    
C46   H33   S    
C54   H43   S    
C36   H24   S    
C20   C25   S    
C42   H29   S    
C14   O3    A    
C29   C33   S    
C23   H9    S    
O10   C54   S    
C18   C19   S    
C26   O5    A    
O12   C56   S    
C37   H25   S    
C3    H21   S    
C22   H10   S    
O4    Zn2   S    
C16   C17   S    
C38   H26   S    
C31   C33   S    
C29   O10   S    
C10   H1    S    
C1    C15   S    
C23   C41   S    
C40   H28   S    
C41   C46   A    
C19   H8    S    
C2    C34   S    
C43   H30   S    
C51   H37   S    
C6    H23   S    
C11   O11   S    
C53   H39   S    
C30   C35   S    
C47   C52   A    
C41   C42   A    
C56   H49   S    
C7    C12   T    
C45   H32   S    
C39   C40   A    
C43   C44   A    
C27   C31   S    
C28   C32   S    
C44   C45   A    
C3    C8    S    
C10   C11   S    
C54   H44   S    
C50   H36   S    
C4    C5    S    
C17   C21   S    
O8    Zn2   S    
C32   C34   S    
C18   H5    S    
C5    C9    S    
C29   C30   S    
C31   C32   S    
C20   C23   S    
C16   C20   S    
C51   C52   A    
C33   C34   S    
C17   H3    S    
C17   H12   S    
C56   H48   S    
C35   C36   A    
N2    Zn2   S    
N1    Zn1   S    
C39   H27   S    
C13   C15   T    
C32   H13   S    
C18   H7    S    
C44   H31   S    
O9    C53   S    
O11   C55   S    
C9    C10   S    
C56   H50   S    
O2    Zn2   S    
C34   H15   S    
C6    H16   S    
C4    H20   S    
C26   O6    A    
C52   H38   S    
C37   C38   A    
C1    O2    A    
C16   H11   S    
C55   H46   S    
C3    H18   S    
C1    O1    A    
O3    Zn1   S    
C28   C30   S    
C36   C37   A    
C27   O7    A    
C54   H42   S    
C28   O9    S    
C30   C31   S    
C49   H35   S    
C8    C11   S    
O6    Zn2   S    
C14   O4    A    
C47   C48   A    
C10   H2    S    
C18   C20   S    
C49   C50   A    
C2    C14   S    
C9    C12   S    
C55   H47   S    
C27   O8    A    
C19   H6    S    
O1    Zn1   S    
C24   N1    T    
C42   C43   A    
C21   C24   S    
C35   C40   A    
C33   H14   S    
C22   C47   S    
C22   C23   S    
C5    H17   S    
C2    C28   S    
C25   N2    T    
C21   C22   S    
C11   O12   S    
C48   H34   S    
C53   H41   S    
C16   H4    S    
