data_mof_unit_52118.cif
_audit_creation_date              2012-12-10T17:21:40-0500
_audit_creation_method            fapswitch 2.2
_symmetry_space_group_name_H-M    P1
_symmetry_Int_Tables_number       1
_space_group_crystal_system       triclinic
_cell_length_a                    10.895948
_cell_length_b                    10.749012
_cell_length_c                    9.638388
_cell_angle_alpha                 90.277498
_cell_angle_beta                  91.22739
_cell_angle_gamma                 92.566408
_cell_volume                      1127.44449477

loop_
_atom_site_label
_atom_site_type_symbol
_atom_type_description
_atom_site_fract_x
_atom_site_fract_y
_atom_site_fract_z
_atom_type_partial_charge
C1    C     C_R   0.501717 0.260918 0.500259 0.812799
C2    C     C_3   0.877845 0.476053 0.499430 -0.039299
C3    C     C_3   0.927783 0.611000 0.478761 -0.405909
C4    C     C_3   0.926882 0.390811 0.380079 0.108681
C5    C     C_R   0.564660 0.108300 0.750172 0.345569
C6    C     C_R   0.533873 0.063343 0.880117 -0.170970
C7    C     C_R   0.456147 0.958927 0.889898 -0.209322
C8    C     C_R   0.423076 0.888639 0.771829 0.332777
C9    C     C_R   0.456608 0.933669 0.637392 0.010407
C10   C     C_R   0.507095 0.056543 0.629056 -0.020542
C11   C     C_R   0.493138 0.123175 0.502690 -0.123810
C12   C     C_R   0.260214 0.497187 0.498305 0.797591
C13   C     C_R   0.440779 0.060060 0.386128 -0.195864
C14   C     C_R   0.415389 0.931855 0.389665 0.283382
C15   C     C_R   0.442561 0.865664 0.510615 -0.062192
C16   C     C_R   0.663080 0.663999 0.153633 0.060615
C17   C     C_R   0.780906 0.678681 0.104378 -0.098908
C18   C     C_R   0.791150 0.685902 0.963191 -0.120360
C19   C     C_R   0.689683 0.654260 0.874999 0.023088
C20   C     C_R   0.586137 0.579145 0.929292 0.186291
C21   C     C_R   0.580763 0.580802 0.078735 0.125624
C22   C     C_R   0.421805 0.424934 0.071175 -0.010738
C23   C     C_R   0.476863 0.734002 0.501496 0.860535
C24   C     C_R   0.420866 0.425933 0.923748 0.022259
C25   C     C_R   0.738412 0.482516 0.500670 0.809538
C26   C     C_3   0.077737 0.437297 0.635067 -0.405766
C27   C     C_3   0.937477 0.418260 0.634021 0.114071
C28   C     C_3   0.068670 0.619853 0.467766 -0.157997
C29   C     C_3   0.070378 0.399256 0.379744 -0.407862
C30   C     C_3   0.122374 0.489762 0.495424 -0.045174
Cu1   Cu    Cu3+1 0.499990 0.499990 0.640660 1.005207
Cu2   Cu    Cu3+1 0.500010 0.500010 0.359340 1.004900
H1    H     H_    0.110288 0.501494 0.720310 0.232270
H2    H     H_    0.092148 0.648258 0.360053 0.213597
H3    H     H_    0.886529 0.650558 0.383560 0.200981
H4    H     H_    0.415464 0.110704 0.293702 0.173077
H5    H     H_    0.573556 0.106496 0.973469 0.192693
H6    H     H_    0.427125 0.928689 0.990704 0.200006
H7    H     H_    0.357626 0.362835 0.123990 0.127490
H8    H     H_    0.119832 0.346486 0.656387 0.173258
H9    H     H_    0.853313 0.725124 0.166582 0.180538
H10   H     H_    0.873906 0.731811 0.923301 0.188014
H11   H     H_    0.355900 0.364763 0.867044 0.129155
H12   H     H_    0.917412 0.316306 0.630989 0.176468
H13   H     H_    0.896777 0.668406 0.566412 0.157538
H14   H     H_    0.103633 0.431773 0.277224 0.230499
H15   H     H_    0.106148 0.304876 0.395925 0.164646
H16   H     H_    0.896940 0.292574 0.401623 0.140748
N1    N     N_R   0.501200 0.501210 0.147910 -0.182843
N2    N     N_R   0.501250 0.501290 0.852040 -0.167373
O1    O     O_R   0.499990 0.319640 0.618810 -0.570227
O2    O     O_R   0.500000 0.319660 0.381240 -0.583213
O3    O     O_R   0.317680 0.499970 0.618790 -0.574334
O4    O     O_R   0.317700 0.499990 0.381210 -0.583088
O5    O     O_R   0.500000 0.680340 0.618760 -0.593407
O6    O     O_R   0.500010 0.680360 0.381190 -0.571011
O7    O     O_R   0.682300 0.500010 0.618790 -0.563552
O8    O     O_R   0.682320 0.500030 0.381210 -0.544170
Br1   Br    Br    0.864378 0.412668 0.191985 -0.430808
Br2   Br    Br    0.713281 0.205438 0.742534 -0.437271
Br3   Br    Br    0.319170 0.745572 0.811228 -0.515631
Br4   Br    Br    0.314159 0.855920 0.244109 -0.505371
C31   C     C_2   0.620167 0.788416 0.187987 0.397727
H17   H     H_    0.536790 0.818515 0.140260 0.098659
O9    O     O_2   0.679016 0.858720 0.267208 -0.543149
C32   C     C_2   0.694292 0.737745 0.754457 0.422037
H18   H     H_    0.713500 0.706669 0.651695 0.105467
O10   O     O_2   0.692227 0.850009 0.772518 -0.553560
Br5   Br    Br    0.887044 0.463404 0.815904 -0.458643
C33   C     C_2   0.116716 0.721090 0.565148 0.421386
H19   H     H_    0.096806 0.714510 0.674565 0.132913
O11   O     O_2   0.168856 0.815052 0.521262 -0.510135

loop_
_geom_bond_atom_site_label_1
_geom_bond_atom_site_label_2
_ccdc_geom_bond_type
C32   O10   D    
C31   O9    D    
C23   O5    A    
C16   C21   A    
C16   C31   S    
Cu2   O8    S    
C2    C25   S    
C11   C13   A    
C9    C10   A    
C8    Br3   S    
C26   H1    S    
C2    C4    S    
C4    C29   S    
C27   Br5   S    
C3    H3    S    
C29   H14   S    
C2    C27   S    
C12   C30   S    
C15   C23   S    
Cu1   O7    S    
C19   C20   A    
C21   N1    A    
C17   C18   A    
C9    C15   A    
C6    H5    S    
C28   H2    S    
C23   O6    A    
C19   C32   S    
C12   O4    A    
C13   C14   A    
Cu1   O3    S    
C1    O1    A    
C26   H8    S    
C26   C27   S    
C29   C30   S    
C25   O7    A    
C29   H15   S    
C22   N1    A    
C22   H7    S    
C4    Br1   S    
C28   C30   S    
C3    C28   S    
C7    H6    S    
Cu2   O6    S    
C2    C3    S    
C6    C7    A    
C17   H9    S    
C18   H10   S    
C24   N2    A    
C5    C6    A    
C1    O2    A    
C22   C24   A    
Cu2   N1    S    
C33   O11   D    
C25   O8    A    
Cu1   N2    S    
C5    C10   A    
C31   H17   S    
C14   Br4   S    
C7    C8    A    
C33   H19   S    
C32   H18   S    
C20   C21   A    
C13   H4    S    
C4    H16   S    
C18   C19   A    
C10   C11   A    
Cu2   O4    S    
C24   H11   S    
C14   C15   A    
Cu2   O2    S    
C20   N2    A    
C5    Br2   S    
Cu1   O5    S    
C27   H12   S    
C3    H13   S    
Cu1   Cu2   S    
C28   C33   S    
C12   O3    A    
C16   C17   A    
Cu1   O1    S    
C8    C9    A    
C26   C30   S    
C1    C11   S    
