data_mof_unit_66360.cif
_audit_creation_date              2012-12-10T19:46:09-0500
_audit_creation_method            fapswitch 2.2
_symmetry_space_group_name_H-M    P1
_symmetry_Int_Tables_number       1
_space_group_crystal_system       triclinic
_cell_length_a                    28.335162
_cell_length_b                    18.268158
_cell_length_c                    18.268952
_cell_angle_alpha                 89.887155
_cell_angle_beta                  129.890809
_cell_angle_gamma                 89.875563
_cell_volume                      7255.64469019

loop_
_atom_site_label
_atom_site_type_symbol
_atom_type_description
_atom_site_fract_x
_atom_site_fract_y
_atom_site_fract_z
_atom_type_partial_charge
C1    C     C_R   0.499935 0.000065 0.358709 0.960707
C2    C     C_R   0.500120 0.858836 0.000055 0.923780
C3    C     C_R   0.999880 0.641164 0.999945 0.923780
C4    C     C_R   0.000120 0.358836 0.000055 0.923780
C5    C     C_R   0.499857 0.000066 0.141025 0.923701
C6    C     C_R   0.500143 0.999934 0.858975 0.923701
C7    C     C_R   0.999857 0.500066 0.141025 0.923701
C8    C     C_R   0.000143 0.499934 0.858975 0.923701
C9    C     C_1   0.000288 0.217644 0.000099 -0.156832
C10   C     C_1   0.999711 0.782355 0.999900 -0.156832
C11   C     C_1   0.500288 0.717645 0.000099 -0.156832
C12   C     C_R   0.500065 0.999935 0.641291 0.960706
C13   C     C_1   0.499711 0.282355 0.999900 -0.156832
C14   C     C_1   0.500338 0.782401 0.000168 -0.167285
C15   C     C_1   0.499662 0.217599 0.999832 -0.167286
C16   C     C_1   0.000338 0.282401 0.000168 -0.167285
C17   C     C_1   0.999662 0.717599 0.999832 -0.167286
C18   C     C_R   0.619148 0.999863 0.624480 0.971123
C19   C     C_R   0.380852 0.000137 0.375519 0.971124
C20   C     C_R   0.119148 0.499863 0.624480 0.971124
C21   C     C_R   0.880852 0.500137 0.375519 0.971124
C22   C     C_2   0.783957 0.948975 0.839063 -0.062297
C23   C     C_R   0.999935 0.500065 0.358709 0.960708
C24   C     C_2   0.216043 0.051025 0.160937 -0.062296
C25   C     C_2   0.283957 0.448975 0.839063 -0.062296
C26   C     C_2   0.716043 0.551025 0.160937 -0.062296
C27   C     C_2   0.815093 0.981062 0.814563 -0.425332
C28   C     C_2   0.184907 0.018938 0.185437 -0.425331
C29   C     C_2   0.315093 0.481062 0.814563 -0.425332
C30   C     C_2   0.684907 0.518938 0.185437 -0.425331
C31   C     C_2   0.716038 0.944864 0.767043 -0.062305
C32   C     C_2   0.283962 0.055136 0.232957 -0.062305
C33   C     C_2   0.216038 0.444864 0.767043 -0.062305
C34   C     C_R   0.000065 0.499935 0.641291 0.960707
C35   C     C_2   0.783962 0.555136 0.232957 -0.062305
C36   C     C_2   0.684891 0.000512 0.703839 -0.425327
C37   C     C_2   0.315109 0.999488 0.296161 -0.425326
C38   C     C_2   0.184891 0.500512 0.703839 -0.425327
C39   C     C_2   0.815109 0.499488 0.296161 -0.425326
C40   C     C_1   0.499700 0.000189 0.282054 -0.156766
C41   C     C_1   0.500300 0.999811 0.717946 -0.156766
C42   C     C_1   0.999700 0.500189 0.282054 -0.156766
C43   C     C_1   0.000300 0.499811 0.717946 -0.156766
C44   C     C_1   0.499637 0.000171 0.217237 -0.167227
C45   C     C_R   0.880835 0.994688 0.880958 0.971206
C46   C     C_1   0.500363 0.999829 0.782763 -0.167227
C47   C     C_1   0.999637 0.500171 0.217237 -0.167227
C48   C     C_1   0.000363 0.499829 0.782763 -0.167227
C49   C     C_R   0.000072 0.141220 0.000007 0.960829
C50   C     C_R   0.999928 0.858780 0.999993 0.960829
C51   C     C_R   0.500072 0.641220 0.000007 0.960829
C52   C     C_R   0.499928 0.358779 0.999993 0.960829
C53   C     C_2   0.815274 0.914300 0.934027 1.000834
C54   C     C_2   0.184726 0.085700 0.065973 1.000835
C55   C     C_2   0.315274 0.414300 0.934027 1.000834
C56   C     C_R   0.119165 0.005312 0.119042 0.971205
C57   C     C_2   0.684726 0.585700 0.065973 1.000835
C58   C     C_2   0.684733 0.881199 0.770396 1.000852
C59   C     C_2   0.315267 0.118801 0.229604 1.000852
C60   C     C_2   0.184733 0.381199 0.770396 1.000852
C61   C     C_2   0.815267 0.618801 0.229604 1.000851
C62   C     C_R   0.380835 0.494688 0.880958 0.971206
C63   C     C_R   0.619165 0.505312 0.119042 0.971205
C64   C     C_R   0.499880 0.141164 0.999945 0.923780
H1    H     H_    0.791264 0.996713 0.740895 0.164487
H2    H     H_    0.116881 0.151960 0.961767 0.346735
H3    H     H_    0.383119 0.348040 0.038233 0.346735
H4    H     H_    0.616881 0.651960 0.961767 0.346735
H5    H     H_    0.616900 0.844808 0.768818 0.346737
H6    H     H_    0.383100 0.155192 0.231181 0.346737
H7    H     H_    0.116900 0.344808 0.768819 0.346737
H8    H     H_    0.883100 0.655192 0.231181 0.346737
H9    H     H_    0.208736 0.003286 0.259105 0.164487
H10   H     H_    0.291264 0.496713 0.740895 0.164487
H11   H     H_    0.708736 0.503287 0.259105 0.164487
H12   H     H_    0.708715 0.050359 0.712024 0.164498
H13   H     H_    0.291285 0.949641 0.287976 0.164498
H14   H     H_    0.208715 0.550359 0.712024 0.164498
H15   H     H_    0.791285 0.449641 0.287976 0.164498
H16   H     H_    0.883119 0.848040 0.038232 0.346735
O1    O     O_R   0.500010 0.939400 0.392680 -0.625211
O2    O     O_R   0.409540 0.060600 0.409520 -0.600256
O3    O     O_R   0.409540 0.939400 0.409520 -0.625414
O4    O     O_R   0.590460 0.060600 0.590480 -0.625413
O5    O     O_R   0.090460 0.439400 0.590480 -0.600256
O6    O     O_R   0.909540 0.560600 0.409520 -0.600256
O7    O     O_R   0.909540 0.439400 0.409520 -0.625414
O8    O     O_R   0.090460 0.560600 0.590480 -0.625413
O9    O     O_R   0.999970 0.107320 0.060560 -0.625219
O10   O     O_R   0.000030 0.892680 0.939440 -0.625219
O11   O     O_R   0.000030 0.107320 0.939440 -0.603038
O12   O     O_R   0.499990 0.060600 0.607320 -0.625210
O13   O     O_R   0.999970 0.892680 0.060560 -0.603038
O14   O     O_R   0.499970 0.607320 0.060560 -0.625219
O15   O     O_R   0.500030 0.392680 0.939440 -0.625219
O16   O     O_R   0.500030 0.607320 0.939440 -0.603038
O17   O     O_R   0.499970 0.392680 0.060560 -0.603038
O18   O     O_R   0.909520 0.000000 0.970100 -0.600243
O19   O     O_R   0.090480 0.000000 0.029900 -0.600243
O20   O     O_R   0.409520 0.500000 0.970100 -0.600243
O21   O     O_R   0.590480 0.500000 0.029900 -0.600243
O22   O     O_R   0.909530 0.000000 0.848930 -0.625468
O23   O     O_R   0.499990 0.939400 0.607320 -0.603050
O24   O     O_R   0.090470 0.000000 0.151070 -0.625468
O25   O     O_R   0.409530 0.500000 0.848930 -0.625468
O26   O     O_R   0.590470 0.500000 0.151070 -0.625468
O27   O     O_R   0.551060 0.107320 0.051070 -0.622695
O28   O     O_R   0.448940 0.892680 0.948930 -0.622694
O29   O     O_R   0.448940 0.107320 0.948930 -0.605696
O30   O     O_R   0.551060 0.892680 0.051070 -0.605696
O31   O     O_R   0.051060 0.607320 0.051070 -0.622695
O32   O     O_R   0.948940 0.392680 0.948930 -0.622694
O33   O     O_R   0.948940 0.607320 0.948930 -0.605696
O34   O     O_R   0.500010 0.060600 0.392680 -0.603051
O35   O     O_R   0.051060 0.392680 0.051070 -0.605696
O36   O     O_R   0.551050 0.000000 0.158390 -0.622692
O37   O     O_R   0.448950 0.000000 0.841610 -0.622691
O38   O     O_R   0.051050 0.500000 0.158390 -0.622692
O39   O     O_R   0.948950 0.500000 0.841610 -0.622691
O40   O     O_R   0.448910 0.000000 0.056230 -0.605686
O41   O     O_R   0.551090 1.000000 0.943770 -0.605687
O42   O     O_R   0.948910 0.500000 0.056230 -0.605686
O43   O     O_R   0.051090 0.500000 0.943770 -0.605687
O44   O     O_2   0.794590 0.923180 0.975059 -0.609890
O45   O     O_R   0.000010 0.439400 0.392680 -0.625211
O46   O     O_R   0.866488 0.869010 0.974196 -0.779127
O47   O     O_2   0.205410 0.076819 0.024941 -0.609891
O48   O     O_R   0.133512 0.130989 0.025804 -0.779127
O49   O     O_2   0.294590 0.423181 0.975059 -0.609890
O50   O     O_R   0.366488 0.369011 0.974196 -0.779127
O51   O     O_2   0.705410 0.576819 0.024941 -0.609891
O52   O     O_R   0.633512 0.630989 0.025804 -0.779127
O53   O     O_2   0.705422 0.819486 0.782182 -0.609895
O54   O     O_R   0.633523 0.892224 0.764485 -0.779114
O55   O     O_2   0.294577 0.180514 0.217817 -0.609896
O56   O     O_R   0.999990 0.560600 0.607320 -0.625210
O57   O     O_R   0.366477 0.107775 0.235515 -0.779114
O58   O     O_2   0.205422 0.319486 0.782183 -0.609896
O59   O     O_R   0.133523 0.392225 0.764485 -0.779114
O60   O     O_2   0.794578 0.680514 0.217817 -0.609895
O61   O     O_R   0.866477 0.607775 0.235515 -0.779114
O62   O     O_R   0.999990 0.439400 0.607320 -0.603050
O63   O     O_R   0.000010 0.560600 0.392680 -0.603050
O64   O     O_R   0.590460 0.939400 0.590480 -0.600256
Zn1   Zn    Zn3+2 0.500000 0.919080 0.500000 1.008495
Zn2   Zn    Zn3+2 0.431810 0.000000 0.931800 1.013605
Zn3   Zn    Zn3+2 0.068190 0.500000 0.068200 1.013605
Zn4   Zn    Zn3+2 0.931810 0.500000 0.931800 1.013605
Zn5   Zn    Zn3+2 0.500000 0.080920 0.500000 1.008495
Zn6   Zn    Zn3+2 0.000000 0.419080 0.500000 1.008495
Zn7   Zn    Zn3+2 0.000000 0.580920 0.500000 1.008495
Zn8   Zn    Zn3+2 0.999980 1.000000 0.080900 1.008475
Zn9   Zn    Zn3+2 0.000020 0.000000 0.919100 1.008475
Zn10  Zn    Zn3+2 0.499980 0.500000 0.080900 1.008475
Zn11  Zn    Zn3+2 0.500020 0.500000 0.919100 1.008475
Zn12  Zn    Zn3+2 0.568190 1.000000 0.068200 1.013605

loop_
_geom_bond_atom_site_label_1
_geom_bond_atom_site_label_2
_ccdc_geom_bond_type
C21   O7    A    
O40   Zn2   S    
H5    O54   S    
O41   Zn12  S    
C57   O52   S    
O29   Zn2   S    
C63   O21   A    
C24   C32   S    
C28   C56   S    
C62   O25   A    
O18   Zn8   S    
C58   O54   S    
O23   Zn1   S    
C23   C42   S    
H16   O46   S    
O33   Zn4   S    
O38   Zn3   S    
C9    C16   T    
O11   Zn9   S    
C45   O18   A    
C11   C14   T    
O16   Zn11  S    
C59   O57   S    
C10   C17   T    
C24   C54   S    
O35   Zn3   S    
C52   O17   A    
C52   O15   A    
C2    O28   A    
H4    O52   S    
O5    Zn6   S    
C36   H12   S    
C1    C40   S    
O3    Zn1   S    
C50   O10   A    
O9    Zn8   S    
C2    O30   A    
C3    O31   A    
O26   Zn10  S    
O7    Zn6   S    
C18   O4    A    
C41   C46   T    
O42   Zn4   S    
C19   O2    A    
C19   C37   S    
C43   C48   T    
C6    O37   A    
O27   Zn12  S    
O14   Zn10  S    
C51   O16   A    
C23   O45   A    
O4    Zn5   S    
C27   C45   S    
O63   Zn7   S    
C4    O32   A    
C30   C63   S    
C7    O38   A    
C23   O63   A    
C49   O11   A    
C19   O3    A    
C28   H9    S    
C11   C51   S    
C57   O51   D    
C22   C53   S    
O28   Zn2   S    
C58   O53   D    
C25   C29   D    
H8    O61   S    
C22   C31   S    
C5    O40   A    
C25   C55   S    
C9    C49   S    
C56   O24   A    
C12   O23   A    
C3    O33   A    
H7    O59   S    
C29   H10   S    
C38   H14   S    
C55   O49   D    
O39   Zn4   S    
O17   Zn10  S    
C54   O48   S    
O32   Zn4   S    
O37   Zn2   S    
O10   Zn9   S    
C39   H15   S    
C4    C16   S    
C35   C39   D    
C8    C48   S    
C12   C41   S    
C27   H1    S    
O31   Zn3   S    
C13   C52   S    
C20   C38   S    
C21   C39   S    
C34   O56   A    
C15   C64   S    
C55   O50   S    
C20   O5    A    
C20   O8    A    
C1    O1    A    
C53   O46   S    
C35   C61   S    
C32   C37   D    
C63   O26   A    
O22   Zn9   S    
C50   O13   A    
C62   O20   A    
C61   O61   S    
O25   Zn11  S    
C5    C44   S    
O43   Zn3   S    
C26   C30   D    
C33   C60   S    
O1    Zn1   S    
C22   C27   D    
C13   C15   T    
C5    O36   A    
O8    Zn7   S    
H3    O50   S    
C1    O34   A    
C7    O42   A    
C10   C50   S    
C6    O41   A    
O56   Zn7   S    
C31   C58   S    
C64   O27   A    
O20   Zn10  S    
C29   C62   S    
C34   O62   A    
C6    C46   S    
C4    O35   A    
C45   O22   A    
C12   O12   A    
C34   C43   S    
C24   C28   D    
C49   O9    A    
O64   Zn1   S    
C53   O44   D    
C21   O6    A    
C61   O60   D    
C54   O47   D    
C33   C38   D    
C56   O19   A    
O34   Zn5   S    
O62   Zn6   S    
C18   O64   A    
C60   O59   S    
O6    Zn7   S    
C30   H11   S    
O24   Zn8   S    
C64   O29   A    
C37   H13   S    
O19   Zn9   S    
C59   O55   D    
H2    O48   S    
C3    C17   S    
O15   Zn11  S    
C42   C47   T    
C8    O43   A    
C2    C14   S    
C26   C57   S    
O36   Zn12  S    
O2    Zn5   S    
O30   Zn12  S    
O45   Zn6   S    
C51   O14   A    
C26   C35   S    
C40   C44   T    
H6    O57   S    
C25   C33   S    
O12   Zn5   S    
O21   Zn11  S    
C31   C36   D    
O13   Zn8   S    
C32   C59   S    
C18   C36   S    
C8    O39   A    
C7    C47   S    
C60   O58   D    
