data_mof_unit_41602.cif
_audit_creation_date              2012-12-11T15:50:22-0500
_audit_creation_method            fapswitch 2.2
_symmetry_space_group_name_H-M    P1
_symmetry_Int_Tables_number       1
_space_group_crystal_system       triclinic
_cell_length_a                    18.955904
_cell_length_b                    11.006009
_cell_length_c                    18.762021
_cell_angle_alpha                 90.331352
_cell_angle_beta                  90.747422
_cell_angle_gamma                 90.346491
_cell_volume                      3913.82698845

loop_
_atom_site_label
_atom_site_type_symbol
_atom_type_description
_atom_site_fract_x
_atom_site_fract_y
_atom_site_fract_z
_atom_type_partial_charge
C1    C     C_R   0.290573 0.996177 0.860615 0.560742
C2    C     C_R   0.724847 0.034812 0.143421 0.547797
C3    C     C_R   0.790572 0.496179 0.860615 0.560741
C4    C     C_R   0.224848 0.534813 0.143422 0.547794
C5    C     C_3   0.547352 0.753988 0.965499 -0.131896
C6    C     C_3   0.493328 0.716149 0.022075 -0.129653
C7    C     C_3   0.047351 0.253992 0.965499 -0.131898
C8    C     C_3   0.993327 0.216152 0.022076 -0.129655
C9    C     C_R   0.234412 0.552473 0.066957 -0.009964
C10   C     C_R   0.781581 0.511089 0.937716 -0.008422
C11   C     C_R   0.734411 0.052470 0.066956 -0.009960
C12   C     C_R   0.281583 0.011081 0.937717 -0.008421
C13   C     C_R   0.284063 0.485890 0.028606 -0.012529
C14   C     C_R   0.726291 0.457080 0.975628 -0.019517
C15   C     C_R   0.784065 0.985892 0.028606 -0.012529
C16   C     C_R   0.226289 0.957081 0.975627 -0.019519
C17   C     C_R   0.289620 0.498656 0.955385 0.050295
C18   C     C_R   0.714703 0.487796 0.046686 0.052218
C19   C     C_R   0.789622 0.998656 0.955385 0.050280
C20   C     C_R   0.214699 0.987798 0.046685 0.052221
C21   C     C_R   0.182468 0.612848 0.953519 -0.163823
C22   C     C_R   0.820992 0.607621 0.047788 -0.157486
C23   C     C_R   0.682466 0.112838 0.953517 -0.163823
C24   C     C_R   0.320997 0.107603 0.047792 -0.157482
C25   C     C_R   0.180020 0.608545 0.027438 -0.150193
C26   C     C_R   0.832272 0.577839 0.976738 -0.139304
C27   C     C_R   0.680017 0.108535 0.027436 -0.150186
C28   C     C_R   0.332279 0.077819 0.976742 -0.139294
C29   C     C_3   0.361640 0.474631 0.038950 -0.183391
C30   C     C_3   0.649098 0.451107 0.959166 -0.172416
C31   C     C_3   0.861641 0.974643 0.038951 -0.183391
C32   C     C_3   0.149096 0.951122 0.959161 -0.172414
C33   C     C_3   0.368031 0.487123 0.958255 0.096283
C34   C     C_3   0.636645 0.485827 0.036642 0.096149
C35   C     C_3   0.868033 0.987131 0.958255 0.096283
C36   C     C_3   0.136641 0.985845 0.036637 0.096151
C37   C     C_R   0.243026 0.573870 0.917687 -0.009400
C38   C     C_R   0.758661 0.571587 0.082245 -0.013804
C39   C     C_R   0.743025 0.073866 0.917686 -0.009401
C40   C     C_R   0.258661 0.071581 0.082246 -0.013803
C41   C     C_R   0.513236 0.828428 0.427522 0.056132
C42   C     C_R   0.495778 0.839950 0.575265 -0.004464
C43   C     C_R   0.013244 0.328429 0.427525 0.056137
C44   C     C_R   0.995785 0.339950 0.575268 -0.004458
C45   C     C_R   0.470079 0.822568 0.855452 0.536421
C46   C     C_R   0.533371 0.820568 0.142764 0.547987
C47   C     C_R   0.970078 0.322568 0.855452 0.536422
C48   C     C_R   0.033370 0.320569 0.142764 0.547987
C49   C     C_R   0.545384 0.744642 0.473058 -0.017256
C50   C     C_R   0.536298 0.749369 0.545070 -0.044361
C51   C     C_R   0.045391 0.244640 0.473060 -0.017268
C52   C     C_R   0.036304 0.249366 0.545073 -0.044346
C53   C     C_R   0.472499 0.938054 0.531612 0.184649
C54   C     C_R   0.478340 0.928370 0.456324 0.171737
C55   C     C_R   0.972511 0.438058 0.531616 0.184652
C56   C     C_R   0.978352 0.428374 0.456327 0.171736
C57   C     C_3   0.546022 0.608426 0.472329 0.165321
C58   C     C_3   0.536005 0.614082 0.552524 0.118248
C59   C     C_3   0.046025 0.108424 0.472330 0.165323
C60   C     C_3   0.036008 0.114079 0.552525 0.118218
C61   C     C_R   0.240513 0.582775 0.425389 0.012616
C62   C     C_R   0.758909 0.563110 0.571373 0.083798
C63   C     C_R   0.740511 0.082762 0.425392 0.012618
C64   C     C_R   0.258907 0.063110 0.571374 0.083829
C65   C     C_R   0.181431 0.576417 0.469033 0.022995
C66   C     C_R   0.796707 0.655625 0.541009 0.046707
C67   C     C_R   0.681428 0.076401 0.469035 0.022994
C68   C     C_R   0.296683 0.155656 0.541016 0.046683
C69   C     C_R   0.187424 0.579079 0.541407 -0.006231
C70   C     C_R   0.794734 0.670328 0.469606 0.005106
C71   C     C_R   0.687421 0.079063 0.541410 -0.006232
C72   C     C_R   0.294710 0.170362 0.469612 0.005116
C73   C     C_R   0.314525 0.589338 0.529681 -0.151277
C74   C     C_R   0.725175 0.487942 0.453441 -0.176485
C75   C     C_R   0.814522 0.089311 0.529686 -0.151274
C76   C     C_R   0.225190 0.987933 0.453439 -0.176488
C77   C     C_R   0.307759 0.584390 0.455859 -0.173099
C78   C     C_R   0.728005 0.472110 0.527176 -0.097748
C79   C     C_R   0.807757 0.084363 0.455863 -0.173096
C80   C     C_R   0.228023 0.972095 0.527174 -0.097749
C81   C     C_3   0.116480 0.652415 0.468510 -0.263829
C82   C     C_3   0.795449 0.788020 0.556722 -0.278143
C83   C     C_3   0.616477 0.152396 0.468512 -0.263820
C84   C     C_3   0.295379 0.288049 0.556728 -0.278157
C85   C     C_3   0.120998 0.651102 0.548956 -0.278188
C86   C     C_3   0.793211 0.805012 0.476842 -0.241645
C87   C     C_3   0.620994 0.151083 0.548959 -0.278180
C88   C     C_3   0.293146 0.305041 0.476849 -0.241630
C89   C     C_R   0.259690 0.633988 0.850534 0.533439
C90   C     C_R   0.740006 0.635061 0.148465 0.541303
C91   C     C_R   0.759690 0.133988 0.850534 0.533434
C92   C     C_R   0.240006 0.135061 0.148465 0.541302
C93   C     C_R   0.253766 0.592504 0.572634 0.016267
C94   C     C_R   0.754933 0.593091 0.425378 0.019450
C95   C     C_R   0.753763 0.092488 0.572638 0.016265
C96   C     C_R   0.254929 0.093100 0.425380 0.019440
C97   C     C_R   0.272696 0.040779 0.644620 0.576730
C98   C     C_R   0.728585 0.047916 0.353014 0.539323
C99   C     C_R   0.772696 0.540780 0.644620 0.576721
C100  C     C_R   0.228586 0.547920 0.353012 0.539315
C101  C     C_R   0.468350 0.824473 0.646302 0.572589
C102  C     C_R   0.531191 0.822747 0.353332 0.608543
C103  C     C_R   0.968352 0.324473 0.646303 0.572596
C104  C     C_R   0.031195 0.322747 0.353334 0.608551
C105  C     C_R   0.260707 0.638211 0.643451 0.550897
C106  C     C_R   0.740990 0.635465 0.355027 0.551697
C107  C     C_R   0.760706 0.138207 0.643453 0.550902
C108  C     C_R   0.240990 0.135464 0.355027 0.551692
C109  C     C_3   0.459711 0.906309 0.032399 -0.124076
C110  C     C_3   0.513675 0.944104 0.975076 -0.114320
C111  C     C_3   0.959708 0.406310 0.032400 -0.124072
C112  C     C_3   0.013672 0.444107 0.975076 -0.114314
C113  C     C_3   0.436633 0.795900 0.986452 -0.120310
C114  C     C_3   0.570199 0.864044 0.011611 -0.119048
C115  C     C_3   0.936631 0.295901 0.986453 -0.120314
C116  C     C_3   0.070197 0.364049 0.011612 -0.119050
C117  C     C_3   0.491287 0.832776 0.930295 0.060210
C118  C     C_3   0.515444 0.826426 0.067124 0.050688
C119  C     C_3   0.991286 0.332778 0.930295 0.060210
C120  C     C_3   0.015443 0.326429 0.067124 0.050686
Cr1   Cr    Cr6+3 0.229640 0.835880 0.747370 1.015988
Cr2   Cr    Cr6+3 0.770360 0.835880 0.252630 1.029419
Cr3   Cr    Cr6+3 0.729640 0.335880 0.747370 1.015991
Cr4   Cr    Cr6+3 0.270360 0.335880 0.252630 1.029419
Cr5   Cr    Cr6+3 0.387390 0.989720 0.750850 1.052037
Cr6   Cr    Cr6+3 0.612610 0.989720 0.249150 1.051247
Cr7   Cr    Cr6+3 0.887390 0.489720 0.750850 1.052035
Cr8   Cr    Cr6+3 0.112610 0.489720 0.249150 1.051250
Cr9   Cr    Cr6+3 0.385770 0.677220 0.749340 0.994247
Cr10  Cr    Cr6+3 0.614230 0.677220 0.250660 1.023658
Cr11  Cr    Cr6+3 0.885770 0.177220 0.749340 0.994246
Cr12  Cr    Cr6+3 0.114230 0.177220 0.250660 1.023669
H1    H     H_    0.380734 0.770925 0.975115 0.101741
H2    H     H_    0.625985 0.885868 0.024340 0.125426
H3    H     H_    0.880733 0.270927 0.975115 0.101739
H4    H     H_    0.125982 0.385877 0.024340 0.125429
H5    H     H_    0.096744 0.070661 0.454256 0.166811
H6    H     H_    0.985823 0.072757 0.570808 0.150538
H7    H     H_    0.596741 0.570669 0.454254 0.166788
H8    H     H_    0.485822 0.572756 0.570808 0.150570
H9    H     H_    0.366814 0.599431 0.552563 0.149898
H10   H     H_    0.697095 0.423411 0.419639 0.115674
H11   H     H_    0.866812 0.099397 0.552567 0.149892
H12   H     H_    0.197128 0.923386 0.419634 0.115683
H13   H     H_    0.354007 0.581747 0.422810 0.187578
H14   H     H_    0.705642 0.390750 0.549486 0.151622
H15   H     H_    0.854005 0.081714 0.422815 0.187568
H16   H     H_    0.205680 0.890717 0.549481 0.151598
H17   H     H_    0.070218 0.603628 0.446166 0.193550
H18   H     H_    0.845472 0.820711 0.582007 0.151083
H19   H     H_    0.570216 0.103608 0.446168 0.193541
H20   H     H_    0.345387 0.320790 0.582021 0.151083
H21   H     H_    0.125523 0.743924 0.445496 0.134823
H22   H     H_    0.746290 0.816809 0.583627 0.142311
H23   H     H_    0.625519 0.243907 0.445499 0.134818
H24   H     H_    0.246207 0.316787 0.583626 0.142323
H25   H     H_    0.127547 0.743452 0.571807 0.172157
H26   H     H_    0.742381 0.842431 0.457164 0.154178
H27   H     H_    0.627541 0.243433 0.571810 0.172151
H28   H     H_    0.242309 0.342419 0.457163 0.154145
H29   H     H_    0.078908 0.596624 0.574184 0.165519
H30   H     H_    0.841987 0.846842 0.455447 0.161042
H31   H     H_    0.578903 0.096603 0.574186 0.165513
H32   H     H_    0.341914 0.346906 0.455459 0.161081
H33   H     H_    0.426636 0.965016 0.065890 0.125611
H34   H     H_    0.522000 0.037153 0.954196 0.121677
H35   H     H_    0.926631 0.465017 0.065888 0.125615
H36   H     H_    0.021997 0.537155 0.954197 0.121682
H37   H     H_    0.583831 0.697006 0.934755 0.109770
H38   H     H_    0.488153 0.622459 0.042398 0.132480
H39   H     H_    0.083830 0.197013 0.934755 0.109770
H40   H     H_    0.988153 0.122461 0.042398 0.132492
H41   H     H_    0.139986 0.658084 0.925566 0.142359
H42   H     H_    0.859550 0.666320 0.073807 0.152569
H43   H     H_    0.639983 0.158069 0.925563 0.142354
H44   H     H_    0.359559 0.166293 0.073813 0.152559
H45   H     H_    0.134821 0.648455 0.053109 0.198796
H46   H     H_    0.879153 0.613343 0.951615 0.181063
H47   H     H_    0.634816 0.148439 0.053106 0.198798
H48   H     H_    0.379164 0.113313 0.951620 0.181046
H49   H     H_    0.876726 0.883939 0.059591 0.179401
H50   H     H_    0.130956 0.858184 0.945280 0.172226
H51   H     H_    0.376720 0.383922 0.059588 0.179403
H52   H     H_    0.630964 0.358166 0.945284 0.172226
H53   H     H_    0.382878 0.552583 0.070311 0.092000
H54   H     H_    0.632749 0.520380 0.919904 0.104758
H55   H     H_    0.882875 0.052602 0.070310 0.092000
H56   H     H_    0.132754 0.020397 0.919898 0.104762
H57   H     H_    0.397545 0.568350 0.940327 0.144965
H58   H     H_    0.611931 0.575731 0.044930 0.129421
H59   H     H_    0.897544 0.068359 0.940326 0.144979
H60   H     H_    0.111934 0.075756 0.044923 0.129415
O1    O     O_R   0.214300 0.709080 0.827500 -0.529302
O2    O     O_R   0.785700 0.709080 0.172500 -0.521006
O3    O     O_R   0.714300 0.209080 0.827500 -0.529301
O4    O     O_R   0.285700 0.209080 0.172500 -0.521005
O5    O     O_R   0.445900 0.919370 0.676500 -0.436487
O6    O     O_R   0.554100 0.919370 0.323500 -0.468648
O7    O     O_R   0.945900 0.419370 0.676500 -0.436482
O8    O     O_R   0.054100 0.419370 0.323500 -0.468642
O9    O     O_R   0.456660 0.717710 0.669820 -0.552712
O10   O     O_R   0.543340 0.717710 0.330180 -0.489660
O11   O     O_R   0.956660 0.217710 0.669820 -0.552707
O12   O     O_R   0.043340 0.217710 0.330180 -0.489642
O13   O     O_R   0.320590 0.625770 0.672930 -0.513322
O14   O     O_R   0.679410 0.625770 0.327070 -0.515540
O15   O     O_R   0.820590 0.125770 0.672930 -0.513321
O16   O     O_R   0.179410 0.125770 0.327070 -0.515537
O17   O     O_3   0.334270 0.834280 0.749190 -0.281473
O18   O     O_3   0.665730 0.834280 0.250810 -0.274249
O19   O     O_3   0.834270 0.334280 0.749190 -0.281469
O20   O     O_3   0.165730 0.334280 0.250810 -0.274254
O21   O     O_R   0.236190 0.958390 0.823150 -0.504296
O22   O     O_R   0.763810 0.958390 0.176850 -0.501163
O23   O     O_R   0.736190 0.458390 0.823150 -0.504293
O24   O     O_R   0.263810 0.458390 0.176850 -0.501164
O25   O     O_R   0.332090 0.075280 0.831290 -0.508417
O26   O     O_R   0.667910 0.075280 0.168710 -0.514159
O27   O     O_R   0.832090 0.575280 0.831290 -0.508431
O28   O     O_R   0.167910 0.575280 0.168710 -0.514162
O29   O     O_R   0.446280 0.918040 0.826620 -0.526393
O30   O     O_R   0.553720 0.918040 0.173380 -0.501658
O31   O     O_R   0.946280 0.418040 0.826620 -0.526391
O32   O     O_R   0.053720 0.418040 0.173380 -0.501655
O33   O     O_R   0.457080 0.716270 0.831760 -0.525811
O34   O     O_R   0.542920 0.716270 0.168240 -0.530450
O35   O     O_R   0.957080 0.216270 0.831760 -0.525810
O36   O     O_R   0.042920 0.216270 0.168240 -0.530451
O37   O     O_R   0.320980 0.624440 0.823040 -0.514774
O38   O     O_R   0.679020 0.624440 0.176960 -0.513197
O39   O     O_R   0.820980 0.124440 0.823040 -0.514778
O40   O     O_R   0.179020 0.124440 0.176960 -0.513194
O41   O     O_R   0.213880 0.710510 0.665560 -0.524872
O42   O     O_R   0.786120 0.710510 0.334440 -0.506268
O43   O     O_R   0.713880 0.210510 0.665560 -0.524871
O44   O     O_R   0.286120 0.210510 0.334440 -0.506262
O45   O     O_R   0.235800 0.959720 0.673040 -0.503296
O46   O     O_R   0.764200 0.959720 0.326960 -0.507627
O47   O     O_R   0.735800 0.459720 0.673040 -0.503294
O48   O     O_R   0.264200 0.459720 0.326960 -0.507625
O49   O     O_R   0.331670 0.076720 0.669350 -0.477848
O50   O     O_R   0.668330 0.076720 0.330650 -0.514300
O51   O     O_R   0.831670 0.576720 0.669350 -0.477856
O52   O     O_R   0.168330 0.576720 0.330650 -0.514299
O53   O     O_3   0.442084 0.038449 0.562787 -0.683916
H61   H     H_    0.452302 0.110692 0.533331 0.314473
O54   O     O_3   0.448420 0.010749 0.409811 -0.710548
H62   H     H_    0.409016 0.051718 0.433634 0.340351
O55   O     O_3   0.942100 0.538457 0.562791 -0.683921
H63   H     H_    0.952318 0.610699 0.533334 0.314459
O56   O     O_3   0.948436 0.510756 0.409814 -0.710552
H64   H     H_    0.909034 0.551732 0.433638 0.340348
O57   O     O_3   0.487003 0.559457 0.436602 -0.734595
H65   H     H_    0.491146 0.470027 0.441063 0.313188
O58   O     O_3   0.595597 0.573814 0.590002 -0.738615
H66   H     H_    0.584809 0.584344 0.641258 0.339148
O59   O     O_3   0.987007 0.059465 0.436598 -0.734580
H67   H     H_    0.991122 0.970038 0.441092 0.313172
O60   O     O_3   0.095599 0.073806 0.590004 -0.738614
H68   H     H_    0.084804 0.084309 0.641258 0.339151
O61   O     O_3   0.390121 0.378583 0.926454 -0.696318
H69   H     H_    0.390850 0.394209 0.874437 0.337721
O62   O     O_3   0.605208 0.391078 0.074605 -0.706119
H70   H     H_    0.599044 0.422249 0.123836 0.340449
O63   O     O_3   0.890127 0.878592 0.926457 -0.696326
H71   H     H_    0.890844 0.894208 0.874438 0.337722
O64   O     O_3   0.105195 0.891103 0.074598 -0.706116
H72   H     H_    0.099026 0.922278 0.123828 0.340452

loop_
_geom_bond_atom_site_label_1
_geom_bond_atom_site_label_2
_ccdc_geom_bond_type
C73   C77   A    
C83   C87   S    
C55   C56   A    
C108  O44   A    
C77   H13   S    
C67   C83   S    
C4    O24   A    
C7    H39   S    
C5    C114  S    
C23   C39   A    
C85   H29   S    
C14   C18   A    
C87   H31   S    
C111  C112  S    
Cr12  O20   S    
C73   C93   A    
C108  O16   A    
Cr2   O46   S    
Cr11  O15   S    
Cr8   O32   S    
C75   H11   S    
Cr7   O27   S    
C7    C8    S    
C48   C120  S    
Cr3   O47   S    
C73   H9    S    
C53   C54   A    
C23   H43   S    
C15   C19   A    
Cr5   O29   S    
C46   C118  S    
O55   H63   S    
C85   H25   S    
C34   O62   S    
C12   C28   A    
C44   C55   A    
C19   C39   A    
C60   O60   S    
C32   H50   S    
C16   C20   A    
C70   C94   A    
C27   H47   S    
C63   C98   S    
C69   C93   A    
Cr12  O36   S    
C42   C53   A    
C6    H38   S    
O61   H69   S    
C48   O36   A    
C72   C96   A    
C101  O5    A    
C67   C71   A    
C83   H23   S    
C75   C95   A    
C92   O40   A    
C58   H8    S    
C112  H36   S    
C56   O56   S    
Cr9   O37   S    
Cr6   O30   S    
C49   C57   S    
C41   C102  S    
C57   H7    S    
C33   H57   S    
O59   H67   S    
Cr1   O1    S    
C19   C35   S    
C9    C13   A    
C43   C104  S    
C109  H33   S    
C107  O43   A    
C52   C60   S    
C8    C115  S    
C93   C105  S    
C43   C51   A    
C64   C80   A    
C11   C15   A    
C41   C49   A    
C94   C106  S    
C12   C16   A    
C29   C33   S    
C61   C77   A    
C11   C27   A    
C4    O28   A    
Cr3   O19   S    
Cr6   O50   S    
C35   H59   S    
C76   C80   A    
Cr2   O18   S    
C24   H44   S    
Cr5   O49   S    
O57   H65   S    
C86   H30   S    
C23   C27   A    
C103  O11   A    
Cr11  O11   S    
O63   H71   S    
Cr8   O28   S    
C107  O15   A    
Cr10  O10   S    
C3    O27   A    
C109  C113  S    
C99   O47   A    
C81   C85   S    
Cr6   O6    S    
C47   C119  S    
C32   C36   S    
C96   C108  S    
Cr5   O5    S    
C59   C60   S    
C5    H37   S    
C113  H1    S    
O53   H61   S    
C31   H49   S    
C57   O57   S    
C87   H27   S    
C104  O8    A    
Cr3   O3    S    
C1    C12   S    
C17   C33   S    
Cr2   O2    S    
C2    C11   S    
Cr12  O40   S    
C110  C117  S    
C39   C91   S    
C22   H42   S    
C44   C103  S    
C109  C118  S    
C3    O23   A    
C83   H19   S    
Cr9   O13   S    
C26   H46   S    
C32   H56   S    
C114  H2    S    
C41   C54   A    
C63   C67   A    
Cr12  O12   S    
C30   C34   S    
Cr1   O17   S    
C9    C25   A    
C51   C52   A    
C68   C84   S    
C7    C119  S    
Cr3   O23   S    
O62   H70   S    
Cr7   O51   S    
O56   H64   S    
Cr6   O18   S    
C47   O31   A    
C101  O9    A    
C106  O42   A    
C62   C66   A    
C63   C79   A    
C48   O32   A    
C82   C86   S    
C40   C92   S    
Cr2   O22   S    
C13   C29   S    
C91   O39   A    
C111  C120  S    
C82   H22   S    
C7    C116  S    
C80   H16   S    
Cr8   O8    S    
C6    C113  S    
Cr10  O14   S    
Cr4   O44   S    
Cr11  O35   S    
Cr1   O41   S    
C66   C82   S    
C91   O3    A    
C100  O52   A    
C103  O7    A    
C65   C81   S    
C97   O45   A    
C90   O2    A    
C20   C40   A    
C34   H58   S    
C68   C72   A    
C33   O61   S    
C89   O1    A    
Cr4   O4    S    
C55   O55   S    
C46   O34   A    
C50   C58   S    
C21   C37   A    
C58   O58   S    
C45   O33   A    
C54   O54   S    
C35   O63   S    
C15   C31   S    
C28   H48   S    
Cr9   O33   S    
C82   H18   S    
C22   C26   A    
C95   C107  S    
C42   C50   A    
Cr4   O48   S    
C71   C87   S    
C84   H20   S    
C104  O12   A    
Cr7   O19   S    
C64   C97   S    
Cr2   O42   S    
C98   O46   A    
C2    O22   A    
C21   H41   S    
C10   C14   A    
Cr8   O52   S    
C36   O64   S    
Cr3   O43   S    
C8    H40   S    
Cr10  O18   S    
C61   C100  S    
C51   C59   S    
C17   C37   A    
C31   H55   S    
O58   H66   S    
C70   C86   S    
C42   C101  S    
C64   C68   A    
C110  C114  S    
C112  C116  S    
C69   C85   S    
C81   H21   S    
C8    C120  S    
Cr12  O16   S    
C2    O26   A    
C71   C95   A    
Cr4   O24   S    
C113  C117  S    
Cr11  O39   S    
C65   C69   A    
C21   C25   A    
C114  C118  S    
Cr5   O17   S    
C29   H51   S    
C36   H60   S    
C105  O41   A    
C30   H52   S    
C62   C78   A    
Cr1   O45   S    
C59   O59   S    
C24   C28   A    
C92   O4    A    
Cr7   O7    S    
C44   C52   A    
C106  O14   A    
C112  C119  S    
C79   H15   S    
O54   H62   S    
C86   H26   S    
C105  O13   A    
C116  H4    S    
Cr7   O31   S    
C16   C32   S    
Cr4   O20   S    
C38   C90   S    
C115  C119  S    
C46   O30   A    
C37   C89   S    
C72   C88   S    
O64   H72   S    
C45   O29   A    
Cr9   O17   S    
C102  O6    A    
C60   H6    S    
C18   C38   A    
C14   C30   S    
C3    C10   S    
C88   H32   S    
C109  C110  S    
Cr8   O20   S    
Cr11  O19   S    
C62   C99   S    
C84   H24   S    
Cr9   O9    S    
C10   C26   A    
C57   C58   S    
C5    C6    S    
C84   C88   S    
C115  H3    S    
C18   C34   S    
C81   H17   S    
Cr6   O26   S    
C76   H12   S    
C31   C35   S    
C24   C40   A    
C29   H53   S    
C100  O48   A    
C25   H45   S    
C88   H28   S    
C99   O51   A    
C110  H34   S    
C116  C120  S    
C53   O53   S    
C45   C117  S    
C98   O50   A    
Cr5   O25   S    
C78   H14   S    
C111  H35   S    
C97   O49   A    
C13   C17   A    
C20   C36   S    
C61   C65   A    
C43   C56   A    
C74   H10   S    
C47   O35   A    
C66   C70   A    
Cr10  O34   S    
C102  O10   A    
C111  C115  S    
C49   C50   A    
C74   C78   A    
C5    C117  S    
C74   C94   A    
C30   H54   S    
Cr10  O38   S    
C90   O38   A    
C1    O25   A    
C89   O37   A    
C4    C9    S    
C75   C79   A    
C6    C118  S    
C59   H5    S    
C76   C96   A    
O60   H68   S    
Cr1   O21   S    
C1    O21   A    
C22   C38   A    
