data_mof_unit_64232.cif
_audit_creation_date              2012-12-10T18:31:58-0500
_audit_creation_method            fapswitch 2.2
_symmetry_space_group_name_H-M    P1
_symmetry_Int_Tables_number       1
_space_group_crystal_system       triclinic
_cell_length_a                    18.272247
_cell_length_b                    18.272136
_cell_length_c                    51.260415
_cell_angle_alpha                 89.999836
_cell_angle_beta                  89.99977
_cell_angle_gamma                 89.999892
_cell_volume                      17114.4676251

loop_
_atom_site_label
_atom_site_type_symbol
_atom_type_description
_atom_site_fract_x
_atom_site_fract_y
_atom_site_fract_z
_atom_type_partial_charge
C1    C     C_R   1.000000 0.500000 0.679504 0.863946
C2    C     C_R   0.500000 0.000000 0.320494 0.863969
C3    C     C_R   0.000000 0.500000 0.320496 0.863963
C4    C     C_R   0.500000 0.000000 0.679506 0.863985
C5    C     C_R   0.500000 0.000000 0.179504 0.863969
C6    C     C_R   1.000000 0.500000 0.820494 0.863993
C7    C     C_R   0.500000 1.000000 0.820496 0.863923
C8    C     C_R   0.000000 0.500000 0.179506 0.863973
C9    C     C_R   0.499902 0.133050 0.513614 -0.149539
C10   C     C_R   0.133046 0.500611 0.486387 -0.149594
C11   C     C_R   0.500101 0.866952 0.513615 -0.149528
C12   C     C_R   0.866951 0.499391 0.486387 -0.149594
C13   C     C_R   0.499589 0.133049 0.486386 -0.149559
C14   C     C_R   0.866950 0.499726 0.513615 -0.149598
C15   C     C_R   0.500412 0.866952 0.486387 -0.149550
C16   C     C_R   0.133047 0.500277 0.513615 -0.149598
C17   C     C_R   0.999548 0.633055 0.013616 -0.149549
C18   C     C_R   0.633046 0.999512 0.986384 -0.149601
C19   C     C_R   0.000457 0.366959 0.013615 -0.149546
C20   C     C_R   0.366948 0.000488 0.986385 -0.149606
C21   C     C_R   0.999242 0.633054 0.986388 -0.149531
C22   C     C_R   0.366950 0.000825 0.013613 -0.149581
C23   C     C_R   0.000763 0.366961 0.986387 -0.149525
C24   C     C_R   0.633045 0.999176 0.013612 -0.149578
C25   C     C_R   0.066218 0.492438 0.890448 0.514085
C26   C     C_R   0.494250 0.066403 0.109537 0.512109
C27   C     C_R   0.933787 0.507580 0.890449 0.514144
C28   C     C_R   0.505747 0.933599 0.109537 0.512108
C29   C     C_R   0.933816 0.492156 0.109552 0.513929
C30   C     C_R   0.505949 0.066389 0.890464 0.511858
C31   C     C_R   0.066187 0.507850 0.109552 0.513925
C32   C     C_R   0.494045 0.933611 0.890465 0.511886
C33   C     C_R   0.566234 0.992582 0.390450 0.513865
C34   C     C_R   0.993950 0.566380 0.609537 0.512005
C35   C     C_R   0.433766 0.007415 0.390451 0.513935
C36   C     C_R   0.006046 0.433623 0.609537 0.512005
C37   C     C_R   0.433808 0.992224 0.609552 0.513993
C38   C     C_R   0.005947 0.566385 0.390462 0.512171
C39   C     C_R   0.566194 0.007779 0.609552 0.514031
C40   C     C_R   0.994051 0.433614 0.390462 0.512161
C41   C     C_R   0.065723 0.491072 0.863109 -0.311036
C42   C     C_R   0.492791 0.065933 0.136881 -0.312386
C43   C     C_R   0.934279 0.508936 0.863109 -0.311114
C44   C     C_R   0.507207 0.934068 0.136881 -0.312387
C45   C     C_R   0.934317 0.490791 0.136892 -0.311228
C46   C     C_R   0.507422 0.065909 0.863119 -0.312583
C47   C     C_R   0.065685 0.509212 0.136893 -0.311225
C48   C     C_R   0.492576 0.934091 0.863119 -0.312618
C49   C     C_R   0.565741 0.991209 0.363110 -0.311170
C50   C     C_R   0.992490 0.565900 0.636882 -0.312499
C51   C     C_R   0.434258 0.008789 0.363110 -0.311252
C52   C     C_R   0.007507 0.434101 0.636882 -0.312500
C53   C     C_R   0.434306 0.990863 0.636892 -0.311110
C54   C     C_R   0.007401 0.565911 0.363119 -0.312350
C55   C     C_R   0.565694 0.009139 0.636892 -0.311161
C56   C     C_R   0.992598 0.434088 0.363119 -0.312338
C57   C     C_R   0.000000 0.500001 0.849268 -0.141995
C58   C     C_R   0.499999 0.000001 0.150724 -0.139421
C59   C     C_R   0.000001 0.500001 0.150732 -0.141745
C60   C     C_R   0.500000 1.000000 0.849276 -0.139099
C61   C     C_R   0.500000 1.000000 0.349269 -0.141806
C62   C     C_R   0.999999 0.500000 0.650725 -0.139211
C63   C     C_R   0.500000 1.000000 0.650732 -0.141859
C64   C     C_R   1.000000 0.500000 0.349276 -0.139444
C65   C     C_R   0.000004 0.500010 0.904088 0.116013
C66   C     C_R   0.499998 0.000001 0.095907 0.120195
C67   C     C_R   0.000002 0.500004 0.095915 0.116614
C68   C     C_R   0.499997 1.000000 0.904092 0.120925
C69   C     C_R   0.500000 1.000000 0.404088 0.116596
C70   C     C_R   0.999998 0.500001 0.595908 0.120585
C71   C     C_R   0.500001 0.000002 0.595914 0.116352
C72   C     C_R   0.999999 0.500000 0.404093 0.120029
C73   C     C_R   0.858793 0.358762 0.750048 0.783938
C74   C     C_R   0.358762 0.141207 0.249952 0.784096
C75   C     C_R   0.141207 0.641238 0.750048 0.783936
C76   C     C_R   0.641238 0.858793 0.249952 0.784092
C77   C     C_R   0.141207 0.358762 0.249952 0.783949
C78   C     C_R   0.641238 0.141207 0.750048 0.784091
C79   C     C_R   0.858793 0.641238 0.249952 0.783948
C80   C     C_R   0.358762 0.858793 0.750048 0.784091
C81   C     C_R   0.358793 0.858762 0.250048 0.783938
C82   C     C_R   0.858762 0.641207 0.749952 0.784090
C83   C     C_R   0.641207 0.141237 0.250048 0.783937
C84   C     C_R   0.141238 0.358793 0.749952 0.784086
C85   C     C_R   0.641207 0.858762 0.749952 0.783950
C86   C     C_R   0.141238 0.641207 0.250048 0.784093
C87   C     C_R   0.358793 0.141238 0.749952 0.783946
C88   C     C_R   0.858762 0.358793 0.250048 0.784093
C89   C     C_3   0.826995 0.767612 0.735069 -0.407343
C90   C     C_3   0.767617 0.172998 0.264925 -0.407513
C91   C     C_3   0.173006 0.232388 0.735069 -0.407343
C92   C     C_3   0.232383 0.827001 0.264926 -0.407519
C93   C     C_3   0.173003 0.767614 0.264929 -0.407324
C94   C     C_3   0.232386 0.173001 0.735072 -0.407525
C95   C     C_3   0.826998 0.232384 0.264929 -0.407328
C96   C     C_3   0.767615 0.826999 0.735072 -0.407526
C97   C     C_3   0.326993 0.267610 0.235068 -0.407324
C98   C     C_3   0.267615 0.673000 0.764928 -0.407520
C99   C     C_3   0.673007 0.732390 0.235068 -0.407326
C100  C     C_3   0.732385 0.326999 0.764928 -0.407525
C101  C     C_3   0.673005 0.267612 0.764930 -0.407341
C102  C     C_3   0.732387 0.673002 0.235071 -0.407521
C103  C     C_3   0.326996 0.732386 0.764930 -0.407345
C104  C     C_3   0.267613 0.326997 0.235071 -0.407522
C105  C     C_3   0.730014 0.669363 0.736431 -0.222833
C106  C     C_3   0.669371 0.269981 0.263574 -0.222991
C107  C     C_3   0.269986 0.330637 0.736431 -0.222833
C108  C     C_3   0.330630 0.730018 0.263574 -0.222990
C109  C     C_3   0.269983 0.669365 0.263571 -0.222831
C110  C     C_3   0.330632 0.269984 0.736428 -0.222985
C111  C     C_3   0.730017 0.330634 0.263572 -0.222830
C112  C     C_3   0.669368 0.730016 0.736428 -0.222984
C113  C     C_3   0.230013 0.169362 0.236432 -0.222836
C114  C     C_3   0.169368 0.769983 0.763573 -0.222978
C115  C     C_3   0.769987 0.830638 0.236432 -0.222838
C116  C     C_3   0.830632 0.230016 0.763572 -0.222979
C117  C     C_3   0.769985 0.169364 0.763570 -0.222826
C118  C     C_3   0.830633 0.769985 0.236429 -0.222994
C119  C     C_3   0.230015 0.830635 0.763570 -0.222826
C120  C     C_3   0.169367 0.230015 0.236429 -0.222995
C121  C     C_3   0.782179 0.721604 0.778982 -0.189343
C122  C     C_3   0.721595 0.217834 0.221017 -0.188589
C123  C     C_3   0.217820 0.278395 0.778982 -0.189345
C124  C     C_3   0.278405 0.782168 0.221017 -0.188587
C125  C     C_3   0.217825 0.721601 0.221017 -0.189335
C126  C     C_3   0.278400 0.217829 0.778983 -0.188613
C127  C     C_3   0.782174 0.278401 0.221017 -0.189332
C128  C     C_3   0.721599 0.782171 0.778983 -0.188614
C129  C     C_3   0.282182 0.221607 0.278982 -0.189340
C130  C     C_3   0.221599 0.717830 0.721017 -0.188613
C131  C     C_3   0.717818 0.778393 0.278982 -0.189342
C132  C     C_3   0.778401 0.282172 0.721017 -0.188612
C133  C     C_3   0.717822 0.221604 0.721017 -0.189345
C134  C     C_3   0.778398 0.717827 0.278983 -0.188609
C135  C     C_3   0.282177 0.778398 0.721017 -0.189344
C136  C     C_3   0.221601 0.282173 0.278983 -0.188609
C137  C     C_3   0.800704 0.698664 0.750265 0.055710
C138  C     C_3   0.698665 0.199296 0.249735 0.056803
C139  C     C_3   0.199295 0.301336 0.750265 0.055710
C140  C     C_3   0.301335 0.800704 0.249735 0.056805
C141  C     C_3   0.199295 0.698664 0.249735 0.055714
C142  C     C_3   0.301336 0.199296 0.750265 0.056795
C143  C     C_3   0.800705 0.301335 0.249735 0.055713
C144  C     C_3   0.698664 0.800704 0.750265 0.056795
C145  C     C_3   0.300704 0.198664 0.250265 0.055696
C146  C     C_3   0.198664 0.699296 0.749735 0.056795
C147  C     C_3   0.699296 0.801336 0.250265 0.055696
C148  C     C_3   0.801335 0.300704 0.749735 0.056797
C149  C     C_3   0.699296 0.198664 0.749735 0.055719
C150  C     C_3   0.801336 0.699296 0.250265 0.056791
C151  C     C_3   0.300704 0.801336 0.749735 0.055718
C152  C     C_3   0.198664 0.300704 0.250265 0.056791
C153  C     C_R   0.499683 0.934603 0.554893 0.569310
C154  C     C_R   0.934604 0.499297 0.445110 0.569874
C155  C     C_R   0.500323 0.065399 0.554892 0.569250
C156  C     C_R   0.065394 0.500704 0.445110 0.569853
C157  C     C_R   0.500571 0.934603 0.445109 0.569430
C158  C     C_R   0.065396 0.499731 0.554892 0.570078
C159  C     C_R   0.499427 0.065396 0.445109 0.569294
C160  C     C_R   0.934600 0.500273 0.554892 0.570091
C161  C     C_R   0.999862 0.434607 0.054893 0.569403
C162  C     C_R   0.434599 0.999830 0.945108 0.570194
C163  C     C_R   0.000142 0.565404 0.054894 0.569410
C164  C     C_R   0.565395 0.000169 0.945107 0.570233
C165  C     C_R   0.000737 0.434615 0.945110 0.569231
C166  C     C_R   0.565391 0.999190 0.054890 0.569929
C167  C     C_R   0.999268 0.565404 0.945110 0.569133
C168  C     C_R   0.434604 0.000812 0.054890 0.569932
C169  C     C_R   0.500086 0.066781 0.527516 -0.034544
C170  C     C_R   0.066778 0.500448 0.472486 -0.034161
C171  C     C_R   0.499918 0.933221 0.527516 -0.034557
C172  C     C_R   0.933219 0.499553 0.472486 -0.034166
C173  C     C_R   0.499660 0.066780 0.472485 -0.034513
C174  C     C_R   0.933217 0.500005 0.527516 -0.034129
C175  C     C_R   0.500340 0.933221 0.472485 -0.034543
C176  C     C_R   0.066780 0.499998 0.527516 -0.034126
C177  C     C_R   0.999906 0.566787 0.027518 -0.034548
C178  C     C_R   0.566778 0.999897 0.972483 -0.034096
C179  C     C_R   0.000099 0.433226 0.027517 -0.034547
C180  C     C_R   0.433216 0.000103 0.972484 -0.034086
C181  C     C_R   0.999490 0.566786 0.972487 -0.034581
C182  C     C_R   0.433219 0.000557 0.027514 -0.034144
C183  C     C_R   0.000516 0.433230 0.972486 -0.034600
C184  C     C_R   0.566776 0.999445 0.027514 -0.034143
C185  C     C_R   0.500002 0.000001 0.513775 -0.013412
C186  C     C_R   0.999999 0.500001 0.486227 -0.013380
C187  C     C_R   0.500001 0.000000 0.486227 -0.013410
C188  C     C_R   0.999999 0.500001 0.513775 -0.013381
C189  C     C_R   0.000003 0.500007 0.013776 -0.013413
C190  C     C_R   0.499997 0.000000 0.986225 -0.013379
C191  C     C_R   0.000003 0.500008 0.986228 -0.013416
C192  C     C_R   0.499997 0.000001 0.013773 -0.013381
H1    H     H_    0.840224 0.752949 0.714519 0.193051
H2    H     H_    0.752961 0.159747 0.285475 0.191912
H3    H     H_    0.159777 0.247052 0.714519 0.193052
H4    H     H_    0.247040 0.840250 0.285475 0.191908
H5    H     H_    0.159770 0.752954 0.285479 0.193068
H6    H     H_    0.247046 0.159754 0.714523 0.191918
H7    H     H_    0.840230 0.247043 0.285479 0.193071
H8    H     H_    0.752955 0.840246 0.714523 0.191916
H9    H     H_    0.340219 0.252945 0.214517 0.193082
H10   H     H_    0.252955 0.659754 0.785477 0.191911
H11   H     H_    0.659781 0.747055 0.214517 0.193083
H12   H     H_    0.747045 0.340244 0.785477 0.191909
H13   H     H_    0.659773 0.252949 0.785481 0.193048
H14   H     H_    0.747049 0.659756 0.214522 0.191928
H15   H     H_    0.340227 0.747048 0.785480 0.193048
H16   H     H_    0.252951 0.340243 0.214522 0.191927
H17   H     H_    0.877925 0.789912 0.743925 0.209306
H18   H     H_    0.789920 0.122078 0.256062 0.209569
H19   H     H_    0.122075 0.210088 0.743925 0.209306
H20   H     H_    0.210080 0.877922 0.256063 0.209570
H21   H     H_    0.122074 0.789913 0.256071 0.209310
H22   H     H_    0.210082 0.122080 0.743934 0.209565
H23   H     H_    0.877926 0.210086 0.256070 0.209309
H24   H     H_    0.789918 0.877920 0.743934 0.209564
H25   H     H_    0.377924 0.289911 0.243923 0.209307
H26   H     H_    0.289918 0.622078 0.756066 0.209566
H27   H     H_    0.622076 0.710089 0.243923 0.209307
H28   H     H_    0.710082 0.377921 0.756067 0.209567
H29   H     H_    0.622076 0.289913 0.756073 0.209309
H30   H     H_    0.710082 0.622081 0.243932 0.209566
H31   H     H_    0.377924 0.710086 0.756073 0.209308
H32   H     H_    0.289918 0.377919 0.243932 0.209567
H33   H     H_    0.744330 0.657763 0.715720 0.131784
H34   H     H_    0.657792 0.255658 0.284286 0.130819
H35   H     H_    0.255670 0.342238 0.715720 0.131784
H36   H     H_    0.342208 0.744339 0.284286 0.130817
H37   H     H_    0.255664 0.657767 0.284282 0.131781
H38   H     H_    0.342214 0.255666 0.715715 0.130842
H39   H     H_    0.744336 0.342230 0.284282 0.131782
H40   H     H_    0.657787 0.744335 0.715716 0.130843
H41   H     H_    0.244327 0.157758 0.215721 0.131798
H42   H     H_    0.157786 0.755664 0.784285 0.130816
H43   H     H_    0.755674 0.842242 0.215721 0.131799
H44   H     H_    0.842214 0.244334 0.784284 0.130817
H45   H     H_    0.755669 0.157764 0.784281 0.131771
H46   H     H_    0.842216 0.755668 0.215716 0.130853
H47   H     H_    0.244332 0.842233 0.784281 0.131770
H48   H     H_    0.157784 0.244331 0.215717 0.130852
H49   H     H_    0.759368 0.673149 0.789318 0.148774
H50   H     H_    0.673138 0.240664 0.210687 0.147600
H51   H     H_    0.240631 0.326851 0.789318 0.148779
H52   H     H_    0.326861 0.759339 0.210686 0.147600
H53   H     H_    0.240639 0.673144 0.210683 0.148743
H54   H     H_    0.326855 0.240656 0.789315 0.147611
H55   H     H_    0.759361 0.326859 0.210683 0.148744
H56   H     H_    0.673144 0.759343 0.789315 0.147609
H57   H     H_    0.259372 0.173153 0.289319 0.148780
H58   H     H_    0.173144 0.740657 0.710685 0.147610
H59   H     H_    0.740627 0.826847 0.289319 0.148784
H60   H     H_    0.826856 0.259346 0.710685 0.147609
H61   H     H_    0.740636 0.173148 0.710682 0.148755
H62   H     H_    0.826852 0.740654 0.289315 0.147625
H63   H     H_    0.259364 0.826854 0.710683 0.148758
H64   H     H_    0.173148 0.259346 0.289315 0.147624
H65   H     H_    0.499915 0.185110 0.523716 0.194272
H66   H     H_    0.185105 0.500904 0.476285 0.194210
H67   H     H_    0.500090 0.814891 0.523717 0.194271
H68   H     H_    0.814892 0.499097 0.476285 0.194210
H69   H     H_    0.499377 0.185109 0.476284 0.194259
H70   H     H_    0.814890 0.499673 0.523717 0.194215
H71   H     H_    0.500623 0.814891 0.476285 0.194258
H72   H     H_    0.185107 0.500330 0.523717 0.194215
H73   H     H_    0.999420 0.685115 0.023719 0.194265
H74   H     H_    0.685107 0.999376 0.976282 0.194200
H75   H     H_    0.000584 0.314898 0.023717 0.194265
H76   H     H_    0.314888 0.000624 0.976283 0.194199
H77   H     H_    0.998895 0.685114 0.976286 0.194271
H78   H     H_    0.314891 0.001203 0.023715 0.194207
H79   H     H_    0.001110 0.314902 0.976285 0.194270
H80   H     H_    0.685104 0.998799 0.023714 0.194207
H81   H     H_    0.116798 0.482847 0.852795 0.192889
H82   H     H_    0.485881 0.117191 0.147199 0.191842
H83   H     H_    0.883205 0.517166 0.852795 0.192853
H84   H     H_    0.514117 0.882810 0.147199 0.191842
H85   H     H_    0.883287 0.482322 0.147209 0.192731
H86   H     H_    0.514529 0.117135 0.852798 0.191679
H87   H     H_    0.116715 0.517679 0.147210 0.192734
H88   H     H_    0.485466 0.882865 0.852798 0.191664
H89   H     H_    0.616829 0.983082 0.352795 0.192820
H90   H     H_    0.985323 0.617120 0.647202 0.191715
H91   H     H_    0.383172 0.016921 0.352795 0.192786
H92   H     H_    0.014673 0.382881 0.647201 0.191714
H93   H     H_    0.383262 0.982464 0.647207 0.192800
H94   H     H_    0.014463 0.617150 0.352801 0.191834
H95   H     H_    0.616737 0.017542 0.647208 0.192781
H96   H     H_    0.985537 0.382849 0.352801 0.191838
N1    N     N_R   0.500002 0.000002 0.567927 -0.316513
N2    N     N_R   0.999999 0.500000 0.432078 -0.315770
N3    N     N_R   0.500000 1.000000 0.432075 -0.316445
N4    N     N_R   0.999998 0.500002 0.567924 -0.315610
N5    N     N_R   0.000002 0.500005 0.067928 -0.316443
N6    N     N_R   0.499997 1.000000 0.932076 -0.315513
N7    N     N_R   0.000004 0.500010 0.932075 -0.316614
N8    N     N_R   0.499998 0.000001 0.067922 -0.315718
O1    O     O_3   0.000000 0.500000 0.750000 -0.483161
O2    O     O_3   0.500000 0.000000 0.250000 -0.483164
O3    O     O_3   0.000000 0.500000 0.250000 -0.483164
O4    O     O_3   0.500000 0.000000 0.750000 -0.483155
O5    O     O_R   0.999670 0.561310 0.691960 -0.646430
O6    O     O_R   0.561310 0.000330 0.308040 -0.646499
O7    O     O_R   0.000330 0.438690 0.691960 -0.646429
O8    O     O_R   0.438690 0.999670 0.308040 -0.646500
O9    O     O_R   0.000330 0.561310 0.308040 -0.646418
O10   O     O_R   0.438690 0.000330 0.691960 -0.646491
O11   O     O_R   0.999670 0.438690 0.308040 -0.646418
O12   O     O_R   0.561310 0.999670 0.691960 -0.646492
O13   O     O_R   0.499670 0.061310 0.191960 -0.646426
O14   O     O_R   0.061310 0.500330 0.808040 -0.646491
O15   O     O_R   0.500330 0.938690 0.191960 -0.646425
O16   O     O_R   0.938690 0.499670 0.808040 -0.646490
O17   O     O_R   0.500330 0.061310 0.808040 -0.646433
O18   O     O_R   0.938690 0.500330 0.191960 -0.646494
O19   O     O_R   0.499670 0.938690 0.808040 -0.646433
O20   O     O_R   0.061310 0.499670 0.191960 -0.646496
O21   O     O_R   0.913470 0.352550 0.734780 -0.641840
O22   O     O_R   0.352550 0.086530 0.265220 -0.641644
O23   O     O_R   0.086530 0.647450 0.734780 -0.641840
O24   O     O_R   0.647450 0.913470 0.265220 -0.641643
O25   O     O_R   0.086530 0.352550 0.265220 -0.641840
O26   O     O_R   0.647450 0.086530 0.734780 -0.641659
O27   O     O_R   0.913470 0.647450 0.265220 -0.641840
O28   O     O_R   0.352550 0.913470 0.734780 -0.641657
O29   O     O_R   0.413470 0.852550 0.234780 -0.641846
O30   O     O_R   0.852550 0.586530 0.765220 -0.641645
O31   O     O_R   0.586530 0.147450 0.234780 -0.641847
O32   O     O_R   0.147450 0.413470 0.765220 -0.641643
O33   O     O_R   0.586530 0.852550 0.765220 -0.641845
O34   O     O_R   0.147450 0.586530 0.234780 -0.641667
O35   O     O_R   0.413470 0.147450 0.765220 -0.641845
O36   O     O_R   0.852550 0.413470 0.234780 -0.641667
O37   O     O_R   0.147200 0.586220 0.765220 -0.644556
O38   O     O_R   0.586220 0.852800 0.234780 -0.644188
O39   O     O_R   0.852800 0.413780 0.765220 -0.644558
O40   O     O_R   0.413780 0.147200 0.234780 -0.644188
O41   O     O_R   0.852800 0.586220 0.234780 -0.644548
O42   O     O_R   0.413780 0.852800 0.765220 -0.644210
O43   O     O_R   0.147200 0.413780 0.234780 -0.644548
O44   O     O_R   0.586220 0.147200 0.765220 -0.644208
O45   O     O_R   0.647200 0.086220 0.265220 -0.644563
O46   O     O_R   0.086220 0.352800 0.734780 -0.644211
O47   O     O_R   0.352800 0.913780 0.265220 -0.644565
O48   O     O_R   0.913780 0.647200 0.734780 -0.644211
O49   O     O_R   0.352800 0.086220 0.734780 -0.644550
O50   O     O_R   0.913780 0.352800 0.265220 -0.644196
O51   O     O_R   0.647200 0.913780 0.734780 -0.644551
O52   O     O_R   0.086220 0.647200 0.265220 -0.644196
O53   O     O_2   0.499284 0.871233 0.568407 -0.557051
O54   O     O_2   0.871241 0.498464 0.431594 -0.558656
O55   O     O_2   0.500726 0.128770 0.568406 -0.557071
O56   O     O_2   0.128757 0.501537 0.431594 -0.558660
O57   O     O_2   0.501216 0.871235 0.431595 -0.557178
O58   O     O_2   0.128763 0.499306 0.568408 -0.558907
O59   O     O_2   0.498776 0.128764 0.431594 -0.557211
O60   O     O_2   0.871234 0.500698 0.568408 -0.558906
O61   O     O_2   0.999635 0.371235 0.068408 -0.557167
O62   O     O_2   0.371233 0.999495 0.931591 -0.559105
O63   O     O_2   0.000368 0.628774 0.068409 -0.557166
O64   O     O_2   0.628761 0.000501 0.931591 -0.559086
O65   O     O_2   0.001526 0.371248 0.931595 -0.556870
O66   O     O_2   0.628753 0.998249 0.068406 -0.558736
O67   O     O_2   0.998473 0.628772 0.931597 -0.556897
O68   O     O_2   0.371243 0.001754 0.068406 -0.558735
Zn1   Zn    Zn3+2 0.912170 0.500020 0.771750 0.980767
Zn2   Zn    Zn3+2 0.500020 0.087830 0.228250 0.980977
Zn3   Zn    Zn3+2 0.087830 0.499980 0.771750 0.980772
Zn4   Zn    Zn3+2 0.499980 0.912170 0.228250 0.980977
Zn5   Zn    Zn3+2 0.087830 0.500020 0.228250 0.980750
Zn6   Zn    Zn3+2 0.499980 0.087830 0.771750 0.980946
Zn7   Zn    Zn3+2 0.912170 0.499980 0.228250 0.980749
Zn8   Zn    Zn3+2 0.500020 0.912170 0.771750 0.980944
Zn9   Zn    Zn3+2 0.412170 0.000020 0.271750 0.980758
Zn10  Zn    Zn3+2 0.000020 0.587830 0.728250 0.980951
Zn11  Zn    Zn3+2 0.587830 0.999980 0.271750 0.980764
Zn12  Zn    Zn3+2 0.999980 0.412170 0.728250 0.980950
Zn13  Zn    Zn3+2 0.587830 0.000020 0.728250 0.980758
Zn14  Zn    Zn3+2 0.999980 0.587830 0.271750 0.980979
Zn15  Zn    Zn3+2 0.412170 0.999980 0.728250 0.980761
Zn16  Zn    Zn3+2 0.000020 0.412170 0.271750 0.980980
C193  C     C_1   0.849168 0.741956 0.793712 0.185881
N9    N     N_1   0.901460 0.757666 0.805156 -0.187587
C194  C     C_1   0.741924 0.150851 0.206280 0.182206
N10   N     N_1   0.757616 0.098564 0.194829 -0.189594
C195  C     C_1   0.150831 0.258043 0.793712 0.185885
N11   N     N_1   0.098539 0.242333 0.805156 -0.187586
C196  C     C_1   0.258075 0.849152 0.206281 0.182205
N12   N     N_1   0.242382 0.901440 0.194830 -0.189594
C197  C     C_1   0.150838 0.741950 0.206286 0.185810
N13   N     N_1   0.098548 0.757658 0.194840 -0.187589
C198  C     C_1   0.258069 0.150842 0.793718 0.182265
N14   N     N_1   0.242374 0.098553 0.805167 -0.189550
C199  C     C_1   0.849161 0.258053 0.206286 0.185810
N15   N     N_1   0.901451 0.242345 0.194839 -0.187590
C200  C     C_1   0.741930 0.849157 0.793717 0.182263
N16   N     N_1   0.757624 0.901446 0.805167 -0.189549
C201  C     C_1   0.349173 0.241961 0.293710 0.185876
N17   N     N_1   0.401466 0.257673 0.305154 -0.187606
C202  C     C_1   0.241932 0.650844 0.706282 0.182275
N18   N     N_1   0.257628 0.598556 0.694833 -0.189526
C203  C     C_1   0.650826 0.758038 0.293710 0.185881
N19   N     N_1   0.598533 0.742326 0.305154 -0.187605
C204  C     C_1   0.758068 0.349158 0.706283 0.182274
N20   N     N_1   0.742372 0.401448 0.694834 -0.189526
C205  C     C_1   0.650834 0.241953 0.706287 0.185845
N21   N     N_1   0.598542 0.257662 0.694842 -0.187566
C206  C     C_1   0.758067 0.650839 0.293717 0.182250
N22   N     N_1   0.742372 0.598549 0.305165 -0.189572
C207  C     C_1   0.349166 0.758050 0.706287 0.185848
N23   N     N_1   0.401457 0.742342 0.694841 -0.187565
C208  C     C_1   0.241933 0.349161 0.293716 0.182249
N24   N     N_1   0.257628 0.401451 0.305165 -0.189573
C209  C     C_1   0.704967 0.598242 0.747287 0.208987
N25   N     N_1   0.685495 0.542786 0.755711 -0.189599
C210  C     C_1   0.598237 0.295025 0.252728 0.208521
N26   N     N_1   0.542771 0.314494 0.244312 -0.189770
C211  C     C_1   0.295033 0.401758 0.747287 0.208988
N27   N     N_1   0.314505 0.457213 0.755711 -0.189595
C212  C     C_1   0.401763 0.704975 0.252727 0.208522
N28   N     N_1   0.457229 0.685506 0.244311 -0.189770
C213  C     C_1   0.295032 0.598243 0.252716 0.208975
N29   N     N_1   0.314505 0.542786 0.244294 -0.189609
C214  C     C_1   0.401764 0.295025 0.747275 0.208532
N30   N     N_1   0.457229 0.314493 0.755693 -0.189781
C215  C     C_1   0.704968 0.401757 0.252717 0.208974
N31   N     N_1   0.685495 0.457215 0.244295 -0.189609
C216  C     C_1   0.598236 0.704975 0.747276 0.208530
N32   N     N_1   0.542771 0.685507 0.755693 -0.189783
C217  C     C_1   0.204966 0.098242 0.247290 0.208992
N33   N     N_1   0.185495 0.042788 0.255715 -0.189589
C218  C     C_1   0.098237 0.795026 0.752724 0.208521
N34   N     N_1   0.042773 0.814495 0.744307 -0.189793
C219  C     C_1   0.795034 0.901758 0.247289 0.208993
N35   N     N_1   0.814505 0.957212 0.255715 -0.189586
C220  C     C_1   0.901763 0.204974 0.752724 0.208522
N36   N     N_1   0.957227 0.185505 0.744306 -0.189793
C221  C     C_1   0.795032 0.098241 0.752714 0.208972
N37   N     N_1   0.814504 0.042785 0.744291 -0.189617
C222  C     C_1   0.901765 0.795025 0.247277 0.208539
N38   N     N_1   0.957229 0.814492 0.255695 -0.189758
C223  C     C_1   0.204968 0.901758 0.752715 0.208972
N39   N     N_1   0.185497 0.957216 0.744293 -0.189615
C224  C     C_1   0.098235 0.204974 0.247278 0.208538
N40   N     N_1   0.042771 0.185507 0.255696 -0.189758
O69   O     O_3   0.130568 0.481500 0.904077 -0.584668
C225  C     C_3   0.172546 0.546160 0.902954 -0.279192
H97   H     H_    0.191616 0.557477 0.882746 0.158542
H98   H     H_    0.141662 0.593907 0.910776 0.187240
H99   H     H_    0.221811 0.538859 0.915327 0.200054
O70   O     O_3   0.485040 0.130976 0.095870 -0.587539
C226  C     C_3   0.550191 0.172076 0.097471 -0.274864
H100  H     H_    0.598092 0.140353 0.090213 0.189249
H101  H     H_    0.560238 0.191542 0.117713 0.159503
H102  H     H_    0.544508 0.221102 0.084872 0.199402
O71   O     O_3   0.869444 0.518534 0.904082 -0.584650
C227  C     C_3   0.827395 0.453925 0.902930 -0.279164
H103  H     H_    0.808253 0.442745 0.882721 0.158537
H104  H     H_    0.858247 0.406098 0.910706 0.187164
H105  H     H_    0.778174 0.461211 0.915326 0.200060
O72   O     O_3   0.514954 0.869026 0.095870 -0.587539
C228  C     C_3   0.449803 0.827927 0.097472 -0.274862
H106  H     H_    0.401901 0.859652 0.090215 0.189249
H107  H     H_    0.439759 0.808460 0.117714 0.159502
H108  H     H_    0.455483 0.778903 0.084872 0.199403
O73   O     O_3   0.869532 0.480908 0.095913 -0.584863
C229  C     C_3   0.827032 0.545210 0.097150 -0.278926
H109  H     H_    0.807733 0.555992 0.117367 0.158493
H110  H     H_    0.857577 0.593352 0.089468 0.187361
H111  H     H_    0.777909 0.537743 0.084719 0.199999
O74   O     O_3   0.515391 0.130920 0.904140 -0.587810
C230  C     C_3   0.450555 0.172484 0.902419 -0.274463
H112  H     H_    0.402290 0.141042 0.909524 0.189484
H113  H     H_    0.441046 0.192189 0.882174 0.159378
H114  H     H_    0.456324 0.221368 0.915082 0.199309
O75   O     O_3   0.130471 0.519099 0.095913 -0.584865
C231  C     C_3   0.172968 0.454793 0.097149 -0.278930
H115  H     H_    0.192260 0.444000 0.117366 0.158493
H116  H     H_    0.142421 0.406656 0.089463 0.187366
H117  H     H_    0.222094 0.462263 0.084719 0.199998
O76   O     O_3   0.484595 0.869082 0.904141 -0.587803
C232  C     C_3   0.549407 0.827485 0.902407 -0.274450
H118  H     H_    0.597702 0.858906 0.909498 0.189454
H119  H     H_    0.558866 0.807761 0.882162 0.159364
H120  H     H_    0.543638 0.778611 0.915076 0.199311
O77   O     O_3   0.630596 0.981763 0.404086 -0.584883
C233  C     C_3   0.672609 0.046389 0.402880 -0.278875
H121  H     H_    0.691772 0.057433 0.382664 0.158472
H122  H     H_    0.641721 0.094255 0.410606 0.187423
H123  H     H_    0.721819 0.039223 0.415290 0.200034
O78   O     O_3   0.984419 0.630902 0.595866 -0.587672
C234  C     C_3   0.049268 0.672459 0.597535 -0.274709
H124  H     H_    0.097468 0.641040 0.590361 0.189379
H125  H     H_    0.058956 0.692085 0.617779 0.159420
H126  H     H_    0.043389 0.721392 0.584901 0.199318
O79   O     O_3   0.369407 0.018229 0.404090 -0.584870
C235  C     C_3   0.327336 0.953645 0.402848 -0.278841
H127  H     H_    0.308097 0.942754 0.382632 0.158467
H128  H     H_    0.358206 0.905699 0.410523 0.187353
H129  H     H_    0.278172 0.960772 0.415285 0.200039
O80   O     O_3   0.015571 0.369100 0.595865 -0.587672
C236  C     C_3   0.950720 0.327547 0.597536 -0.274714
H130  H     H_    0.902517 0.358973 0.590369 0.189376
H131  H     H_    0.941044 0.307907 0.617779 0.159427
H132  H     H_    0.956588 0.278623 0.584897 0.199319
O81   O     O_3   0.369503 0.981055 0.595919 -0.584775
C237  C     C_3   0.327191 0.045491 0.597095 -0.279052
H133  H     H_    0.308007 0.056541 0.617308 0.158495
H134  H     H_    0.357847 0.093462 0.589334 0.187360
H135  H     H_    0.277995 0.038042 0.584699 0.199992
O82   O     O_3   0.015354 0.630935 0.404126 -0.587494
C238  C     C_3   0.950299 0.672193 0.402550 -0.274930
H136  H     H_    0.902353 0.640597 0.409840 0.189190
H137  H     H_    0.940213 0.691652 0.382309 0.159530
H138  H     H_    0.956149 0.721226 0.415135 0.199401
O83   O     O_3   0.630496 0.018956 0.595916 -0.584765
C239  C     C_3   0.672851 0.954551 0.597112 -0.279038
H139  H     H_    0.692067 0.943579 0.617327 0.158487
H140  H     H_    0.642218 0.906535 0.589376 0.187320
H141  H     H_    0.722027 0.961995 0.584705 0.199995
O84   O     O_3   0.984642 0.369065 0.404126 -0.587495
C240  C     C_3   0.049704 0.327814 0.402555 -0.274941
H142  H     H_    0.097638 0.359413 0.409853 0.189200
H143  H     H_    0.059812 0.308367 0.382314 0.159531
H144  H     H_    0.043846 0.278774 0.415137 0.199400

loop_
_geom_bond_atom_site_label_1
_geom_bond_atom_site_label_2
_ccdc_geom_bond_type
C216  N32   T    
C119  C223  S    
C11   C171  A    
O15   Zn4   S    
C24   C184  A    
C215  N31   T    
C157  N3    A    
C9    C169  A    
O79   C235  S    
C158  N4    A    
C156  O56   S    
C1    O5    A    
O76   C232  S    
C42   C58   A    
C231  H116  S    
C73   O39   A    
C90   C95   S    
C114  H42   S    
C221  N37   T    
C13   C173  A    
O24   Zn11  S    
C109  C213  S    
C126  C198  S    
O29   Zn4   S    
C130  C146  S    
C116  H44   S    
C120  C224  S    
O36   Zn7   S    
C108  C109  S    
O37   Zn3   S    
C9    C13   A    
C110  H38   S    
C225  H99   S    
C103  H31   S    
C11   C15   A    
C6    O16   A    
C36   C70   A    
O19   Zn8   S    
C190  C192  A    
C29   O73   S    
C124  H52   S    
C129  C145  S    
C33   C69   A    
C48   C60   A    
C228  H107  S    
C117  H45   S    
C155  N1    A    
C167  N7    A    
O11   Zn16  S    
C234  H125  S    
C162  O62   S    
C182  C192  A    
C82   O48   A    
C85   C144  S    
C164  N6    A    
C136  C152  S    
C47   H87   S    
C176  C188  A    
C48   H88   S    
C105  C209  S    
C94   H22   S    
C168  N8    A    
C171  C185  A    
C73   C148  S    
C165  C183  A    
C79   O27   A    
C121  C128  S    
C12   C172  A    
C133  H61   S    
C18   H74   S    
C123  C126  S    
C108  H36   S    
C237  H133  S    
C28   C44   A    
C235  H129  S    
C17   C21   A    
C69   N3    S    
C29   C45   A    
C94   C142  S    
C28   C66   A    
C96   C144  S    
C113  C120  S    
C91   H3    S    
O12   Zn13  S    
C155  C169  A    
C53   H93   S    
C66   N8    S    
C32   O76   S    
C115  C118  S    
C89   H1    S    
O41   Zn7   S    
C3    O9    A    
C25   C65   A    
C127  C143  S    
C2    O6    A    
C128  C144  S    
C134  H62   S    
C44   H84   S    
C105  C112  S    
C45   H85   S    
C37   C71   A    
C35   C51   A    
C197  N13   T    
C107  C110  S    
C117  C221  S    
C129  C201  S    
O78   C234  S    
C77   O43   A    
C194  N10   T    
C19   C179  A    
C121  C193  S    
C214  N30   T    
C41   H81   S    
C102  H30   S    
C90   H18   S    
C17   C177  A    
C99   C147  S    
C45   C59   A    
C225  H98   S    
C46   C60   A    
C97   C145  S    
C73   O21   A    
C107  C211  S    
C239  H139  S    
C92   H4    S    
C165  O65   S    
O17   Zn6   S    
C199  N15   T    
C96   H24   S    
C104  C152  S    
C89   C96   S    
C74   O40   A    
C205  N21   T    
C88   O36   A    
C91   C94   S    
C113  H41   S    
O9    Zn14  S    
C156  C170  A    
C154  N2    A    
O6    Zn11  S    
C31   O75   S    
O69   C225  S    
C108  C212  S    
C15   H71   S    
C47   C59   A    
C28   O72   S    
C133  C205  S    
C35   C69   A    
C229  H109  S    
O40   Zn2   S    
C77   O25   A    
O38   Zn4   S    
C207  N23   T    
C33   C49   A    
C83   C138  S    
C86   C141  S    
C4    O10   A    
O13   Zn2   S    
C81   C140  S    
C213  N29   T    
C30   O74   S    
C111  H39   S    
C158  O58   S    
C74   C145  S    
C212  N28   T    
C1    C62   S    
C123  H51   S    
C203  N19   T    
C10   C16   A    
C217  N33   T    
C121  H49   S    
C130  C202  S    
C4    C63   S    
C11   H67   S    
C81   O47   A    
C5    C58   S    
C24   H80   S    
C18   C24   A    
C114  C218  S    
C83   O45   A    
C103  H15   S    
C230  H113  S    
C8    C59   S    
C89   C137  S    
C135  C151  S    
C185  C187  A    
C202  N18   T    
C34   O78   S    
C123  C139  S    
O80   C236  S    
C233  H123  S    
C121  C137  S    
C122  C127  S    
C189  C191  A    
C95   H7    S    
C72   N2    S    
C14   H70   S    
O3    Zn7   S    
C125  C141  S    
C227  H103  S    
C107  H35   S    
C56   C64   A    
C131  C147  S    
C105  H33   S    
O1    Zn10  S    
C161  C179  A    
C162  C180  A    
C114  C119  S    
C36   C52   A    
C111  C143  S    
C226  H102  S    
C37   C53   A    
C238  H138  S    
C86   O52   A    
C236  H130  S    
C84   O32   A    
C153  C171  A    
O20   Zn5   S    
C233  H121  S    
C239  H141  S    
C160  N4    A    
C77   C152  S    
C235  H128  S    
C90   C138  S    
C131  H59   S    
C163  O63   S    
C106  C111  S    
C75   C146  S    
C81   O29   A    
C38   C72   A    
O39   Zn1   S    
C83   O31   A    
C26   C66   A    
C78   O44   A    
C91   H19   S    
C116  C220  S    
C44   C58   A    
O23   Zn10  S    
O74   C230  S    
C89   H17   S    
C127  C199  S    
C42   H82   S    
C93   H5    S    
C23   C183  A    
O77   C233  S    
O30   Zn1   S    
C240  H143  S    
C218  N34   T    
C179  C189  A    
C55   H95   S    
C232  H118  S    
C156  N2    A    
C56   H96   S    
O35   Zn6   S    
C153  O53   S    
C102  H14   S    
C4    O12   A    
C5    O13   A    
C128  C200  S    
C84   O46   A    
O51   Zn13  S    
O18   Zn7   S    
C92   H20   S    
C238  H136  S    
O27   Zn14  S    
C164  C178  A    
C26   C42   A    
C19   H75   S    
C228  H108  S    
C87   O35   A    
C96   H8    S    
C173  C187  A    
O48   Zn10  S    
C39   C71   A    
C40   C72   A    
C99   H11   S    
C30   C46   A    
O10   Zn15  S    
C160  O60   S    
C97   H9    S    
C117  C149  S    
C22   C182  A    
C52   C62   A    
C201  N17   T    
C123  C195  S    
C53   C63   A    
C16   C176  A    
C54   C64   A    
C227  H105  S    
C80   O28   A    
C49   H89   S    
C100  C101  S    
C82   O30   A    
O1    Zn12  S    
C107  C139  S    
C30   C68   A    
C43   C57   A    
C175  C187  A    
C226  H100  S    
C35   O79   S    
C100  H28   S    
C236  H132  S    
C79   O41   A    
O1    Zn1   S    
C74   O22   A    
O3    Zn16  S    
C104  H32   S    
C8    O20   A    
O83   C239  S    
C124  C196  S    
O5    Zn10  S    
C80   C151  S    
C95   C143  S    
C209  N25   T    
C9    H65   S    
C40   O84   S    
C125  H53   S    
C130  C135  S    
C131  C134  S    
C20   H76   S    
C115  H43   S    
C21   H77   S    
C165  N7    A    
C166  N8    A    
C23   H79   S    
O33   Zn8   S    
C50   H90   S    
C55   C63   A    
C178  C190  A    
C37   O81   S    
O2    Zn11  S    
C43   H83   S    
C237  H134  S    
C98   C103  S    
C26   O70   S    
C115  C147  S    
O4    Zn13  S    
C232  H120  S    
C113  C217  S    
O25   Zn16  S    
C113  C145  S    
C118  C150  S    
C86   O34   A    
O22   Zn9   S    
C85   O51   A    
C29   C67   A    
C109  H37   S    
C5    O15   A    
C39   C55   A    
C84   C139  S    
C153  N1    A    
C40   C56   A    
C163  C177  A    
C184  C192  A    
C157  O57   S    
C34   C70   A    
C88   C143  S    
C135  C207  S    
C2    C61   S    
C103  C151  S    
C118  H46   S    
C237  H135  S    
O4    Zn6   S    
O71   C227  S    
C31   C47   A    
C32   C48   A    
C6    C57   S    
C161  O61   S    
C100  H12   S    
C231  H115  S    
C163  N5    A    
C136  H64   S    
C129  H57   S    
C49   C61   A    
C93   H21   S    
C198  N14   T    
C122  C138  S    
C239  H140  S    
C116  C148  S    
C228  H106  S    
C126  C142  S    
C230  H112  S    
C27   C65   A    
C159  O59   S    
C20   C180  A    
C75   O23   A    
C38   C54   A    
C168  O68   S    
C170  C186  A    
C166  C184  A    
C233  H122  S    
O3    Zn14  S    
C120  H48   S    
C79   C150  S    
C91   C139  S    
O7    Zn12  S    
C20   C22   A    
C168  C182  A    
C234  H126  S    
C97   H25   S    
C127  H55   S    
C186  C188  A    
C92   C140  S    
O16   Zn1   S    
C93   C141  S    
C195  N11   T    
C101  H29   S    
O44   Zn6   S    
C160  C174  A    
C124  C140  S    
C161  N5    A    
C88   O50   A    
C166  O66   S    
C200  N16   T    
O2    Zn9   S    
O8    Zn9   S    
C54   H94   S    
C229  H111  S    
O49   Zn15  S    
O4    Zn15  S    
C112  H40   S    
C41   C57   A    
C14   C174  A    
C180  C190  A    
C181  C191  A    
C6    O14   A    
C33   O77   S    
C10   C170  A    
C7    O19   A    
C92   C93   S    
C46   H86   S    
C104  H16   S    
C87   C142  S    
C3    C64   S    
C159  N3    A    
C97   C104  S    
C31   C67   A    
O42   Zn8   S    
C27   C43   A    
C99   C102  S    
C27   O71   S    
O72   C228  S    
O4    Zn8   S    
C227  H104  S    
C78   O26   A    
C208  N24   T    
C135  H63   S    
C231  H117  S    
O3    Zn5   S    
C70   N4    S    
C226  H101  S    
C238  H137  S    
C225  H97   S    
C126  H54   S    
C95   H23   S    
C110  C214  S    
O43   Zn5   S    
C19   C23   A    
C204  N20   T    
C51   C61   A    
C85   O33   A    
C222  N38   T    
C119  H47   S    
C211  N27   T    
C164  O64   S    
C122  H50   S    
C25   C41   A    
C21   C181  A    
C75   O37   A    
O81   C237  S    
C115  C219  S    
C39   O83   S    
C38   O82   S    
O47   Zn9   S    
C82   C137  S    
C87   O49   A    
C106  C138  S    
C52   H92   S    
C125  C197  S    
C134  C150  S    
O31   Zn2   S    
C116  C117  S    
C110  C142  S    
O45   Zn11  S    
C65   N7    S    
O2    Zn4   S    
C174  C188  A    
C132  C204  S    
C76   C147  S    
C172  C186  A    
C132  C133  S    
C90   H2    S    
C17   H73   S    
C206  N22   T    
C10   H66   S    
C240  H142  S    
C155  O55   S    
C32   C68   A    
C22   H78   S    
O70   C226  S    
O32   Zn3   S    
C25   O69   S    
O21   Zn12  S    
C167  O67   S    
C51   H91   S    
C134  C206  S    
O28   Zn15  S    
C131  C203  S    
C130  H58   S    
C119  C151  S    
C34   C50   A    
C177  C189  A    
C128  H56   S    
C133  C149  S    
C114  C146  S    
C230  H114  S    
O75   C231  S    
C108  C140  S    
O84   C240  S    
C98   C146  S    
O34   Zn5   S    
C105  C137  S    
C7    O17   A    
C68   N6    S    
C94   H6    S    
C16   H72   S    
O82   C238  S    
O52   Zn14  S    
C129  C136  S    
C210  N26   T    
C234  H124  S    
C67   N5    S    
C106  H34   S    
O73   C229  S    
O26   Zn13  S    
C154  C172  A    
C102  C150  S    
C118  C222  S    
C18   C178  A    
C101  H13   S    
C157  C175  A    
C158  C176  A    
C12   C14   A    
C7    C60   S    
C120  C152  S    
C236  H131  S    
C50   C62   A    
C112  C216  S    
C76   O38   A    
C106  C210  S    
C132  H60   S    
C122  C194  S    
C8    O18   A    
C132  C148  S    
O50   Zn16  S    
C98   H10   S    
C99   H27   S    
C183  C191  A    
C109  C141  S    
C154  O54   S    
C76   O24   A    
C12   H68   S    
C167  C181  A    
C229  H110  S    
C15   C175  A    
C112  C144  S    
C98   H26   S    
O2    Zn2   S    
C169  C185  A    
C224  N40   T    
C223  N39   T    
C193  N9    T    
C100  C148  S    
C101  C149  S    
C235  H127  S    
C232  H119  S    
O14   Zn3   S    
C240  H144  S    
O1    Zn3   S    
C220  N36   T    
C36   O80   S    
C78   C149  S    
C80   O42   A    
C219  N35   T    
C159  C173  A    
C136  C208  S    
C3    O11   A    
C1    O7    A    
O46   Zn12  S    
C71   N1    S    
C2    O8    A    
C162  N6    A    
C13   H69   S    
C196  N12   T    
C124  C125  S    
C111  C215  S    
