data_mof_unit_13722.cif
_audit_creation_date              2012-12-10T18:21:19-0500
_audit_creation_method            fapswitch 2.2
_symmetry_space_group_name_H-M    P1
_symmetry_Int_Tables_number       1
_space_group_crystal_system       triclinic
_cell_length_a                    9.412922
_cell_length_b                    10.623573
_cell_length_c                    17.238632
_cell_angle_alpha                 90.053439
_cell_angle_beta                  86.313398
_cell_angle_gamma                 90.423153
_cell_volume                      1720.22933856

loop_
_atom_site_label
_atom_site_type_symbol
_atom_type_description
_atom_site_fract_x
_atom_site_fract_y
_atom_site_fract_z
_atom_type_partial_charge
C1    C     C_R   0.500537 0.740626 0.499992 0.787264
C2    C     C_R   0.499464 0.259374 0.500002 0.785940
C3    C     C_3   0.440694 0.957273 0.436109 -0.166264
C4    C     C_3   0.559308 0.042728 0.563878 -0.163524
C5    C     C_3   0.574492 0.042628 0.436155 -0.163130
C6    C     C_3   0.425509 0.957374 0.563831 -0.160513
C7    C     C_3   0.498529 0.122397 0.499994 0.017858
C8    C     C_3   0.501472 0.877604 0.499993 0.018388
C9    C     C_3   0.364615 0.039316 0.499946 -0.139389
C10   C     C_3   0.635387 0.960686 0.500040 -0.138004
C11   C     C_3   0.956357 0.449124 0.437199 -0.034938
C12   C     C_3   0.043642 0.550876 0.562800 -0.032892
C13   C     C_3   0.049976 0.386493 0.495756 -0.037852
C14   C     C_3   0.950024 0.613507 0.504243 -0.036784
C15   C     C_3   0.057932 0.562647 0.441381 -0.035693
C16   C     C_3   0.942069 0.437353 0.558618 -0.033801
C17   C     C_R   0.481868 0.496637 0.649977 0.788209
C18   C     C_R   0.518141 0.503306 0.350003 0.787128
C19   C     C_R   0.474164 0.483378 0.734543 -0.029404
C20   C     C_R   0.525969 0.516465 0.265397 -0.031138
C21   C     C_R   0.594952 0.443307 0.771210 -0.173601
C22   C     C_R   0.404022 0.552570 0.228355 -0.180145
C23   C     C_R   0.589854 0.429928 0.851365 -0.117600
C24   C     C_R   0.409538 0.566384 0.148218 -0.127621
C25   C     C_R   0.464732 0.458175 0.895787 0.173071
C26   C     C_R   0.536356 0.542647 0.104146 0.188065
C27   C     C_R   0.342729 0.495396 0.859715 -0.064868
C28   C     C_R   0.659344 0.509290 0.140612 -0.044152
C29   C     C_R   0.347179 0.507482 0.779101 -0.194355
C30   C     C_R   0.654368 0.496629 0.221190 -0.197765
C31   C     C_2   0.465270 0.455200 0.980726 -0.171450
C32   C     C_2   0.536902 0.545921 0.019215 -0.172493
Cu1   Cu    Cu3+1 0.356850 0.500010 0.499980 0.935245
Cu2   Cu    Cu3+1 0.643150 0.499990 0.500020 0.936164
H1    H     H_    0.693514 0.422145 0.738013 0.141010
H2    H     H_    0.304214 0.570337 0.261222 0.142449
H3    H     H_    0.914884 0.406036 0.384405 0.113172
H4    H     H_    0.085117 0.593966 0.615594 0.113990
H5    H     H_    0.111595 0.615501 0.392137 0.108444
H6    H     H_    0.888407 0.384493 0.607860 0.108713
H7    H     H_    0.749816 0.469535 0.248663 0.140358
H8    H     H_    0.252653 0.537678 0.751869 0.141076
H9    H     H_    0.245700 0.517459 0.894082 0.136430
H10   H     H_    0.757670 0.490576 0.106556 0.136247
H11   H     H_    0.314283 0.592558 0.120199 0.126439
H12   H     H_    0.684278 0.400723 0.879119 0.127989
H13   H     H_    0.635285 0.080704 0.383932 0.133428
H14   H     H_    0.364714 0.919298 0.616054 0.135017
H15   H     H_    0.392337 0.919092 0.383849 0.130809
H16   H     H_    0.607665 0.080912 0.616137 0.132495
H17   H     H_    0.253653 0.074007 0.499913 0.129044
H18   H     H_    0.746349 0.925995 0.500073 0.129135
H19   H     H_    0.096182 0.290703 0.492102 0.112991
H20   H     H_    0.903819 0.709297 0.507896 0.113328
N1    N     N_3   0.141720 0.500030 0.499940 -0.155664
N2    N     N_3   0.858280 0.499970 0.500060 -0.155579
O1    O     O_R   0.379130 0.683150 0.499960 -0.583325
O2    O     O_R   0.620870 0.316850 0.500040 -0.583460
O3    O     O_R   0.620910 0.683140 0.500000 -0.586927
O4    O     O_R   0.379090 0.316860 0.500000 -0.587322
O5    O     O_R   0.365090 0.500030 0.613580 -0.586550
O6    O     O_R   0.634910 0.499970 0.386420 -0.586424
O7    O     O_R   0.606870 0.500020 0.613610 -0.584718
O8    O     O_R   0.393130 0.499980 0.386390 -0.586031
C33   C     C_2   0.610247 0.657129 0.980703 0.850997
O9    O     O_2   0.580990 0.692087 0.916114 -0.584965
O10   O     O_R   0.710151 0.725336 0.020702 -0.768337
H21   H     H_    0.751789 0.799373 0.989650 0.339067
C34   C     C_2   0.393172 0.344299 0.020079 0.854238
O11   O     O_2   0.296017 0.290718 0.989273 -0.596803
O12   O     O_R   0.438996 0.297587 0.090012 -0.755673
H22   H     H_    0.381601 0.221743 0.109800 0.334957

loop_
_geom_bond_atom_site_label_1
_geom_bond_atom_site_label_2
_ccdc_geom_bond_type
Cu1   N1    S    
C14   N2    S    
C25   C31   S    
C29   H8    S    
C27   C29   A    
C1    C8    S    
C2    C7    S    
C9    H17   S    
C10   H18   S    
C6    C9    S    
C3    H15   S    
C20   C30   A    
Cu2   N2    S    
C5    H13   S    
C6    H14   S    
C24   H11   S    
C19   C21   A    
C24   C26   A    
C1    O3    A    
C2    O4    A    
Cu2   O6    S    
C11   H3    S    
C34   O12   S    
C17   O5    A    
C11   C15   S    
C12   C16   S    
C33   O10   S    
C30   H7    S    
C23   H12   S    
C4    C7    S    
C5    C10   S    
C13   H19   S    
O10   H21   S    
C4    C6    S    
C3    C8    S    
C5    C7    S    
C26   C32   S    
C18   O6    A    
C6    C8    S    
C28   H10   S    
C4    H16   S    
C15   N1    S    
C16   N2    S    
C3    C9    S    
C1    O1    A    
C31   C32   D    
Cu1   Cu2   S    
C15   H5    S    
C16   H6    S    
Cu1   O5    S    
C14   H20   S    
C12   C14   S    
Cu1   O4    S    
C21   C23   A    
Cu2   O3    S    
C22   C24   A    
C4    C10   S    
C19   C29   A    
C7    C9    S    
Cu1   O1    S    
C20   C22   A    
C3    C5    S    
C2    O2    A    
C21   H1    S    
C25   C27   A    
C22   H2    S    
C26   C28   A    
C28   C30   A    
O12   H22   S    
C17   O7    A    
C11   C13   S    
C18   O8    A    
Cu1   O8    S    
Cu2   O7    S    
C17   C19   S    
C18   C20   S    
C23   C25   A    
C12   H4    S    
C34   O11   D    
C12   N1    S    
C27   H9    S    
C31   C34   S    
C8    C10   S    
C33   O9    D    
C13   C16   S    
Cu2   O2    S    
C14   C15   S    
C11   N2    S    
C32   C33   S    
C13   N1    S    
