data_mof_unit_45978.cif
_audit_creation_date              2012-12-10T17:30:16-0500
_audit_creation_method            fapswitch 2.2
_symmetry_space_group_name_H-M    P1
_symmetry_Int_Tables_number       1
_space_group_crystal_system       triclinic
_cell_length_a                    11.941429
_cell_length_b                    12.932404
_cell_length_c                    15.010614
_cell_angle_alpha                 90.165303
_cell_angle_beta                  86.061826
_cell_angle_gamma                 94.768105
_cell_volume                      2304.62357139

loop_
_atom_site_label
_atom_site_type_symbol
_atom_type_description
_atom_site_fract_x
_atom_site_fract_y
_atom_site_fract_z
_atom_type_partial_charge
C1    C     C_R   0.524057 0.701125 0.498823 0.882108
C2    C     C_R   0.351045 0.129619 0.498831 0.087407
C3    C     C_R   0.443300 0.865560 0.495468 -0.289571
C4    C     C_R   0.556700 0.134440 0.504536 -0.289571
C5    C     C_R   0.447815 0.971703 0.498056 0.142410
C6    C     C_R   0.552185 0.028297 0.501948 0.142410
C7    C     C_R   0.955788 0.424026 0.401902 -0.350430
C8    C     C_R   0.044212 0.575974 0.598098 -0.350436
C9    C     C_R   0.838951 0.428378 0.413205 0.024705
C10   C     C_R   0.161048 0.571622 0.586795 0.024706
C11   C     C_R   0.857412 0.529650 0.544347 -0.062207
C12   C     C_R   0.475943 0.298875 0.501177 0.882108
C13   C     C_R   0.142588 0.470349 0.455653 -0.062206
C14   C     C_R   0.975180 0.526737 0.536185 0.100473
C15   C     C_R   0.024820 0.473263 0.463815 0.100472
C16   C     C_R   0.500121 0.500157 0.673475 0.901281
C17   C     C_R   0.499878 0.499843 0.326525 0.901281
C18   C     C_R   0.397646 0.500830 0.190414 -0.262763
C19   C     C_R   0.602354 0.499170 0.809586 -0.262763
C20   C     C_R   0.499769 0.499686 0.230632 -0.076389
C21   C     C_R   0.500231 0.500316 0.769368 -0.076389
C22   C     C_R   0.601943 0.498459 0.179269 -0.262052
C23   C     C_R   0.704785 0.497810 0.942603 -0.220594
C24   C     C_R   0.398058 0.501547 0.820731 -0.262053
C25   C     C_R   0.602800 0.498602 0.087091 0.119948
C26   C     C_R   0.397201 0.501403 0.912909 0.119948
C27   C     C_R   0.499943 0.499890 0.046349 0.060662
C28   C     C_R   0.500058 0.500114 0.953651 0.060663
C29   C     C_R   0.396974 0.500961 0.098288 0.120579
C30   C     C_R   0.603026 0.499041 0.901712 0.120578
C31   C     C_R   0.704671 0.497577 0.035169 -0.220349
C32   C     C_R   0.295330 0.502429 0.964831 -0.220349
C33   C     C_3   0.242183 0.183915 0.496683 -0.371229
C34   C     C_R   0.295216 0.502193 0.057397 -0.220595
C35   C     C_3   0.132056 0.113422 0.493905 -0.401107
C36   C     C_3   0.030626 0.177388 0.490460 -0.868826
C37   C     C_3   0.757818 0.816085 0.503310 -0.371227
C38   C     C_3   0.867945 0.886579 0.506083 -0.401110
C39   C     C_3   0.969377 0.822613 0.509514 -0.868824
C40   C     C_R   0.458599 0.186253 0.501941 -0.111372
C41   C     C_R   0.541400 0.813747 0.498061 -0.111372
C42   C     C_R   0.651585 0.978796 0.502903 -0.208962
C43   C     C_R   0.348414 0.021204 0.497100 -0.208963
C44   C     C_R   0.648955 0.870381 0.501169 0.087407
H1    H     H_    0.318663 0.501513 0.230601 0.157561
H2    H     H_    0.215858 0.503000 0.096937 0.143110
H3    H     H_    0.638658 0.176660 0.508099 0.172760
H4    H     H_    0.361341 0.823340 0.491907 0.172760
H5    H     H_    0.730221 0.026259 0.505263 0.127101
H6    H     H_    0.269778 0.973741 0.494741 0.127101
H7    H     H_    0.182404 0.428418 0.401325 0.119358
H8    H     H_    0.817596 0.571581 0.598675 0.119357
H9    H     H_    0.214564 0.609172 0.634659 0.131934
H10   H     H_    0.785435 0.390828 0.365341 0.131934
H11   H     H_    0.025325 0.230374 0.548712 0.268539
H12   H     H_    0.681337 0.498484 0.769399 0.157562
H13   H     H_    0.037619 0.223609 0.427885 0.259569
H14   H     H_    0.952084 0.124932 0.491684 0.240753
H15   H     H_    0.135419 0.063477 0.433529 0.228298
H16   H     H_    0.119868 0.063741 0.554692 0.228747
H17   H     H_    0.233868 0.232410 0.557670 0.224591
H18   H     H_    0.249181 0.234806 0.436639 0.211511
H19   H     H_    0.962390 0.776383 0.572083 0.259574
H20   H     H_    0.974674 0.769636 0.451256 0.268536
H21   H     H_    0.047918 0.875069 0.508291 0.240753
H22   H     H_    0.880125 0.936263 0.445297 0.228749
H23   H     H_    0.991681 0.382877 0.345327 0.138914
H24   H     H_    0.864590 0.936520 0.566461 0.228297
H25   H     H_    0.750825 0.765194 0.563354 0.211510
H26   H     H_    0.766127 0.767591 0.442322 0.224593
H27   H     H_    0.008319 0.617123 0.654673 0.138915
H28   H     H_    0.680912 0.497644 0.210818 0.158417
H29   H     H_    0.319089 0.502363 0.789181 0.158417
H30   H     H_    0.783952 0.496607 0.066120 0.143291
H31   H     H_    0.216049 0.503400 0.933880 0.143291
H32   H     H_    0.784143 0.497003 0.903063 0.143110
N1    N     N_R   0.207800 0.519350 0.516680 -0.101639
N2    N     N_R   0.792200 0.480650 0.483320 -0.101639
O1    O     O_R   0.421700 0.658830 0.504450 -0.618536
O2    O     O_R   0.578300 0.341170 0.495550 -0.618537
O3    O     O_R   0.609310 0.646410 0.493750 -0.638743
O4    O     O_R   0.390690 0.353590 0.506250 -0.638743
O5    O     O_R   0.406180 0.506230 0.637500 -0.633443
O6    O     O_R   0.593820 0.493770 0.362500 -0.633443
O7    O     O_R   0.593800 0.493820 0.626800 -0.630116
O8    O     O_R   0.406200 0.506180 0.373200 -0.630117
Zn1   Zn    Zn3+2 0.374730 0.508290 0.507150 0.934306
Zn2   Zn    Zn3+2 0.625270 0.491710 0.492850 0.934305

loop_
_geom_bond_atom_site_label_1
_geom_bond_atom_site_label_2
_ccdc_geom_bond_type
C19   H12   S    
C25   C31   A    
O5    Zn1   S    
C26   C32   A    
C16   C21   S    
C37   H25   S    
C27   C29   A    
C35   C36   S    
C23   H32   S    
C32   H31   S    
O1    Zn1   S    
C39   H20   S    
C19   C21   A    
C24   C26   A    
C36   H14   S    
C5    C6    A    
C11   C14   A    
C24   H29   S    
C1    O3    A    
O4    Zn1   S    
C3    H4    S    
C17   C20   S    
C35   H15   S    
C10   H9    S    
C11   H8    S    
C13   H7    S    
C38   H22   S    
C33   H18   S    
C22   C25   A    
C34   H2    S    
C7    C15   A    
C5    C43   A    
C37   H26   S    
C39   H21   S    
C42   C44   A    
C22   H28   S    
C10   N1    A    
C13   N1    A    
C17   O8    A    
C23   C30   A    
C4    C40   A    
C4    C6    A    
C36   H13   S    
O8    Zn1   S    
C31   H30   S    
C29   C34   A    
C16   O5    A    
C35   H16   S    
C23   C31   A    
C12   C40   S    
C37   C38   S    
C11   N2    A    
C2    C43   A    
C12   O4    A    
C18   C29   A    
C2    C33   S    
C1    C41   S    
C38   H24   S    
C13   C15   A    
C16   O7    A    
C1    O1    A    
C41   C44   A    
C18   H1    S    
O7    Zn2   S    
N2    Zn2   S    
C7    C9    A    
C3    C41   A    
C8    H27   S    
C8    C14   A    
O6    Zn2   S    
C20   C22   A    
C3    C5    A    
C43   H6    S    
C25   C27   A    
C39   H19   S    
C26   C28   A    
C17   O6    A    
C37   C44   S    
C28   C30   A    
O2    Zn2   S    
C36   H11   S    
C38   C39   S    
C33   H17   S    
C12   O2    A    
C33   C35   S    
C18   C20   A    
C9    N2    A    
O3    Zn2   S    
C42   H5    S    
C7    H23   S    
C2    C40   A    
N1    Zn1   S    
C8    C10   A    
C6    C42   A    
C21   C24   A    
C27   C28   A    
C14   C15   A    
C9    H10   S    
C19   C30   A    
C32   C34   A    
C4    H3    S    
