data_mof_unit_54260.cif
_audit_creation_date              2012-12-10T18:05:47-0500
_audit_creation_method            fapswitch 2.2
_symmetry_space_group_name_H-M    P1
_symmetry_Int_Tables_number       1
_space_group_crystal_system       triclinic
_cell_length_a                    10.942992
_cell_length_b                    10.815592
_cell_length_c                    9.617442
_cell_angle_alpha                 89.993088
_cell_angle_beta                  90.916587
_cell_angle_gamma                 89.952293
_cell_volume                      1138.12568524

loop_
_atom_site_label
_atom_site_type_symbol
_atom_type_description
_atom_site_fract_x
_atom_site_fract_y
_atom_site_fract_z
_atom_type_partial_charge
C1    C     C_R   0.499932 0.262409 0.499972 0.794621
C2    C     C_R   0.499832 0.737608 0.500035 0.774967
C3    C     C_R   0.870935 0.496137 0.504456 -0.100156
C4    C     C_R   0.127386 0.491383 0.496240 -0.100330
C5    C     C_R   0.940173 0.476727 0.627589 0.045356
C6    C     C_R   0.057307 0.497063 0.372182 0.044175
C7    C     C_R   0.489070 0.063990 0.374038 -0.156268
C8    C     C_R   0.510022 0.936087 0.626034 -0.186463
C9    C     C_R   0.489040 0.936136 0.374053 -0.169164
C10   C     C_R   0.510173 0.063939 0.626016 -0.164611
C11   C     C_R   0.499604 0.871640 0.500036 -0.018313
C12   C     C_R   0.499743 0.128416 0.500012 -0.024173
C13   C     C_R   0.514300 0.392802 0.074087 0.062838
C14   C     C_R   0.487509 0.607371 0.926004 -0.001506
C15   C     C_R   0.516721 0.393115 0.926501 0.075533
C16   C     C_R   0.487942 0.607340 0.073666 0.052244
C17   C     C_R   0.262101 0.496489 0.498670 0.804542
C18   C     C_R   0.737381 0.498539 0.501530 0.817866
C19   C     C_R   0.167824 0.548314 0.007636 0.004261
C20   C     C_R   0.842964 0.284114 0.933829 0.013476
C21   C     C_R   0.111400 0.568375 0.135594 -0.221392
C22   C     C_R   0.882818 0.318054 0.801298 -0.245385
C23   C     C_R   0.109400 0.474546 0.235418 0.019451
C24   C     C_R   0.887278 0.442829 0.762297 0.020470
C25   C     C_R   0.155703 0.357130 0.205342 -0.285122
C26   C     C_R   0.850926 0.534391 0.855724 -0.295908
C27   C     C_R   0.208396 0.334767 0.077656 0.535930
C28   C     C_R   0.811082 0.501522 0.987672 0.514652
C29   C     C_R   0.215525 0.429345 0.979690 0.485332
C30   C     C_R   0.808798 0.376940 0.027863 0.487304
C31   C     C_R   0.931311 0.507396 0.378338 -0.170412
C32   C     C_R   0.066590 0.479036 0.621731 -0.246781
Cu1   Cu    Cu3+1 0.500000 0.500020 0.640660 0.991230
Cu2   Cu    Cu3+1 0.500000 0.499980 0.359340 1.015451
H1    H     H_    0.530317 0.306570 0.873113 0.123401
H2    H     H_    0.478431 0.694249 0.127330 0.111894
H3    H     H_    0.071240 0.657185 0.159563 0.187203
H4    H     H_    0.911274 0.247407 0.728689 0.178004
H5    H     H_    0.152086 0.283616 0.281724 0.173012
H6    H     H_    0.854033 0.631008 0.826379 0.171948
H7    H     H_    0.880244 0.517407 0.282422 0.254772
H8    H     H_    0.116839 0.465916 0.716295 0.228941
H9    H     H_    0.480337 0.112005 0.275548 0.167867
H10   H     H_    0.518587 0.888093 0.724541 0.146198
H11   H     H_    0.480362 0.888192 0.275568 0.147058
H12   H     H_    0.518884 0.111892 0.724503 0.153155
H13   H     H_    0.525831 0.305923 0.127899 0.152305
H14   H     H_    0.476279 0.694281 0.872205 0.119319
N1    N     N_R   0.500030 0.500030 0.852070 -0.145341
N2    N     N_R   0.499970 0.499970 0.147930 -0.161383
O1    O     O_R   0.499990 0.319660 0.618740 -0.579017
O2    O     O_R   0.500010 0.680340 0.381260 -0.594451
O3    O     O_R   0.499990 0.319630 0.381170 -0.587787
O4    O     O_R   0.500010 0.680370 0.618830 -0.607122
O5    O     O_R   0.319650 0.500020 0.618780 -0.528555
O6    O     O_R   0.680350 0.499980 0.381220 -0.499291
O7    O     O_R   0.319640 0.500000 0.381210 -0.585936
O8    O     O_R   0.680360 0.500000 0.618790 -0.590023
F1    F     F_    0.269006 0.402427 0.858107 -0.666467
F2    F     F_    0.772462 0.346409 0.157574 -0.682984
C33   C     C_3   0.172365 0.651378 0.900908 -0.376456
C34   C     C_3   0.209604 0.776748 0.962072 -0.828049
H15   H     H_    0.132560 0.818706 0.019110 0.254014
H16   H     H_    0.289210 0.767448 0.033776 0.240958
H17   H     H_    0.234173 0.840760 0.876658 0.249991
H18   H     H_    0.238118 0.628264 0.818535 0.252328
H19   H     H_    0.080903 0.661521 0.850896 0.203409
C35   C     C_3   0.835892 0.149157 0.972521 -0.388023
C36   C     C_3   0.962765 0.095919 0.002377 -0.719444
H20   H     H_    0.021995 0.105981 0.910338 0.266354
H21   H     H_    0.005670 0.144114 0.092597 0.273980
H22   H     H_    0.954955 0.996106 0.027734 0.227337
H23   H     H_    0.778802 0.135554 0.065802 0.244559
H24   H     H_    0.791428 0.096776 0.886099 0.189171
F3    F     F_    0.254481 0.221240 0.049231 -0.673142
F4    F     F_    0.773833 0.591129 0.075913 -0.677422

loop_
_geom_bond_atom_site_label_1
_geom_bond_atom_site_label_2
_ccdc_geom_bond_type
Cu1   O5    S    
Cu2   O6    S    
Cu1   O8    S    
C27   C29   A    
C20   C30   A    
C9    H11   S    
C19   C21   A    
C24   C26   A    
C14   N1    A    
C35   H24   S    
C22   H4    S    
C3    C18   S    
C36   H21   S    
C1    O3    A    
C34   H16   S    
C33   H18   S    
C18   O8    A    
C29   F1    S    
C35   C36   S    
C30   F2    S    
C10   H12   S    
Cu2   O7    S    
C7    H9    S    
C17   O5    A    
C18   O6    A    
C5    C32   A    
C23   C25   A    
C6    C31   A    
C36   H20   S    
C1    C12   S    
C27   F3    S    
C2    C11   S    
C10   C12   A    
C15   H1    S    
C7    C12   A    
Cu2   N2    S    
C4    C6    A    
C2    O4    A    
C13   H13   S    
C14   H14   S    
C35   H23   S    
C36   H22   S    
C34   H15   S    
C9    C11   A    
C33   H19   S    
Cu1   Cu2   S    
C3    C31   A    
C1    O1    A    
C4    C32   A    
C2    O2    A    
C4    C17   S    
C20   C22   A    
C13   C15   A    
C14   C16   A    
Cu1   O1    S    
C19   C29   A    
Cu1   O4    S    
C7    C9    A    
C31   H7    S    
C34   H17   S    
Cu2   O2    S    
C20   C35   S    
C8    H10   S    
C16   N2    A    
C3    C5    A    
C25   C27   A    
C26   C28   A    
C21   C23   A    
C25   H5    S    
C26   H6    S    
C5    C24   S    
C19   C33   S    
C8    C11   A    
C6    C23   S    
C28   C30   A    
C22   C24   A    
C15   N1    A    
C33   C34   S    
C13   N2    A    
C21   H3    S    
Cu2   O3    S    
C8    C10   A    
C32   H8    S    
Cu1   N1    S    
C16   H2    S    
C17   O7    A    
C28   F4    S    
