data_mof_unit_40634.cif
_audit_creation_date              2012-12-10T18:09:11-0500
_audit_creation_method            fapswitch 2.2
_symmetry_space_group_name_H-M    P1
_symmetry_Int_Tables_number       1
_space_group_crystal_system       triclinic
_cell_length_a                    12.613407
_cell_length_b                    13.00556
_cell_length_c                    13.660205
_cell_angle_alpha                 91.627264
_cell_angle_beta                  96.344025
_cell_angle_gamma                 97.102593
_cell_volume                      2208.05694576

loop_
_atom_site_label
_atom_site_type_symbol
_atom_type_description
_atom_site_fract_x
_atom_site_fract_y
_atom_site_fract_z
_atom_type_partial_charge
C1    C     C_R   0.560009 0.692065 0.511020 0.849486
C2    C     C_R   0.485194 0.038252 0.444291 0.093151
C3    C     C_R   0.407829 0.001132 0.364381 0.074436
C4    C     C_R   0.516994 0.496852 0.318261 0.870040
C5    C     C_R   0.405056 0.900060 0.326439 -0.230644
C6    C     C_R   0.471390 0.834288 0.373661 -0.175721
C7    C     C_R   0.474414 0.130851 0.492702 -0.299120
C8    C     C_R   0.340131 0.168000 0.361501 0.439624
C9    C     C_R   0.599745 0.803272 0.517505 -0.189671
C10   C     C_R   0.899108 0.355494 0.642811 -0.314212
C11   C     C_R   0.211922 0.626864 0.383368 0.033764
C12   C     C_1   0.527064 0.493306 0.217054 -0.183255
C13   C     C_R   0.110016 0.654352 0.358071 -0.247241
C14   C     C_R   0.023973 0.606071 0.402161 -0.188096
C15   C     C_R   0.039981 0.529450 0.471917 0.015127
C16   C     C_R   0.441142 0.308413 0.482688 0.851001
C17   C     C_R   0.145572 0.504467 0.495210 0.235411
C18   C     C_R   0.956172 0.477552 0.519905 -0.013801
C19   C     C_R   0.980009 0.404283 0.591902 0.195944
C20   C     C_R   0.084301 0.380617 0.612595 -0.283094
C21   C     C_R   0.165661 0.429301 0.563976 -0.184183
C22   C     C_R   0.848905 0.495371 0.499776 -0.058353
C23   C     C_R   0.334730 0.065852 0.324383 -0.204587
C24   C     C_R   0.795252 0.378680 0.621157 0.005413
C25   C     C_R   0.482707 0.502501 0.681658 0.891509
C26   C     C_1   0.468240 0.496086 0.781701 -0.213345
C27   C     C_2   0.442502 0.480579 0.967506 0.184051
C28   C     C_2   0.534273 0.485613 0.027556 -0.236340
C29   C     C_1   0.533493 0.489644 0.131019 -0.000835
C30   C     C_1   0.454279 0.488990 0.865906 0.002969
C31   C     C_3   0.332806 0.478617 0.004610 -0.359175
C32   C     C_3   0.238501 0.447099 0.924677 -0.865881
C33   C     C_3   0.740692 0.774786 0.662307 -0.339736
C34   C     C_R   0.410949 0.200291 0.448345 -0.171919
C35   C     C_3   0.810434 0.830391 0.751733 -0.918246
C36   C     C_3   0.722204 0.127095 0.522359 -0.416606
C37   C     C_3   0.736582 0.148230 0.414882 -0.779944
C38   C     C_R   0.686259 0.844483 0.589475 0.119423
C39   C     C_R   0.722671 0.950880 0.590171 -0.185122
C40   C     C_R   0.665353 0.018359 0.533965 0.100366
C41   C     C_R   0.565433 0.977651 0.479312 0.087127
C42   C     C_R   0.545691 0.870568 0.456430 0.033659
H1    H     H_    0.611753 0.490122 0.998853 0.148886
H2    H     H_    0.243740 0.406786 0.582034 0.214233
H3    H     H_    0.348181 0.870359 0.263732 0.138823
H4    H     H_    0.277685 0.039210 0.260803 0.161242
H5    H     H_    0.517491 0.151153 0.564827 0.156227
H6    H     H_    0.796384 0.982407 0.634562 0.154828
H7    H     H_    0.236859 0.505315 0.866755 0.266112
H8    H     H_    0.244974 0.369856 0.890649 0.259203
H9    H     H_    0.161717 0.442655 0.957961 0.251054
H10   H     H_    0.325982 0.422402 0.064102 0.220233
H11   H     H_    0.325544 0.556773 0.036204 0.202422
H12   H     H_    0.464946 0.755518 0.343974 0.152206
H13   H     H_    0.315463 0.303886 0.316076 0.348004
H14   H     H_    0.885391 0.872553 0.729406 0.257220
H15   H     H_    0.765045 0.884939 0.788967 0.265723
H16   H     H_    0.833944 0.772235 0.805258 0.258171
H17   H     H_    0.677350 0.721595 0.692262 0.211079
H18   H     H_    0.791537 0.727528 0.622859 0.226549
H19   H     H_    0.778840 0.087552 0.382875 0.252576
H20   H     H_    0.657726 0.150050 0.370507 0.258717
H21   H     H_    0.785451 0.224838 0.410923 0.251507
H22   H     H_    0.681405 0.188114 0.553709 0.213329
H23   H     H_    0.731461 0.343011 0.660552 0.127580
H24   H     H_    0.803949 0.137171 0.563973 0.200005
H25   H     H_    0.103137 0.324038 0.666527 0.155367
H26   H     H_    0.916065 0.300461 0.698752 0.140665
H27   H     H_    0.822476 0.547964 0.445579 0.129301
H28   H     H_    0.279204 0.663674 0.349171 0.130779
H29   H     H_    0.946687 0.630813 0.380599 0.138121
H30   H     H_    0.097768 0.712896 0.304638 0.148621
N1    N     N_R   0.773270 0.445590 0.549770 -0.098740
N2    N     N_R   0.227520 0.553880 0.450750 -0.128324
O1    O     O_R   0.631100 0.627590 0.523760 -0.625197
O2    O     O_R   0.455900 0.662370 0.491970 -0.603719
O3    O     O_R   0.600200 0.480080 0.377830 -0.601950
O4    O     O_R   0.425000 0.514870 0.346040 -0.629154
O5    O     O_R   0.544100 0.337630 0.508030 -0.604197
O6    O     O_R   0.368900 0.372410 0.476240 -0.629398
O7    O     O_R   0.575000 0.485130 0.653960 -0.613909
O8    O     O_R   0.399800 0.519920 0.622170 -0.621348
O9    O     O_3   0.277778 0.232423 0.309321 -0.764214
Zn1   Zn    Zn3+2 0.616980 0.476780 0.521230 0.926938
Zn2   Zn    Zn3+2 0.383020 0.523220 0.478770 0.931052

loop_
_geom_bond_atom_site_label_1
_geom_bond_atom_site_label_2
_ccdc_geom_bond_type
C15   C18   A    
C12   C29   T    
C8    O9    S    
C14   H29   S    
C20   H25   S    
C3    C23   A    
C2    C7    A    
C31   H10   S    
C37   H20   S    
C11   H28   S    
C9    C42   A    
C35   H16   S    
C28   C29   S    
O5    Zn1   S    
C36   H24   S    
O1    Zn1   S    
C2    C41   A    
C8    C23   A    
C18   C19   A    
C41   C42   A    
C16   C34   S    
C19   C20   A    
C4    C12   S    
C22   H27   S    
C33   H17   S    
C23   H4    S    
C13   C14   A    
C27   C30   S    
C25   O7    A    
C6    H12   S    
C37   H21   S    
C38   C39   A    
C27   C31   S    
C1    O1    A    
C36   C40   S    
C1    C9    S    
C39   C40   A    
O3    Zn1   S    
C10   C24   A    
C25   C26   S    
C5    H3    S    
C17   C21   A    
C16   O6    A    
C7    H5    S    
C32   H9    S    
C4    O4    A    
O6    Zn2   S    
C21   H2    S    
C31   C32   S    
C10   C19   A    
C8    C34   A    
C17   N2    A    
C31   H11   S    
C32   H8    S    
C24   H23   S    
O4    Zn2   S    
C40   C41   A    
C26   C30   T    
C33   H18   S    
C25   O8    A    
C7    C34   A    
H13   O9    S    
O7    Zn1   S    
C15   C17   A    
C36   C37   S    
N1    Zn1   S    
C35   H14   S    
C18   C22   A    
C1    O2    A    
C3    C5    A    
C11   N2    A    
C37   H19   S    
C13   H30   S    
C10   H26   S    
O8    Zn2   S    
C28   H1    S    
C33   C38   S    
C35   H15   S    
C16   O5    A    
C2    C3    A    
C4    O3    A    
C11   C13   A    
C5    C6    A    
C9    C38   A    
C33   C35   S    
N2    Zn2   S    
C24   N1    A    
C32   H7    S    
C20   C21   A    
C6    C42   A    
C27   C28   D    
C14   C15   A    
C22   N1    A    
C36   H22   S    
O2    Zn2   S    
C39   H6    S    
