data_mof_unit_26240.cif
_audit_creation_date              2012-12-10T17:34:58-0500
_audit_creation_method            fapswitch 2.2
_symmetry_space_group_name_H-M    P1
_symmetry_Int_Tables_number       1
_space_group_crystal_system       triclinic
_cell_length_a                    12.336069
_cell_length_b                    13.185212
_cell_length_c                    13.863255
_cell_angle_alpha                 105.214058
_cell_angle_beta                  73.830507
_cell_angle_gamma                 116.708943
_cell_volume                      1909.71252485

loop_
_atom_site_label
_atom_site_type_symbol
_atom_type_description
_atom_site_fract_x
_atom_site_fract_y
_atom_site_fract_z
_atom_type_partial_charge
C1    C     C_R   0.144565 0.713556 0.507841 0.778524
C2    C     C_1   0.975852 0.507233 0.791597 -0.170206
C3    C     C_R   0.739692 0.972642 0.372541 -0.134779
C4    C     C_R   0.774840 0.164260 0.464109 -0.046801
C5    C     C_R   0.178564 0.917646 0.565334 -0.186901
C6    C     C_R   0.255318 0.033730 0.579314 -0.139784
C7    C     C_R   0.381745 0.070157 0.543356 -0.174279
C8    C     C_R   0.434153 0.990414 0.489144 0.087406
C9    C     C_R   0.353537 0.874396 0.463738 0.088894
C10   C     C_R   0.563701 0.022139 0.459371 0.049871
C11   C     C_R   0.610852 0.941428 0.395041 0.138183
C12   C     C_R   0.984367 0.504354 0.686387 0.814280
C13   C     C_R   0.527678 0.831806 0.356306 -0.026863
C14   C     C_R   0.401220 0.800242 0.391094 -0.288157
C15   C     C_R   0.647840 0.131537 0.494775 -0.233839
C16   C     C_R   0.820817 0.083576 0.405381 -0.216271
C17   C     C_R   0.226414 0.836555 0.509653 -0.086053
C18   C     C_R   0.641053 0.675754 0.661207 -0.260495
C19   C     C_R   0.251852 0.351371 0.364096 0.082624
C20   C     C_R   0.350413 0.318562 0.334733 -0.258272
C21   C     C_R   0.449250 0.374453 0.386293 -0.165853
C22   C     C_R   0.450670 0.464433 0.468552 -0.015111
C23   C     C_R   0.856019 0.286143 0.485314 0.800505
C24   C     C_R   0.347153 0.494599 0.496120 0.214717
C25   C     C_R   0.550392 0.525366 0.524200 -0.104699
C26   C     C_R   0.544061 0.614504 0.606506 0.060639
C27   C     C_R   0.440573 0.640964 0.634179 0.412767
C28   C     C_R   0.345794 0.583020 0.578539 -0.261252
C29   C     C_R   0.657116 0.501988 0.501965 0.058994
C30   C     C_R   0.742800 0.648443 0.635386 0.055883
C31   C     C_R   0.015986 0.496035 0.313617 0.827777
C32   C     C_1   0.026530 0.494520 0.208321 -0.185435
C33   C     C_2   0.049440 0.490981 0.011866 0.527548
C34   C     C_2   0.965830 0.511153 0.984740 -0.247732
C35   C     C_1   0.970049 0.509386 0.879910 0.075114
C36   C     C_1   0.037028 0.492986 0.119299 -0.137805
Cu1   Cu    Cu3+1 0.899780 0.525060 0.522890 0.940416
Cu2   Cu    Cu3+1 0.100220 0.474940 0.477110 0.927284
H1    H     H_    0.892921 0.529095 0.041406 0.126786
H2    H     H_    0.340060 0.718274 0.356105 0.168111
H3    H     H_    0.817421 0.695282 0.677588 0.128339
H4    H     H_    0.638502 0.744236 0.724071 0.185698
H5    H     H_    0.669553 0.435813 0.441095 0.120854
H6    H     H_    0.175479 0.307451 0.323702 0.124054
H7    H     H_    0.522857 0.345283 0.360218 0.134775
H8    H     H_    0.350201 0.249542 0.271791 0.147143
H9    H     H_    0.272297 0.610579 0.603670 0.221454
H10   H     H_    0.919374 0.106947 0.382494 0.154232
H11   H     H_    0.779617 0.912572 0.329457 0.187282
H12   H     H_    0.617096 0.193822 0.547030 0.149913
H13   H     H_    0.081599 0.891240 0.599574 0.154827
H14   H     H_    0.435152 0.161649 0.557134 0.128743
H15   H     H_    0.217077 0.095791 0.620925 0.149541
N1    N     N_R   0.748810 0.563010 0.557590 -0.178966
N2    N     N_R   0.250540 0.437620 0.443020 -0.192512
O1    O     O_R   0.025040 0.682470 0.528790 -0.581949
O2    O     O_R   0.194310 0.640150 0.490130 -0.602659
O3    O     O_R   0.903380 0.524130 0.659910 -0.573337
O4    O     O_R   0.072660 0.481800 0.621240 -0.584296
O5    O     O_R   0.805690 0.359850 0.509870 -0.589878
O6    O     O_R   0.974960 0.317530 0.471210 -0.584325
O7    O     O_R   0.927340 0.518200 0.378760 -0.573430
O8    O     O_R   0.096620 0.475870 0.340090 -0.591707
O9    O     O_3   0.434811 0.729514 0.712654 -0.586515
C37   C     C_3   0.357098 0.681460 0.799748 -0.274106
H16   H     H_    0.391707 0.628034 0.822497 0.170222
H17   H     H_    0.260259 0.629969 0.787819 0.186773
H18   H     H_    0.356578 0.752417 0.863806 0.191182
O10   O     O_3   0.141145 0.467337 0.936286 -0.579932
C38   C     C_3   0.227550 0.455715 0.976395 -0.323021
H19   H     H_    0.182531 0.380785 0.017615 0.177660
H20   H     H_    0.275963 0.536166 0.026433 0.166516
H21   H     H_    0.298330 0.439711 0.912360 0.183117
C39   C     C_2   0.566070 0.746502 0.278665 0.329511
H22   H     H_    0.509237 0.655267 0.278451 0.082860
O11   O     O_2   0.655996 0.776239 0.210861 -0.553796

loop_
_geom_bond_atom_site_label_1
_geom_bond_atom_site_label_2
_ccdc_geom_bond_type
C2    C35   T    
C28   H9    S    
C19   C20   A    
C18   C26   A    
C2    C12   S    
C16   H10   S    
Cu1   O7    S    
C3    H11   S    
C7    C8    A    
C24   N2    A    
C30   N1    A    
C26   C27   A    
C39   O11   D    
C32   C36   T    
C1    O1    A    
C7    H14   S    
C10   C15   A    
C18   H4    S    
C5    C6    A    
C5    C17   A    
C29   N1    A    
C33   C36   S    
C34   C35   S    
C15   H12   S    
C12   O4    A    
Cu2   N2    S    
C8    C9    A    
C37   H17   S    
C22   C25   A    
C30   H3    S    
C38   H19   S    
C18   C30   A    
Cu1   O3    S    
C33   O10   S    
Cu2   O6    S    
C12   O3    A    
C21   C22   A    
C29   H5    S    
Cu1   O1    S    
C31   O7    A    
C21   H7    S    
C25   C29   A    
C23   O5    A    
C39   H22   S    
C34   H1    S    
C31   O8    A    
C27   O9    S    
C4    C23   S    
C25   C26   A    
C4    C16   A    
C9    C14   A    
Cu1   Cu2   S    
C1    O2    A    
Cu2   O2    S    
C31   C32   S    
C37   H18   S    
C38   H21   S    
C33   C34   D    
C20   C21   A    
Cu1   N1    S    
C9    C17   A    
C22   C24   A    
C6    H15   S    
C19   H6    S    
Cu2   O8    S    
C19   N2    A    
C24   C28   A    
C6    C7    A    
C1    C17   S    
O9    C37   S    
C4    C15   A    
C11   C13   A    
O10   C38   S    
Cu1   O5    S    
C3    C11   A    
C10   C11   A    
C14   H2    S    
Cu2   O4    S    
C23   O6    A    
C13   C39   S    
C8    C10   A    
C37   H16   S    
C27   C28   A    
C5    H13   S    
C38   H20   S    
C13   C14   A    
C20   H8    S    
C3    C16   A    
