data_mof_unit_14853.cif
_audit_creation_date              2012-12-11T14:06:38-0500
_audit_creation_method            fapswitch 2.2
_symmetry_space_group_name_H-M    P1
_symmetry_Int_Tables_number       1
_space_group_crystal_system       triclinic
_cell_length_a                    6.937467
_cell_length_b                    17.28434
_cell_length_c                    24.06468
_cell_angle_alpha                 104.317705
_cell_angle_beta                  89.882096
_cell_angle_gamma                 89.873689
_cell_volume                      2795.93967935

loop_
_atom_site_label
_atom_site_type_symbol
_atom_type_description
_atom_site_fract_x
_atom_site_fract_y
_atom_site_fract_z
_atom_type_partial_charge
O1    O     O_R   0.494290 0.391990 0.999150 -0.538777
O2    O     O_R   0.827170 0.534410 0.082350 -0.542861
O3    O     O_R   0.994360 0.608010 0.000850 -0.537693
C1    C     C_R   0.657902 0.552704 0.105627 0.735971
O4    O     O_R   0.824210 0.388010 0.004470 -0.542087
O5    O     O_R   0.991370 0.460560 0.922410 -0.539072
C2    C     C_R   0.654038 0.354098 0.998844 0.765950
O6    O     O_R   0.497270 0.539440 0.077590 -0.536032
O7    O     O_3   0.659770 0.523970 0.973170 -0.372878
V1    V     V_3+5 0.935840 0.495550 0.004980 1.414470
O8    O     O_R   0.320910 0.465590 0.917650 -0.547922
C3    C     C_R   0.152669 0.448994 0.894041 0.705949
O9    O     O_R   0.323870 0.611990 0.995530 -0.544498
C4    C     C_R   0.154346 0.645137 0.998684 0.773308
V2    V     V_3+5 0.435470 0.504450 0.995020 1.407143
O10   O     O_3   0.161670 0.476030 0.026830 -0.368375
C5    C     C_2   0.142779 0.730381 0.998543 -0.337031
H1    H     H_    0.277126 0.761250 0.995422 0.150564
C6    C     C_2   0.972940 0.769895 0.002317 -0.338198
H2    H     H_    0.838629 0.739045 0.005504 0.148818
C7    C     C_R   0.065832 0.238708 0.627795 0.567752
N1    N     N_R   0.089205 0.319453 0.649519 -0.553877
C8    C     C_R   0.094594 0.369991 0.613619 0.558416
C9    C     C_R   0.097015 0.339219 0.553694 -0.024352
C10   C     C_R   0.073372 0.256480 0.530820 -0.023463
C11   C     C_R   0.053985 0.205948 0.568062 -0.077881
C12   C     C_R   0.126574 0.388929 0.516283 -0.149782
C13   C     C_R   0.134198 0.356836 0.457067 -0.158730
C14   C     C_R   0.102994 0.274895 0.433738 -0.011856
C15   C     C_R   0.069139 0.224475 0.470640 0.000394
C16   C     C_R   0.033258 0.142317 0.447415 -0.109527
C17   C     C_R   0.028302 0.090498 0.485230 -0.028885
C18   C     C_R   0.033843 0.123490 0.544940 -0.107245
C19   C     C_R   0.102972 0.242211 0.374185 0.538219
N2    N     N_R   0.040004 0.165710 0.351883 -0.542620
C20   C     C_R   0.999578 0.116564 0.387425 0.513101
O11   O     O_2   0.057839 0.190014 0.663750 -0.515416
O12   O     O_2   0.098433 0.449700 0.635765 -0.519263
H3    H     H_    0.147887 0.452561 0.532671 0.169255
H4    H     H_    0.159792 0.396809 0.429558 0.177066
O13   O     O_2   0.160849 0.287242 0.338748 -0.531089
O14   O     O_2   0.920725 0.044468 0.364846 -0.530403
H5    H     H_    0.029111 0.084061 0.573612 0.208998
C21   C     C_R   0.133310 0.074088 0.258535 -0.026314
C22   C     C_R   0.111647 0.047813 0.198899 -0.190716
H6    H     H_    0.204201 0.000672 0.174763 0.170171
C23   C     C_R   0.972644 0.080572 0.169406 -0.163673
C24   C     C_R   0.850621 0.142127 0.200260 -0.047045
C25   C     C_R   0.870018 0.170571 0.260897 0.151377
C26   C     C_R   0.014427 0.136697 0.290171 0.273003
C27   C     C_R   0.289004 0.386326 0.734660 0.164516
C28   C     C_R   0.301181 0.417758 0.794735 -0.221574
H7    H     H_    0.433830 0.445512 0.813271 0.133239
C29   C     C_R   0.142701 0.414948 0.830921 -0.071790
C30   C     C_R   0.973413 0.377346 0.806537 -0.208252
H8    H     H_    0.850484 0.371856 0.833117 0.136521
C31   C     C_R   0.960549 0.345000 0.747663 -0.141164
H9    H     H_    0.830410 0.314436 0.730868 0.147143
C32   C     C_R   0.113208 0.351119 0.710745 0.384622
C33   C     C_R   0.532910 0.883063 0.613095 0.572156
N3    N     N_R   0.513238 0.831686 0.648089 -0.571425
C34   C     C_R   0.518079 0.750461 0.625710 0.586496
C35   C     C_R   0.536694 0.718199 0.566113 -0.031208
C36   C     C_R   0.557911 0.770264 0.529824 -0.018642
C37   C     C_R   0.557447 0.853409 0.553400 -0.026805
C38   C     C_R   0.534420 0.635305 0.541987 -0.131431
C39   C     C_R   0.551127 0.604660 0.482667 -0.150325
C40   C     C_R   0.573727 0.656067 0.446031 -0.027715
C41   C     C_R   0.579416 0.739103 0.469809 -0.018038
C42   C     C_R   0.606276 0.791051 0.433708 -0.040960
C43   C     C_R   0.606814 0.873950 0.457745 -0.094878
C44   C     C_R   0.580933 0.904761 0.516769 -0.067489
C45   C     C_R   0.586883 0.626614 0.386013 0.565799
N4    N     N_R   0.611025 0.677980 0.351084 -0.547068
C46   C     C_R   0.629340 0.758716 0.374271 0.563540
O15   O     O_2   0.527986 0.962629 0.635889 -0.514262
O16   O     O_2   0.505315 0.700969 0.661000 -0.499136
H10   H     H_    0.517748 0.593798 0.568796 0.175287
H11   H     H_    0.546399 0.540524 0.465654 0.166595
O17   O     O_2   0.571039 0.547440 0.362781 -0.520663
O18   O     O_2   0.669044 0.807686 0.339952 -0.513621
H12   H     H_    0.625426 0.915399 0.430972 0.175751
H13   H     H_    0.580965 0.968967 0.533609 0.169204
C47   C     C_R   0.476319 0.671601 0.253107 0.134160
C48   C     C_R   0.508569 0.650669 0.192343 0.066631
C49   C     C_R   0.644890 0.589303 0.168477 -0.085599
C50   C     C_R   0.768685 0.561598 0.205196 -0.229523
H14   H     H_    0.876092 0.516392 0.187949 0.159129
C51   C     C_R   0.757307 0.591851 0.264358 -0.137148
H15   H     H_    0.858727 0.570676 0.291384 0.156143
C52   C     C_R   0.614019 0.647001 0.289203 0.345922
C53   C     C_R   0.320024 0.853707 0.738685 0.007816
C54   C     C_R   0.309604 0.883130 0.798829 -0.176858
H16   H     H_    0.177964 0.875667 0.821235 0.163069
C55   C     C_R   0.468168 0.921243 0.830389 -0.097814
C56   C     C_R   0.637518 0.930945 0.800762 -0.179054
H17   H     H_    0.761704 0.960582 0.823693 0.134806
C57   C     C_R   0.648390 0.903230 0.741107 -0.009431
H18   H     H_    0.780221 0.911812 0.719270 0.141051
C58   C     C_R   0.492336 0.863535 0.709484 0.289211
C59   C     C_2   0.635315 0.269419 0.000580 -0.351363
H19   H     H_    0.749865 0.246444 0.022817 0.145965
C60   C     C_2   0.477940 0.222582 0.981540 -0.029397
O19   O     O_R   0.618210 0.960470 0.922400 -0.537386
O20   O     O_R   0.291310 0.111960 0.995450 -0.541869
O21   O     O_R   0.124210 0.039530 0.077580 -0.536335
C61   C     C_R   0.461809 0.143532 0.994939 0.764198
O22   O     O_R   0.288310 0.965490 0.917650 -0.547227
O23   O     O_R   0.121180 0.892010 0.999220 -0.536754
C62   C     C_R   0.457481 0.950483 0.893938 0.706752
O24   O     O_R   0.621230 0.107990 0.000760 -0.545690
O25   O     O_3   0.455770 0.976060 0.026840 -0.372614
V3    V     V_3+5 0.179680 0.004440 0.995020 1.416524
O26   O     O_R   0.791670 0.888040 0.004570 -0.544674
C63   C     C_R   0.961261 0.854999 0.001747 0.780389
O27   O     O_R   0.794680 0.034510 0.082370 -0.547478
C64   C     C_R   0.962905 0.050731 0.105893 0.723901
V4    V     V_3+5 0.680070 0.995560 0.005010 1.422293
O28   O     O_3   0.953840 0.023940 0.973160 -0.372891
C65   C     C_3   0.733858 0.235118 0.294647 -0.301911
C66   C     C_3   0.583940 0.201107 0.328267 -0.725762
H20   H     H_    0.468662 0.172603 0.298572 0.225005
H21   H     H_    0.646512 0.156772 0.349389 0.245387
H22   H     H_    0.519861 0.250223 0.361919 0.241924
H23   H     H_    0.813183 0.283450 0.324166 0.216654
H24   H     H_    0.654881 0.266690 0.266900 0.224057
C67   C     C_3   0.463867 0.392353 0.697748 -0.348871
C68   C     C_3   0.532017 0.311383 0.661043 -0.719323
H25   H     H_    0.678764 0.317685 0.644362 0.216486
H26   H     H_    0.534563 0.265917 0.686561 0.243660
H27   H     H_    0.439790 0.290070 0.622953 0.226247
H28   H     H_    0.432821 0.432693 0.669547 0.230749
H29   H     H_    0.586242 0.419956 0.725277 0.181632
C69   C     C_3   0.293456 0.716812 0.278657 -0.339140
C70   C     C_3   0.190304 0.681265 0.322943 -0.711465
H30   H     H_    0.252577 0.703341 0.366241 0.224194
H31   H     H_    0.195406 0.614997 0.310083 0.235905
H32   H     H_    0.037360 0.700894 0.326571 0.229900
H33   H     H_    0.326347 0.780653 0.297657 0.234274
H34   H     H_    0.183348 0.714121 0.245001 0.177309
C71   C     C_3   0.413520 0.698538 0.153944 -0.359801
C72   C     C_3   0.561797 0.739694 0.123733 -0.704392
H35   H     H_    0.664047 0.775129 0.155472 0.241622
H36   H     H_    0.643771 0.696264 0.090499 0.201561
H37   H     H_    0.486479 0.780832 0.102033 0.208597
H38   H     H_    0.317012 0.660014 0.122167 0.185651
H39   H     H_    0.323173 0.748107 0.178414 0.190075
C73   C     C_2   0.150609 0.813471 0.706746 0.424801
H40   H     H_    0.144396 0.802402 0.660408 0.056876
O29   O     O_2   0.016300 0.791359 0.731799 -0.520512
C74   C     C_3   0.324451 0.242991 0.941752 -0.330697
C75   C     C_3   0.309852 0.178548 0.885370 -0.768273
H41   H     H_    0.453624 0.167311 0.864453 0.227228
H42   H     H_    0.252610 0.121888 0.892447 0.232982
H43   H     H_    0.209949 0.198930 0.855834 0.228439
H44   H     H_    0.182394 0.250051 0.963880 0.185322
H45   H     H_    0.354557 0.298467 0.928485 0.199231
C76   C     C_2   0.042154 0.002082 0.464331 0.389263
H46   H     H_    0.091860 0.974408 0.421316 0.115790
O30   O     O_2   0.006901 0.958651 0.496089 -0.536960
C77   C     C_2   0.283553 0.035936 0.287082 0.430301
H47   H     H_    0.317274 0.059489 0.332018 0.054193
O31   O     O_2   0.373716 0.977642 0.260516 -0.518608
C78   C     C_2   0.706788 0.177567 0.168353 0.348133
H48   H     H_    0.584132 0.142642 0.148559 0.069060
O32   O     O_2   0.727956 0.245339 0.162771 -0.532432

loop_
_geom_bond_atom_site_label_1
_geom_bond_atom_site_label_2
_ccdc_geom_bond_type
O22   V3    S    
C70   H32   S    
O19   C62   A    
C50   H14   S    
C59   H19   S    
C53   C73   S    
C45   N4    A    
C34   O16   S    
C20   O14   S    
N2    C20   A    
C4    C5    S    
C9    C12   A    
C1    O6    A    
C68   H25   S    
O26   C63   A    
C70   H30   S    
C48   C49   A    
C67   H28   S    
O20   C61   A    
C47   C69   S    
C14   C15   A    
O24   V4    S    
C74   H45   S    
O20   V3    S    
C78   H48   S    
C73   O29   D    
O5    C3    A    
C15   C16   A    
C65   H24   S    
C30   H8    S    
C31   C32   A    
C25   C65   S    
C1    C49   S    
C13   H4    S    
V2    O10   S    
O27   C64   A    
C19   N2    A    
V4    O28   S    
C66   H22   S    
V3    O28   S    
O8    V2    S    
C47   C48   A    
C55   C56   A    
C12   H3    S    
C40   C41   A    
C56   C57   A    
C8    C9    A    
C42   C43   A    
O1    V2    S    
C47   C52   A    
C51   C52   A    
O7    V1    S    
O19   V4    S    
C60   C74   S    
C43   H12   S    
C38   C39   A    
C35   C38   A    
C59   C60   D    
O9    C4    A    
C76   O30   D    
C72   H37   S    
C41   C42   A    
C19   O13   S    
N1    C8    A    
O25   V3    S    
C77   O31   D    
C7    C11   A    
C28   C29   A    
C77   H47   S    
C17   C76   S    
C22   C23   A    
C38   H10   S    
N4    C46   A    
O21   V3    S    
C39   C40   A    
C18   H5    S    
C39   H11   S    
C9    C10   A    
C48   C71   S    
C69   H33   S    
O4    C2    A    
C71   H39   S    
C49   C50   A    
C46   O18   S    
C10   C11   A    
C22   H6    S    
C14   C19   A    
C33   O15   S    
C27   C28   A    
C33   N3    A    
N4    C52   S    
O2    C1    A    
C34   C35   A    
C11   C18   A    
C23   C24   A    
C75   H43   S    
C6    C63   S    
C74   C75   S    
C56   H17   S    
N2    C26   S    
C5    H1    S    
C65   C66   S    
C54   H16   S    
C74   H44   S    
C73   H40   S    
C66   H20   S    
O26   V4    S    
O3    C4    A    
C71   H38   S    
C24   C25   A    
C75   H42   S    
C33   C37   A    
C57   H18   S    
O6    V2    S    
C57   C58   A    
C30   C31   A    
O9    V2    S    
C76   H46   S    
C72   H36   S    
N3    C58   S    
C27   C32   A    
C21   C77   S    
C67   C68   S    
C37   C44   A    
C68   H27   S    
N1    C32   S    
C21   C22   A    
C53   C58   A    
C21   C26   A    
C10   C15   A    
C70   H31   S    
C29   C30   A    
C13   C14   A    
O1    C2    A    
C61   O24   A    
C16   C17   A    
C67   H29   S    
C55   C62   S    
C68   H26   S    
O5    V1    S    
O8    C3    A    
O22   C62   A    
C69   C70   S    
C24   C78   S    
C69   H34   S    
O23   V3    S    
C8    O12   S    
C36   C41   A    
C27   C67   S    
C17   C18   A    
C6    H2    S    
C50   C51   A    
C40   C45   A    
O4    V1    S    
O21   C64   A    
O3    V1    S    
V1    O10   S    
C71   C72   S    
C36   C37   A    
O25   V4    S    
C31   H9    S    
C78   O32   D    
C53   C54   A    
C5    C6    D    
C45   O17   S    
O27   V4    S    
C65   H23   S    
O7    V2    S    
N3    C34   A    
C66   H21   S    
C44   H13   S    
O23   C63   A    
C35   C36   A    
C23   C64   S    
C7    O11   S    
C75   H41   S    
C54   C55   A    
C25   C26   A    
C2    C59   S    
C42   C46   A    
C72   H35   S    
C16   C20   A    
C60   C61   S    
C43   C44   A    
C51   H15   S    
C7    N1    A    
C3    C29   S    
C28   H7    S    
C12   C13   A    
O2    V1    S    
