data_mof_unit_22343.cif
_audit_creation_date              2012-12-11T15:53:30-0500
_audit_creation_method            fapswitch 2.2
_symmetry_space_group_name_H-M    P1
_symmetry_Int_Tables_number       1
_space_group_crystal_system       triclinic
_cell_length_a                    6.953774
_cell_length_b                    14.562626
_cell_length_c                    15.971428
_cell_angle_alpha                 90.4022
_cell_angle_beta                  90.181597
_cell_angle_gamma                 89.984179
_cell_volume                      1617.30198733

loop_
_atom_site_label
_atom_site_type_symbol
_atom_type_description
_atom_site_fract_x
_atom_site_fract_y
_atom_site_fract_z
_atom_type_partial_charge
O1    O     O_R   0.361600 0.167310 0.164620 -0.533330
O2    O     O_R   0.638400 0.832690 0.835380 -0.544553
O3    O     O_R   0.691080 0.157570 0.338750 -0.544420
O4    O     O_R   0.308920 0.842430 0.661250 -0.545286
O5    O     O_R   0.861410 0.336420 0.339360 -0.535939
O6    O     O_R   0.138590 0.663580 0.660640 -0.536409
C1    C     C_R   0.522195 0.135284 0.367469 0.682646
C2    C     C_R   0.477845 0.864933 0.632717 0.676280
O7    O     O_R   0.691320 0.156280 0.165240 -0.548906
O8    O     O_R   0.308680 0.843720 0.834760 -0.547557
O9    O     O_R   0.861640 0.335130 0.164600 -0.544041
O10   O     O_R   0.138360 0.664870 0.835400 -0.542586
C3    C     C_R   0.520681 0.134811 0.135000 0.693250
C4    C     C_R   0.478625 0.869579 0.860339 0.695162
O11   O     O_R   0.361370 0.168600 0.339370 -0.542791
O12   O     O_R   0.638630 0.831400 0.660630 -0.545464
O13   O     O_3   0.527990 0.310540 0.251980 -0.362346
O14   O     O_3   0.472010 0.689460 0.748020 -0.361942
V1    V     V_3+5 0.802830 0.240980 0.251990 1.392522
V2    V     V_3+5 0.197170 0.759020 0.748010 1.400443
O15   O     O_R   0.191360 0.346160 0.165220 -0.529418
O16   O     O_R   0.808640 0.653840 0.834780 -0.529019
C5    C     C_R   0.021950 0.365981 0.134466 0.674026
C6    C     C_R   0.977844 0.634504 0.865828 0.685943
O17   O     O_R   0.191130 0.347440 0.338740 -0.541925
O18   O     O_R   0.808870 0.652560 0.661260 -0.542430
C7    C     C_R   0.022454 0.369637 0.367617 0.682829
C8    C     C_R   0.977551 0.630327 0.632411 0.680981
V3    V     V_3+5 0.302840 0.262750 0.251990 1.420773
V4    V     V_3+5 0.697160 0.737250 0.748010 1.423473
O19   O     O_3   0.027820 0.193180 0.251990 -0.377227
O20   O     O_3   0.972180 0.806820 0.748010 -0.380746
C9    C     C_3   0.923257 0.419969 0.524298 -0.140516
C10   C     C_3   0.076750 0.579942 0.475767 -0.140136
C11   C     C_3   0.096447 0.468589 0.566928 -0.138035
C12   C     C_3   0.903558 0.531326 0.433141 -0.137708
H1    H     H_    0.175857 0.442977 0.622467 0.109623
H2    H     H_    0.824138 0.556932 0.377603 0.109932
H3    H     H_    0.859974 0.353591 0.543995 0.103842
H4    H     H_    0.140043 0.646318 0.456078 0.104121
C13   C     C_3   0.987913 0.560617 0.562117 -0.010126
C14   C     C_3   0.012093 0.439301 0.437947 -0.010819
C15   C     C_3   0.814553 0.512764 0.520247 -0.114724
C16   C     C_3   0.185453 0.487149 0.479821 -0.114940
H5    H     H_    0.661447 0.523463 0.537206 0.108577
H6    H     H_    0.338559 0.476447 0.462864 0.108635
C17   C     C_R   0.849966 0.498871 0.941747 -0.083521
C18   C     C_R   0.149521 0.501426 0.058247 -0.082783
H7    H     H_    0.736562 0.496292 0.895061 0.161539
H8    H     H_    0.263013 0.504141 0.104888 0.160652
C19   C     C_R   0.857974 0.430509 0.003564 0.010568
C20   C     C_R   0.140540 0.570088 0.996731 0.005230
C21   C     C_R   0.009621 0.432194 0.063634 -0.164687
C22   C     C_R   0.989749 0.568090 0.936468 -0.167175
C23   C     C_R   0.679123 0.027069 0.469161 -0.159826
C24   C     C_R   0.321008 0.973652 0.531482 -0.159818
H9    H     H_    0.819530 0.046573 0.446192 0.116007
H10   H     H_    0.180602 0.954172 0.554472 0.116195
C25   C     C_R   0.668065 0.962014 0.533035 -0.153294
C26   C     C_R   0.332067 0.038723 0.467623 -0.154841
H11   H     H_    0.800554 0.933388 0.557289 0.118166
H12   H     H_    0.199578 0.067393 0.443414 0.118111
C27   C     C_R   0.488840 0.934335 0.565002 -0.041958
C28   C     C_R   0.511267 0.066234 0.435502 -0.044790
C29   C     C_R   0.652391 0.062628 0.004689 -0.201487
C30   C     C_R   0.331007 0.953912 0.979074 -0.205729
H13   H     H_    0.764928 0.111374 0.010128 0.138229
H14   H     H_    0.201832 0.913872 0.968195 0.116095
C31   C     C_R   0.644910 0.004788 0.933806 0.156046
C32   C     C_R   0.329570 0.022637 0.041041 0.135279
C33   C     C_R   0.489205 0.942235 0.925893 -0.095852
C34   C     C_R   0.503068 0.068768 0.062402 -0.100040
C35   C     C_2   0.711787 0.355974 0.000411 0.363559
H15   H     H_    0.738218 0.290459 0.029759 0.034940
O21   O     O_2   0.559353 0.366490 0.963474 -0.536810
C36   C     C_2   0.283402 0.645937 0.000534 0.374609
H16   H     H_    0.252444 0.711905 0.972557 0.044335
O22   O     O_2   0.437257 0.636084 0.036487 -0.534443
C37   C     C_3   0.793982 0.019964 0.865756 -0.374170
C38   C     C_3   0.769622 0.114259 0.825442 -0.759483
H17   H     H_    0.625015 0.119561 0.796078 0.232955
H18   H     H_    0.786490 0.170542 0.872061 0.229368
H19   H     H_    0.880067 0.123319 0.776109 0.216337
H20   H     H_    0.940456 0.013735 0.892837 0.179733
H21   H     H_    0.785429 0.969938 0.813860 0.205279
C39   C     C_3   0.136616 0.058987 0.067440 -0.322881
C40   C     C_3   0.106979 0.154509 0.028217 -0.664324
H22   H     H_    0.238395 0.197496 0.027164 0.230612
H23   H     H_    0.062192 0.147347 0.961906 0.197059
H24   H     H_    0.997864 0.193017 0.064267 0.193694
H25   H     H_    0.019648 0.012680 0.045920 0.150600
H26   H     H_    0.122771 0.060150 0.136531 0.192998

loop_
_geom_bond_atom_site_label_1
_geom_bond_atom_site_label_2
_ccdc_geom_bond_type
C30   H14   S    
C40   H22   S    
O11   V3    S    
C23   C25   A    
O13   V3    S    
C4    C33   S    
C12   C14   S    
O4    C2    A    
V1    O19   S    
C17   H7    S    
O9    V1    S    
C9    H3    S    
C10   H4    S    
C9    C14   S    
C11   H1    S    
C36   O22   D    
O3    C1    A    
C39   H25   S    
C37   H20   S    
O12   V4    S    
C8    C13   S    
C26   H12   S    
C35   H15   S    
C31   C33   A    
O7    C3    A    
O13   V1    S    
O5    C7    A    
O7    V1    S    
O6    C8    A    
O8    V2    S    
C29   H13   S    
O3    V1    S    
O14   V4    S    
C10   C12   S    
C18   H8    S    
C2    O12   A    
C13   C15   S    
C10   C13   S    
C14   C16   S    
C38   H19   S    
C11   C13   S    
C20   C22   A    
C5    C21   S    
O15   C5    A    
O17   V3    S    
C18   C21   A    
C25   H11   S    
C9    C15   S    
C10   C16   S    
C36   H16   S    
C38   H18   S    
O8    C4    A    
C39   C40   S    
C17   C19   A    
C1    O11   A    
C16   H6    S    
O15   V3    S    
C24   C26   A    
C19   C21   A    
C30   C33   A    
C23   C28   A    
O10   V2    S    
O1    V3    S    
C24   C27   A    
C11   C16   S    
C15   H5    S    
C17   C22   A    
O18   V4    S    
C23   H9    S    
O16   C6    A    
C31   C37   S    
O1    C3    A    
C35   O21   D    
C12   H2    S    
C32   C39   S    
C37   H21   S    
V2    O20   S    
O16   V4    S    
O18   C8    A    
C19   C35   S    
C38   H17   S    
C20   C36   S    
O5    V1    S    
C3    C34   S    
O17   C7    A    
C29   C34   A    
O6    V2    S    
O10   C6    A    
C25   C27   A    
O2    V4    S    
C26   C28   A    
C40   H23   S    
V3    O19   S    
C39   H26   S    
V4    O20   S    
C7    C14   S    
C30   C32   A    
C29   C31   A    
O9    C5    A    
C9    C11   S    
C24   H10   S    
O14   V2    S    
O2    C4    A    
C1    C28   S    
C2    C27   S    
C37   C38   S    
O4    V2    S    
C18   C20   A    
C40   H24   S    
C12   C15   S    
C32   C34   A    
C6    C22   S    
