data_mof_unit_28406.cif
_audit_creation_date              2012-12-10T21:09:58-0500
_audit_creation_method            fapswitch 2.2
_symmetry_space_group_name_H-M    P1
_symmetry_Int_Tables_number       1
_space_group_crystal_system       triclinic
_cell_length_a                    12.810444
_cell_length_b                    17.370865
_cell_length_c                    16.740634
_cell_angle_alpha                 89.411187
_cell_angle_beta                  98.820617
_cell_angle_gamma                 90.424949
_cell_volume                      3680.95161743

loop_
_atom_site_label
_atom_site_type_symbol
_atom_type_description
_atom_site_fract_x
_atom_site_fract_y
_atom_site_fract_z
_atom_type_partial_charge
C1    C     C_R   0.498826 0.352607 0.500437 0.943766
C2    C     C_R   0.495000 0.647367 0.498870 0.913642
C3    C     C_R   0.471617 0.729917 0.495583 -0.146899
C4    C     C_R   0.480849 0.269611 0.500009 -0.163959
C5    C     C_R   0.444425 0.769344 0.421144 0.325764
C6    C     C_R   0.503349 0.225595 0.571698 0.310952
C7    C     C_R   0.419817 0.848458 0.421557 0.330708
C8    C     C_R   0.477851 0.146409 0.569709 0.330875
C9    C     C_R   0.413652 0.884328 0.495283 0.010159
C10   C     C_R   0.422708 0.114934 0.498494 0.007883
C11   C     C_1   0.404416 0.965623 0.495258 0.053513
C12   C     C_1   0.407224 0.034019 0.496127 0.044201
C13   C     C_R   0.426389 0.454190 0.823721 -0.056458
C14   C     C_R   0.534763 0.566537 0.171691 -0.061032
C15   C     C_R   0.430121 0.454520 0.739782 -0.012629
C16   C     C_R   0.533779 0.563849 0.256022 -0.001961
C17   C     C_R   0.568686 0.546273 0.755415 -0.141340
C18   C     C_R   0.467460 0.436521 0.248320 -0.144795
C19   C     C_R   0.569526 0.547940 0.840190 0.360191
C20   C     C_R   0.466635 0.435610 0.163527 0.366031
C21   C     C_R   0.497814 0.501253 0.875116 0.062483
C22   C     C_R   0.500314 0.501391 0.124375 0.061375
C23   C     C_R   0.297171 0.499384 0.483045 0.887233
C24   C     C_R   0.702082 0.503761 0.516888 0.908793
C25   C     C_1   0.498778 0.501511 0.963201 0.037475
C26   C     C_1   0.499308 0.501376 0.036279 0.037857
C27   C     C_R   0.813993 0.516536 0.529857 -0.169318
C28   C     C_R   0.183325 0.503183 0.469719 -0.170856
C29   C     C_R   0.016151 0.441532 0.422132 0.411652
C30   C     C_R   0.963413 0.604476 0.551315 0.409529
C31   C     C_R   0.124669 0.447893 0.419551 -0.049741
C32   C     C_R   0.855472 0.589775 0.553526 -0.041526
C33   C     C_R   0.133426 0.559283 0.511932 0.013175
C34   C     C_R   0.875931 0.459855 0.502540 0.060004
C35   C     C_R   0.023803 0.550251 0.514779 -0.033621
C36   C     C_R   0.972754 0.482605 0.480779 -0.029624
C37   C     C_R   0.435495 0.844066 0.569132 0.055027
C38   C     C_R   0.397567 0.159480 0.427668 0.058462
C39   C     C_R   0.465924 0.767548 0.568351 -0.352701
C40   C     C_R   0.429199 0.236243 0.428830 -0.341344
H1    H     H_    0.622995 0.582066 0.727763 0.123412
H2    H     H_    0.442075 0.386259 0.278797 0.138212
H3    H     H_    0.486312 0.737522 0.625536 0.187315
H4    H     H_    0.410259 0.270713 0.374293 0.175145
H5    H     H_    0.375960 0.418822 0.699920 0.140687
H6    H     H_    0.561144 0.613045 0.292625 0.178970
N1    N     N_R   0.500030 0.500030 0.707230 -0.101823
N2    N     N_R   0.499970 0.499970 0.292770 -0.110716
O1    O     O_R   0.500000 0.389130 0.566570 -0.552433
O2    O     O_R   0.500000 0.610870 0.433430 -0.561784
O3    O     O_R   0.499990 0.389100 0.433480 -0.645174
O4    O     O_R   0.500010 0.610900 0.566520 -0.652969
O5    O     O_R   0.346360 0.500000 0.555540 -0.631615
O6    O     O_R   0.653640 0.500000 0.444460 -0.603355
O7    O     O_R   0.346350 0.499970 0.422460 -0.615107
O8    O     O_R   0.653650 0.500030 0.577540 -0.633330
Zn1   Zn    Zn3+2 0.500000 0.500020 0.588860 0.938879
Zn2   Zn    Zn3+2 0.500000 0.499980 0.411140 0.955025
C41   C     C_3   0.839895 0.375338 0.500189 -0.352281
C42   C     C_3   0.824635 0.345065 0.584298 -0.418143
C43   C     C_3   0.796404 0.259479 0.581883 -0.809215
H7    H     H_    0.723594 0.249118 0.537947 0.265477
H8    H     H_    0.862039 0.225365 0.564155 0.246473
H9    H     H_    0.782356 0.239771 0.642665 0.269832
H10   H     H_    0.898772 0.353700 0.627473 0.225627
H11   H     H_    0.760468 0.376384 0.607261 0.261300
H12   H     H_    0.765549 0.368540 0.456878 0.222466
H13   H     H_    0.899712 0.337156 0.480353 0.250769
C44   C     C_3   0.200622 0.622602 0.559050 -0.269183
C45   C     C_3   0.215437 0.606271 0.650873 -0.296284
C46   C     C_3   0.294862 0.661456 0.697564 -0.890358
H14   H     H_    0.374615 0.651393 0.681922 0.275703
H15   H     H_    0.271327 0.722072 0.683449 0.262513
H16   H     H_    0.298258 0.651068 0.763477 0.243006
H17   H     H_    0.139514 0.610988 0.674398 0.223475
H18   H     H_    0.243721 0.546518 0.663782 0.222481
H19   H     H_    0.279287 0.628656 0.540039 0.178293
H20   H     H_    0.169286 0.680796 0.543178 0.240177
O9    O     O_3   0.639150 0.594460 0.889478 -0.786278
H21   H     H_    0.683380 0.623421 0.855639 0.322478
O10   O     O_3   0.433633 0.371447 0.118264 -0.781412
H22   H     H_    0.414292 0.330248 0.154839 0.325643
C47   C     C_3   0.785677 0.654103 0.577280 -0.412125
C48   C     C_3   0.769059 0.718079 0.512326 -0.294665
C49   C     C_3   0.741533 0.794448 0.548026 -0.891883
H23   H     H_    0.676921 0.786482 0.584382 0.262433
H24   H     H_    0.811763 0.817973 0.587657 0.265357
H25   H     H_    0.716119 0.836551 0.498639 0.256547
H26   H     H_    0.840779 0.727304 0.483587 0.261981
H27   H     H_    0.704127 0.700745 0.463858 0.211834
H28   H     H_    0.707015 0.633445 0.587251 0.202487
H29   H     H_    0.820012 0.677338 0.637128 0.188547
C50   C     C_3   0.177328 0.388355 0.372549 -0.403633
C51   C     C_3   0.185526 0.416727 0.286348 -0.307576
C52   C     C_3   0.204886 0.349990 0.231942 -0.920852
H30   H     H_    0.276047 0.317308 0.258682 0.246336
H31   H     H_    0.135673 0.310374 0.223834 0.265333
H32   H     H_    0.216833 0.372635 0.171707 0.269740
H33   H     H_    0.111946 0.446378 0.258943 0.215503
H34   H     H_    0.251114 0.458958 0.287828 0.250365
H35   H     H_    0.256660 0.372181 0.404417 0.194663
H36   H     H_    0.132136 0.333308 0.370347 0.209839
O11   O     O_3   0.949149 0.397853 0.367182 -0.799097
H37   H     H_    0.980878 0.389806 0.317827 0.345346
O12   O     O_3   0.005369 0.675553 0.574222 -0.804697
H38   H     H_    0.982000 0.690169 0.625549 0.331006
C53   C     C_3   0.432338 0.881725 0.649947 -0.383918
C54   C     C_3   0.543993 0.903263 0.690722 -0.310066
C55   C     C_3   0.541876 0.941202 0.772234 -0.842884
H39   H     H_    0.493520 0.994324 0.764451 0.289117
H40   H     H_    0.508372 0.900863 0.813701 0.250991
H41   H     H_    0.623554 0.956872 0.799844 0.244790
H42   H     H_    0.593628 0.850776 0.700458 0.206754
H43   H     H_    0.580725 0.943679 0.651074 0.253114
H44   H     H_    0.382021 0.933908 0.642852 0.219276
H45   H     H_    0.395516 0.841295 0.689560 0.193278
C56   C     C_3   0.340387 0.126277 0.349628 -0.396165
C57   C     C_3   0.419516 0.097140 0.297082 -0.309515
C58   C     C_3   0.362947 0.062629 0.218632 -0.839127
H46   H     H_    0.312896 0.106724 0.182998 0.252179
H47   H     H_    0.422157 0.041936 0.181957 0.247322
H48   H     H_    0.312690 0.013151 0.231874 0.285442
H49   H     H_    0.470569 0.145611 0.282165 0.215912
H50   H     H_    0.470749 0.052435 0.330720 0.250621
H51   H     H_    0.286715 0.078664 0.362389 0.214734
H52   H     H_    0.289450 0.171142 0.315857 0.193697
O13   O     O_3   0.440758 0.729680 0.349669 -0.785779
H53   H     H_    0.387623 0.753881 0.307942 0.336474
O14   O     O_3   0.550156 0.260907 0.641898 -0.767612
H54   H     H_    0.527517 0.233850 0.688770 0.337959
O15   O     O_3   0.405184 0.892818 0.351715 -0.796221
H55   H     H_    0.445938 0.870229 0.312128 0.337913
O16   O     O_3   0.508144 0.097938 0.635054 -0.801082
H56   H     H_    0.573621 0.118409 0.667194 0.338710
C59   C     C_3   0.345335 0.404164 0.856466 -0.401040
C60   C     C_3   0.251127 0.452337 0.872774 -0.338598
C61   C     C_3   0.170168 0.402733 0.907902 -0.853659
H57   H     H_    0.139854 0.356385 0.865113 0.256977
H58   H     H_    0.206434 0.376547 0.966347 0.277518
H59   H     H_    0.102765 0.438992 0.918670 0.247336
H60   H     H_    0.278293 0.498987 0.916113 0.228084
H61   H     H_    0.212508 0.479295 0.815326 0.212645
H62   H     H_    0.316302 0.358424 0.812385 0.193987
H63   H     H_    0.382437 0.374425 0.912725 0.236921
C62   C     C_3   0.572636 0.639056 0.134078 -0.419721
C63   C     C_3   0.686052 0.629825 0.116921 -0.302168
C64   C     C_3   0.723817 0.702291 0.077416 -0.833392
H64   H     H_    0.672452 0.714279 0.018951 0.281577
H65   H     H_    0.722570 0.752458 0.117889 0.249433
H66   H     H_    0.805970 0.693958 0.065713 0.249002
H67   H     H_    0.739613 0.618324 0.174561 0.217507
H68   H     H_    0.690785 0.580423 0.076022 0.253082
H69   H     H_    0.518636 0.653205 0.077381 0.215394
H70   H     H_    0.570107 0.688579 0.175350 0.205571

loop_
_geom_bond_atom_site_label_1
_geom_bond_atom_site_label_2
_ccdc_geom_bond_type
C38   C40   A    
C50   C51   S    
C44   H19   S    
C52   H30   S    
C24   C27   S    
C15   N1    A    
C16   N2    A    
C62   C63   S    
C52   H32   S    
C59   C60   S    
C49   H23   S    
O8    Zn1   S    
C47   H29   S    
C61   H58   S    
C14   C62   S    
C30   C35   A    
C19   C21   A    
C37   C53   S    
C44   C45   S    
C18   H2    S    
C58   H48   S    
C24   O6    A    
O1    Zn1   S    
C54   C55   S    
C29   O11   S    
C18   C20   A    
C54   H43   S    
C43   H8    S    
C57   C58   S    
C60   H61   S    
C2    O2    A    
C64   H64   S    
C41   H12   S    
C38   C56   S    
C35   C36   A    
C53   C54   S    
C45   C46   S    
C56   H52   S    
C7    O15   S    
C33   C44   S    
C62   H69   S    
C59   H62   S    
C27   C32   A    
C61   H57   S    
C42   H11   S    
C41   C42   S    
C20   O10   S    
C13   C59   S    
C44   H20   S    
C43   H7    S    
C48   H27   S    
C6    O14   S    
C10   C12   S    
C23   O5    A    
C58   H47   S    
C27   C34   A    
C61   H59   S    
C49   H24   S    
O2    Zn2   S    
C4    C40   A    
C64   H66   S    
C48   C49   S    
C4    C6    A    
C55   H41   S    
C50   H35   S    
C5    C7    A    
O5    Zn1   S    
C17   C19   A    
C39   H3    S    
C25   C26   T    
C31   C50   S    
O10   H22   S    
C63   H67   S    
C42   C43   S    
C54   H42   S    
C43   H9    S    
C60   H60   S    
C41   H13   S    
N1    Zn1   S    
C1    O3    A    
C47   C48   S    
C29   C36   A    
C51   H34   S    
C11   C12   T    
C5    O13   S    
C9    C37   A    
C13   C21   A    
O3    Zn2   S    
C57   H50   S    
C23   C28   S    
C19   O9    S    
C9    C11   S    
C53   H44   S    
C2    O4    A    
C63   H68   S    
C62   H70   S    
C8    C10   A    
C59   H63   S    
C20   C22   A    
C28   C33   A    
C13   C15   A    
C30   O12   S    
C45   H18   S    
O16   H56   S    
C14   C16   A    
C48   H26   S    
C15   H5    S    
C16   H6    S    
O15   H55   S    
O11   H37   S    
C46   H15   S    
C63   C64   S    
O6    Zn2   S    
C49   H25   S    
C7    C9    A    
C32   C47   S    
C21   C25   S    
C64   H65   S    
C8    O16   S    
C28   C31   A    
C17   N1    A    
C60   C61   S    
C3    C5    A    
C18   N2    A    
C50   H36   S    
C42   H10   S    
C46   H16   S    
C6    C8    A    
C58   H46   S    
C52   H31   S    
N2    Zn2   S    
C23   O7    A    
C24   O8    A    
C47   H28   S    
O12   H38   S    
C10   C38   A    
C1    C4    S    
C14   C22   A    
C55   H40   S    
C2    C3    S    
O14   H54   S    
C46   H14   S    
C37   C39   A    
C56   C57   S    
C30   C32   A    
C34   C41   S    
C1    O1    A    
C51   H33   S    
C33   C35   A    
C34   C36   A    
C57   H49   S    
C51   C52   S    
C17   H1    S    
C53   H45   S    
O4    Zn1   S    
C3    C39   A    
O9    H21   S    
C40   H4    S    
C29   C31   A    
C22   C26   S    
O7    Zn2   S    
C45   H17   S    
C55   H39   S    
C56   H51   S    
O13   H53   S    
