data_mof_unit_16389.cif
_audit_creation_date              2012-12-11T20:00:43-0500
_audit_creation_method            fapswitch 2.2
_symmetry_space_group_name_H-M    P1
_symmetry_Int_Tables_number       1
_space_group_crystal_system       triclinic
_cell_length_a                    8.274787
_cell_length_b                    16.319321
_cell_length_c                    26.935105
_cell_angle_alpha                 72.484451
_cell_angle_beta                  96.68495
_cell_angle_gamma                 96.001333
_cell_volume                      3435.77144229

loop_
_atom_site_label
_atom_site_type_symbol
_atom_type_description
_atom_site_fract_x
_atom_site_fract_y
_atom_site_fract_z
_atom_type_partial_charge
Ba1   Ba    Ba6+2 0.337820 0.939830 0.518500 1.656890
Ba2   Ba    Ba6+2 0.851970 0.060110 0.481480 1.648265
C1    C     C_3   0.021157 0.538827 0.609081 -0.397975
C2    C     C_R   0.444198 0.394481 0.187436 0.571515
C3    C     C_2   0.281923 0.274993 0.278226 -0.082954
C4    C     C_3   0.526263 0.631181 0.631168 0.278942
C5    C     C_3   0.275929 0.246292 0.336706 -0.048551
C6    C     C_1   0.476301 0.143533 0.341164 0.037151
C7    C     C_2   0.515516 0.187228 0.292841 -0.107601
C8    C     C_2   0.410112 0.256114 0.257548 0.192686
C9    C     C_R   0.522472 0.401980 0.101318 -0.079182
C10   C     C_R   0.528350 0.311694 0.118268 -0.036892
C11   C     C_R   0.571156 0.270923 0.083224 -0.059991
C12   C     C_3   0.080961 0.632516 0.603390 0.339835
C13   C     C_R   0.479835 0.443169 0.136350 -0.024176
C14   C     C_2   0.360228 0.165350 0.363625 -0.289212
C15   C     C_2   0.863947 0.854482 0.640828 -0.191331
C16   C     C_3   0.466915 0.557925 0.677236 -0.429305
C17   C     C_R   0.642350 0.458554 0.962792 0.019520
C18   C     C_R   0.584740 0.591421 0.981080 0.020394
C19   C     C_R   0.632131 0.549504 0.946364 0.049869
C20   C     C_R   0.691657 0.420556 0.926635 -0.099361
C21   C     C_R   0.728908 0.469630 0.876586 -0.061384
C22   C     C_R   0.719108 0.559141 0.859868 -0.029560
C23   C     C_3   0.078819 0.030971 0.649953 0.301275
C24   C     C_R   0.670075 0.599243 0.894662 -0.078099
C25   C     C_R   0.659594 0.689239 0.877810 -0.034142
C26   C     C_R   0.700067 0.737890 0.827083 0.589604
C27   C     C_R   0.758025 0.609340 0.809116 0.579359
C28   C     C_3   0.601655 0.886927 0.387288 0.310761
C29   C     C_2   0.947223 0.749003 0.727527 -0.075506
C30   C     C_3   0.003750 0.811455 0.677181 -0.032922
C31   C     C_1   0.727239 0.862551 0.659296 0.036518
C32   C     C_2   0.680697 0.811036 0.704611 -0.101719
C33   C     C_2   0.795415 0.750133 0.741615 0.198625
C34   C     C_3   0.076884 0.004884 0.709094 -0.371474
C35   C     C_R   0.603708 0.408982 0.014425 0.019641
C36   C     C_R   0.559011 0.451227 0.049367 0.049909
C37   C     C_R   0.550472 0.542276 0.033009 0.020243
C38   C     C_R   0.608024 0.318090 0.032727 -0.098549
C39   C     C_R   0.474172 0.532869 0.119889 -0.060462
C40   C     C_3   0.573961 0.816525 0.360206 -0.379220
C41   C     C_R   0.573005 0.681762 0.962330 -0.099923
C42   C     C_R   0.609858 0.729200 0.912133 -0.061974
C43   C     C_R   0.508566 0.581203 0.069687 -0.101926
C44   C     C_2   0.399575 0.248699 0.508535 -0.289934
C45   C     C_3   0.652107 0.358371 0.366111 0.343380
C46   C     C_R   0.795090 0.762017 0.487038 -0.259010
C47   C     C_2   0.245372 0.318398 0.554997 -0.131546
C48   C     C_2   0.264186 0.249687 0.539276 0.045836
C49   C     C_2   0.506334 0.317074 0.494467 0.006933
C50   C     C_3   0.460827 0.403097 0.496851 -0.060037
C51   C     C_3   0.366595 0.395374 0.544059 0.031059
C52   C     C_3   0.594118 0.115614 0.607416 0.306549
C53   C     C_2   0.599414 0.470041 0.493964 -0.065577
C54   C     C_2   0.566488 0.552540 0.480556 -0.068975
C55   C     C_R   0.835310 0.620691 0.452980 -0.005866
C56   C     C_3   0.674895 0.430983 0.315994 -0.314937
C57   C     C_R   0.695643 0.622116 0.477495 -0.052972
C58   C     C_R   0.951536 0.690437 0.444206 -0.135263
C59   C     C_R   0.928929 0.762086 0.460119 0.048175
C60   C     C_R   0.675398 0.693630 0.494553 0.051202
C61   C     C_3   0.620422 0.189419 0.631772 -0.378975
C62   C     C_3   0.115608 0.991302 0.357630 0.300047
C63   C     C_3   0.112302 0.027862 0.298523 -0.361864
C64   C     C_2   0.706557 0.646258 0.639716 0.389835
C65   C     C_3   0.129040 0.379346 0.391574 0.360632
C66   C     C_3   0.117991 0.475567 0.381482 -0.368711
C67   C     C_R   0.490254 0.263920 0.169735 0.598592
H1    H     H_    0.204567 0.644422 0.590166 0.074230
H2    H     H_    0.243604 0.992400 0.374746 0.013199
H3    H     H_    0.045791 0.032407 0.372244 0.077689
H4    H     H_    0.033523 0.523662 0.572223 0.088462
H5    H     H_    0.188145 0.990585 0.282979 0.134691
H6    H     H_    0.160869 0.096185 0.287754 0.069495
H7    H     H_    0.984951 0.024421 0.280521 0.133062
H8    H     H_    0.998806 0.672647 0.572245 0.072391
H9    H     H_    0.890691 0.527760 0.616807 0.114180
H10   H     H_    0.950558 0.033469 0.632439 0.023758
H11   H     H_    0.140312 0.982247 0.639137 0.025476
H12   H     H_    0.643504 0.834763 0.325133 0.133124
H13   H     H_    0.022641 0.055053 0.720722 0.137910
H14   H     H_    0.002621 0.943153 0.722924 0.072290
H15   H     H_    0.203217 0.997151 0.728028 0.126006
H16   H     H_    0.092713 0.494430 0.641539 0.128006
H17   H     H_    0.503380 0.573726 0.714524 0.119200
H18   H     H_    0.705521 0.300615 0.362904 0.089743
H19   H     H_    0.519475 0.344244 0.370227 -0.053227
H20   H     H_    0.801870 0.460389 0.315749 0.144609
H21   H     H_    0.650473 0.404803 0.282210 0.120217
H22   H     H_    0.590370 0.481625 0.311989 0.119183
H23   H     H_    0.615183 0.754916 0.386790 0.052475
H24   H     H_    0.258743 0.369061 0.389794 -0.060044
H25   H     H_    0.092403 0.345420 0.431479 0.072367
H26   H     H_    0.205482 0.498879 0.409669 0.067829
H27   H     H_    0.993363 0.489176 0.386508 0.149151
H28   H     H_    0.469118 0.689604 0.630359 0.102509
H29   H     H_    0.148628 0.510935 0.341157 0.122001
H30   H     H_    0.625618 0.174402 0.279066 0.133341
H31   H     H_    0.576572 0.201605 0.094766 0.121861
H32   H     H_    0.034965 0.708452 0.754393 0.094919
H33   H     H_    0.766301 0.436692 0.850850 0.120587
H34   H     H_    0.442039 0.807144 0.348074 0.124958
H35   H     H_    0.704086 0.352522 0.935740 0.069371
H36   H     H_    0.638788 0.280635 0.008888 0.069394
H37   H     H_    0.197578 0.321100 0.254536 0.119594
H38   H     H_    0.442795 0.566707 0.146025 0.122296
H39   H     H_    0.534609 0.718680 0.985287 0.069439
H40   H     H_    0.599178 0.798165 0.900286 0.122473
H41   H     H_    0.561922 0.815543 0.716443 0.126003
H42   H     H_    0.502184 0.649566 0.061296 0.069313
H43   H     H_    0.347777 0.137075 0.405093 0.080980
H44   H     H_    0.883190 0.884179 0.599898 0.087027
H45   H     H_    0.464799 0.108728 0.592925 0.003747
H46   H     H_    0.151229 0.315797 0.580443 0.085144
H47   H     H_    0.054958 0.689928 0.423168 0.095823
H48   H     H_    0.420410 0.188389 0.501983 0.060156
H49   H     H_    0.779605 0.817620 0.499522 0.088343
H50   H     H_    0.723874 0.451972 0.505765 0.100457
H51   H     H_    0.332701 0.548197 0.673350 0.147163
H52   H     H_    0.440313 0.568858 0.472230 0.100590
H53   H     H_    0.518772 0.496815 0.679105 0.126544
H54   H     H_    0.733140 0.895657 0.399008 0.004009
H55   H     H_    0.530923 0.867512 0.422135 0.049043
H56   H     H_    0.671943 0.130596 0.574520 0.075651
H57   H     H_    0.777261 0.603203 0.671546 0.082790
H58   H     H_    0.537075 0.178398 0.662999 0.132400
H59   H     H_    0.596168 0.251379 0.601854 0.059449
H60   H     H_    0.748702 0.193904 0.648854 0.124537
N1    N     N_R   0.448878 0.305201 0.204160 -0.421470
N2    N     N_R   0.749006 0.698035 0.793174 -0.424405
O1    O     O_2   0.431310 0.922990 0.623550 -0.467783
O2    O     O_2   0.843655 0.306756 0.504224 -0.488704
O3    O     O_3   0.731310 0.383759 0.408623 -0.601001
O4    O     O_3   0.663280 0.983100 0.563360 -0.499511
O5    O     O_3   0.016420 0.932050 0.462720 -0.493674
O6    O     O_2   0.959730 0.164640 0.549160 -0.460690
O7    O     O_3   0.164482 0.111679 0.633677 -0.638465
O8    O     O_2   0.931185 0.209492 0.327077 -0.496110
O9    O     O_3   0.024933 0.350303 0.354054 -0.593516
O10   O     O_2   0.491625 0.185491 0.183412 -0.595810
O11   O     O_2   0.799298 0.573880 0.779092 -0.612987
O12   O     O_3   0.045592 0.906494 0.369841 -0.632803
O13   O     O_2   0.409979 0.432348 0.217201 -0.621713
O14   O     O_2   0.694329 0.816142 0.813476 -0.599149
O15   O     O_3   0.126250 0.812630 0.574830 -0.479405
O16   O     O_2   0.310534 0.767100 0.664359 -0.521309
O17   O     O_3   0.634958 0.039857 0.645814 -0.629372
O18   O     O_3   0.081722 0.650860 0.651450 -0.587375
O19   O     O_2   0.229950 0.835370 0.450810 -0.461926
O20   O     O_3   0.517580 0.797570 0.545130 -0.462502
O21   O     O_2   0.338439 0.694449 0.494816 -0.512681
O22   O     O_2   0.775470 0.707960 0.610275 -0.646869
O23   O     O_3   0.482283 0.609114 0.584413 -0.614992
O24   O     O_2   0.758370 0.077020 0.376420 -0.461523
O25   O     O_3   0.526390 0.016840 0.436620 -0.500965
O26   O     O_3   0.063420 0.187310 0.425160 -0.477091
O27   O     O_3   0.550066 0.963104 0.351753 -0.623891
O28   O     O_3   0.173250 0.067890 0.537260 -0.480635
O29   O     O_3   0.672100 0.202370 0.454860 -0.492895
P1    P     P_3+3 0.610630 0.953360 0.619150 0.992615
P2    P     P_3+3 0.057260 0.861390 0.437850 0.981990
P3    P     P_3+3 0.500200 0.699967 0.529042 0.978171
P4    P     P_3+3 0.579040 0.046590 0.380840 0.989616
P5    P     P_3+3 0.689979 0.302990 0.466130 0.943449
P6    P     P_3+3 0.130355 0.761826 0.642146 1.005803
P7    P     P_3+3 0.144267 0.148802 0.565376 0.950421
P8    P     P_3+3 0.071573 0.245700 0.359541 0.945593

loop_
_geom_bond_atom_site_label_1
_geom_bond_atom_site_label_2
_ccdc_geom_bond_type
O9    P8    S    
C53   C54   D    
Ba2   O24   S    
C30   P6    S    
C1    H16   S    
C23   H11   S    
C12   H1    S    
C5    P8    S    
Ba1   O1    S    
C40   H34   S    
C15   H44   S    
C2    C13   A    
C53   H50   S    
C26   O14   D    
C16   H17   S    
C63   H7    S    
C58   C59   A    
O17   P1    S    
C29   H32   S    
C17   C19   A    
C22   C24   A    
C32   C33   S    
C35   C38   A    
C36   C37   A    
C55   C57   A    
C21   H33   S    
C52   C61   S    
C34   H14   S    
C67   O10   D    
O5    P2    S    
C20   H35   S    
Ba1   Ba2   S    
C62   H2    S    
O1    P1    D    
C11   C38   A    
C17   C35   A    
C22   C27   A    
C9    C13   A    
C25   C42   A    
C29   C30   S    
C34   H13   S    
C6    C7    D    
C59   P2    S    
C65   H25   S    
C21   C22   A    
C45   H19   S    
Ba1   O5    S    
C7    C8    S    
O12   P2    S    
C61   H59   S    
C50   C53   S    
O27   P4    S    
C37   C43   A    
C42   H40   S    
C61   H60   S    
O15   P6    S    
Ba1   P1    S    
C7    H30   S    
O4    P1    S    
Ba1   O15   S    
C40   H12   S    
C15   C31   D    
O19   P2    D    
O26   P8    S    
C19   C24   A    
C3    H37   S    
C4    C16   S    
C52   H56   S    
C66   H26   S    
C15   C30   S    
C65   C66   S    
C4    H28   S    
O23   P3    S    
Ba1   O28   S    
C17   C20   A    
C13   C39   A    
C6    P4    S    
Ba2   P4    S    
C3    C5    S    
C18   C37   A    
C67   N1    Am   
C55   C58   A    
C2    N1    Am   
C44   C49   D    
Ba2   O5    S    
C63   H5    S    
C49   C50   S    
C44   H48   S    
O7    P7    S    
C45   H18   S    
Ba1   O25   S    
C31   P1    S    
C41   C42   A    
C8    N1    S    
C35   C36   A    
O16   P6    D    
O2    P5    D    
C46   C60   A    
C60   P3    S    
C31   C32   D    
C24   C25   A    
O3    P5    S    
Ba1   O19   S    
C66   H27   S    
O29   P5    S    
C10   C11   A    
C65   O9    S    
C56   H21   S    
C4    O23   S    
C1    C12   S    
C16   H53   S    
Ba2   O29   S    
C5    C14   S    
C47   H46   S    
C10   C67   A    
C28   H55   S    
Ba1   P2    S    
O20   P3    S    
C45   O3    S    
C32   H41   S    
C29   C33   D    
C58   H47   S    
Ba2   O28   S    
C16   H51   S    
O6    P7    D    
C18   C41   A    
C50   C51   S    
C14   H43   S    
C52   O17   S    
C56   H22   S    
C28   O27   S    
C57   C60   A    
Ba2   O25   S    
C39   H38   S    
C23   H10   S    
Ba2   O6    S    
O18   P6    S    
C2    O13   D    
C64   O22   D    
C46   H49   S    
C9    C10   A    
C43   H42   S    
C62   O12   S    
O24   P4    D    
C44   C48   S    
Ba2   O4    S    
C63   H6    S    
C54   C57   S    
C26   N2    Am   
C54   H52   S    
C11   H31   S    
C23   O7    S    
C33   N2    S    
C3    C8    D    
C62   C63   S    
C45   C56   S    
C46   C59   A    
C27   N2    Am   
C34   H15   S    
Ba2   O26   S    
C47   C51   S    
C27   O11   D    
C52   H45   S    
C12   O18   S    
C65   H24   S    
O28   P7    S    
Ba1   O20   S    
C40   H23   S    
C41   H39   S    
C62   H3    S    
O8    P8    D    
C1    H4    S    
C56   H20   S    
C66   H29   S    
O21   P3    D    
C49   P5    S    
C23   C34   S    
C64   H57   S    
C4    C64   S    
C18   C19   A    
O25   P4    S    
C6    C14   D    
C47   C48   D    
C48   P7    S    
C12   H8    S    
C28   H54   S    
C39   C43   A    
C20   C21   A    
C28   C40   S    
C9    C36   A    
Ba1   O4    S    
C1    H9    S    
C61   H58   S    
C38   H36   S    
C25   C26   A    
