data_mof_unit_34132.cif
_audit_creation_date              2012-12-10T17:24:15-0500
_audit_creation_method            fapswitch 2.2
_symmetry_space_group_name_H-M    P1
_symmetry_Int_Tables_number       1
_space_group_crystal_system       triclinic
_cell_length_a                    10.117666
_cell_length_b                    10.816697
_cell_length_c                    16.529502
_cell_angle_alpha                 91.429388
_cell_angle_beta                  76.296343
_cell_angle_gamma                 95.488787
_cell_volume                      1749.426567

loop_
_atom_site_label
_atom_site_type_symbol
_atom_type_description
_atom_site_fract_x
_atom_site_fract_y
_atom_site_fract_z
_atom_type_partial_charge
C1    C     C_R   0.557317 0.732676 0.492172 0.934475
C2    C     C_R   0.519298 0.499752 0.344445 0.948875
C3    C     C_R   0.474729 0.532487 0.744522 -0.189490
C4    C     C_R   0.540663 0.532722 0.257339 -0.149195
C5    C     C_R   0.587710 0.525413 0.780241 -0.033333
C6    C     C_R   0.444667 0.492970 0.210826 -0.036455
C7    C     C_R   0.587356 0.584636 0.856235 -0.280099
C8    C     C_R   0.455949 0.549605 0.134526 -0.286264
C9    C     C_R   0.473520 0.643608 0.900390 0.063359
C10   C     C_R   0.560055 0.644821 0.104078 0.080287
C11   C     C_R   0.355950 0.638214 0.868740 0.516691
C12   C     C_R   0.443364 0.267195 0.502933 0.980097
C13   C     C_R   0.660567 0.680118 0.148071 0.519130
C14   C     C_R   0.358793 0.586465 0.790454 -0.286325
C15   C     C_R   0.648094 0.623697 0.225814 -0.352429
C16   C     C_2   0.466238 0.688981 0.986134 -0.191016
C17   C     C_2   0.574392 0.694532 0.020043 -0.157595
C18   C     C_2   0.704709 0.452953 0.742672 0.935316
C19   C     C_2   0.333348 0.392021 0.239042 0.909361
C20   C     C_3   0.145959 0.590506 0.956857 0.025240
C21   C     C_3   0.015570 0.576358 0.924420 -0.312510
C22   C     C_3   0.908300 0.482609 0.976201 -0.906122
C23   C     C_2   0.591100 0.864346 0.479784 -0.370978
C24   C     C_3   0.878828 0.779838 0.146684 0.051818
C25   C     C_3   0.992115 0.865573 0.092122 -0.311715
C26   C     C_3   0.122437 0.874843 0.124125 -0.909144
C27   C     C_2   0.412174 0.135019 0.496715 -0.338036
C28   C     C_2   0.491543 0.933134 0.473494 -0.137879
C29   C     C_2   0.516129 0.065418 0.471247 -0.133644
C30   C     C_2   0.926095 0.510463 0.507206 -0.108569
C31   C     C_2   0.073727 0.489055 0.493127 -0.115638
C32   C     C_R   0.481765 0.504169 0.656157 0.927357
H1    H     H_    0.716805 0.654585 0.264905 0.148941
H2    H     H_    0.694511 0.905134 0.477185 0.152122
H3    H     H_    0.115351 0.419289 0.448435 0.179760
H4    H     H_    0.884364 0.579939 0.552092 0.174287
H5    H     H_    0.110763 0.617069 0.574882 0.177408
H6    H     H_    0.889318 0.383150 0.424965 0.166701
H7    H     H_    0.769362 0.296623 0.683456 0.343073
H8    H     H_    0.148174 0.312341 0.230840 0.339747
H9    H     H_    0.118885 0.617278 0.023609 0.168090
H10   H     H_    0.188333 0.498254 0.954367 0.135840
H11   H     H_    0.972566 0.667516 0.926797 0.232019
H12   H     H_    0.270034 0.591434 0.765154 0.187139
H13   H     H_    0.040137 0.544434 0.858599 0.239233
H14   H     H_    0.948813 0.390434 0.974537 0.269130
H15   H     H_    0.815988 0.472331 0.950535 0.265561
H16   H     H_    0.878423 0.514676 0.041804 0.258755
H17   H     H_    0.915411 0.685800 0.146405 0.137784
H18   H     H_    0.857024 0.819111 0.210830 0.155116
H19   H     H_    0.014739 0.829772 0.027244 0.243058
H20   H     H_    0.957263 0.959870 0.091540 0.234500
H21   H     H_    0.103528 0.916286 0.187522 0.262831
H22   H     H_    0.203692 0.934803 0.081867 0.280839
H23   H     H_    0.677291 0.711371 0.981510 0.183269
H24   H     H_    0.158662 0.781546 0.126297 0.256322
H25   H     H_    0.365302 0.688807 0.027464 0.175511
H26   H     H_    0.385183 0.515832 0.097282 0.187059
H27   H     H_    0.674108 0.577239 0.882650 0.169352
H28   H     H_    0.621803 0.105439 0.454310 0.186565
H29   H     H_    0.387840 0.892745 0.476228 0.190414
H30   H     H_    0.306769 0.094591 0.513763 0.150320
N1    N     N_2   0.846390 0.448330 0.467170 -0.193823
N2    N     N_2   0.153610 0.551670 0.532830 -0.191119
O1    O     O_R   0.430310 0.692580 0.506610 -0.612982
O2    O     O_R   0.681737 0.336985 0.706579 -0.785252
O3    O     O_2   0.344526 0.313617 0.288480 -0.648767
O4    O     O_R   0.216267 0.385023 0.207362 -0.826377
O5    O     O_3   0.238424 0.686863 0.913140 -0.650647
O6    O     O_3   0.760603 0.775643 0.114817 -0.651170
O7    O     O_R   0.569690 0.307420 0.493390 -0.605162
O8    O     O_R   0.652740 0.659410 0.485540 -0.621642
O9    O     O_R   0.347260 0.340590 0.514460 -0.600477
O10   O     O_R   0.375640 0.518570 0.627580 -0.614149
O11   O     O_R   0.624360 0.481430 0.372420 -0.616604
O12   O     O_R   0.598070 0.485390 0.606510 -0.583450
O13   O     O_R   0.401930 0.514610 0.393490 -0.599299
O14   O     O_2   0.820700 0.492592 0.745926 -0.663879
Zn1   Zn    Zn3+2 0.351480 0.522150 0.514070 0.966982
Zn2   Zn    Zn3+2 0.648520 0.477850 0.485930 0.961506

loop_
_geom_bond_atom_site_label_1
_geom_bond_atom_site_label_2
_ccdc_geom_bond_type
C22   H16   S    
O1    Zn1   S    
C27   C29   D    
C20   H9    S    
C24   O6    S    
C6    C19   S    
C28   C29   S    
C9    C16   S    
C32   O10   A    
C30   C31   S    
C11   C14   A    
C13   O6    S    
C10   C17   S    
C8    H26   S    
C21   H11   S    
C16   C17   D    
C1    O1    A    
C19   O3    D    
O11   Zn2   S    
C17   H23   S    
C28   H29   S    
C22   H15   S    
C21   C22   S    
C26   H22   S    
C7    H27   S    
O7    Zn2   S    
C21   H13   S    
N1    Zn2   S    
O13   Zn1   S    
C24   H18   S    
C1    O8    A    
C12   C27   S    
C24   C25   S    
C4    C6    A    
C5    C7    A    
C6    C8    A    
C5    C18   S    
C25   C26   S    
C2    C4    S    
C25   H19   S    
C27   H30   S    
C29   H28   S    
C18   O14   D    
C23   H2    S    
O9    Zn1   S    
C19   O4    S    
C23   C28   D    
C9    C11   A    
C3    C14   A    
C22   H14   S    
C12   O7    A    
C1    C23   S    
O10   Zn1   S    
C13   C15   A    
N2    Zn1   S    
C31   H3    S    
C20   O5    S    
C26   H21   S    
H5    N2    S    
C14   H12   S    
H6    N1    S    
C24   H17   S    
C7    C9    A    
C31   N2    D    
O12   Zn2   S    
C3    C5    A    
C10   C13   A    
C26   H24   S    
C32   O12   A    
C20   H10   S    
C11   O5    S    
C18   O2    S    
C30   H4    S    
C4    C15   A    
C25   H20   S    
O8    Zn2   S    
C2    O13   A    
C30   N1    D    
H7    O2    S    
C16   H25   S    
C3    C32   S    
C20   C21   S    
C8    C10   A    
H8    O4    S    
C12   O9    A    
C15   H1    S    
C2    O11   A    
