data_mof_unit_40278.cif
_audit_creation_date              2012-10-26T21:20:11-0400
_audit_creation_method            fapswitch 2.2
_symmetry_space_group_name_H-M    P1
_symmetry_Int_Tables_number       1
_space_group_crystal_system       triclinic
_cell_length_a                    13.061859
_cell_length_b                    10.947688
_cell_length_c                    9.623275
_cell_angle_alpha                 89.543064
_cell_angle_beta                  96.777385
_cell_angle_gamma                 94.138002
_cell_volume                      1362.92256534

loop_
_atom_site_label
_atom_site_type_symbol
_atom_type_description
_atom_site_fract_x
_atom_site_fract_y
_atom_site_fract_z
_atom_type_partial_charge
C1    C     C_R   0.506869 0.263199 0.502087 0.540141
C2    C     C_R   0.698383 0.487016 0.526580 0.544054
C3    C     C_R   0.809744 0.459140 0.541516 -0.012063
C4    C     C_R   0.185893 0.505297 0.456769 -0.010663
C5    C     C_R   0.025529 0.438092 0.317226 -0.005975
C6    C     C_R   0.974891 0.443985 0.686025 0.003640
C7    C     C_R   0.128242 0.484928 0.324461 -0.044076
C8    C     C_R   0.865885 0.439533 0.674834 -0.047367
C9    C     C_R   0.132846 0.507072 0.576609 -0.024810
C10   C     C_R   0.861015 0.443988 0.420599 -0.032168
C11   C     C_R   0.026218 0.469565 0.566694 -0.011646
C12   C     C_R   0.494300 0.737148 0.498303 0.544281
C13   C     C_R   0.970270 0.447681 0.433841 -0.015431
C14   C     C_R   0.527988 0.066569 0.382814 -0.059314
C15   C     C_R   0.478220 0.934448 0.620335 -0.059198
C16   C     C_R   0.506747 0.940005 0.374267 -0.040913
C17   C     C_R   0.498326 0.061258 0.628244 -0.041521
C18   C     C_1   0.803198 0.430897 0.282249 0.253913
C19   C     C_1   0.182899 0.567503 0.703338 0.239420
C20   C     C_3   0.810305 0.407772 0.801681 -0.340709
C21   C     C_3   0.169128 0.527584 0.190557 -0.336515
C22   C     C_1   0.987593 0.353826 0.204523 0.222691
C23   C     C_R   0.489774 0.871698 0.496092 -0.037018
C24   C     C_1   0.034441 0.404028 0.812630 0.217522
C25   C     C_1   0.574250 0.128950 0.269210 0.234958
C26   C     C_1   0.435858 0.871784 0.736705 0.242557
C27   C     C_1   0.491151 0.885549 0.236032 0.252808
C28   C     C_1   0.513307 0.116751 0.766180 0.248993
C29   C     C_3   0.368120 0.316129 0.121988 -0.337245
C30   C     C_3   0.640884 0.674969 0.880041 -0.336023
C31   C     C_1   0.360893 0.340848 0.826577 0.282889
C32   C     C_1   0.638266 0.660480 0.172924 0.281062
C33   C     C_R   0.514264 0.129252 0.505876 -0.037119
C34   C     C_R   0.434752 0.418243 0.062780 0.101972
C35   C     C_R   0.566446 0.580312 0.937423 0.108853
C36   C     C_R   0.433639 0.421343 0.914065 0.136175
C37   C     C_R   0.565781 0.579303 0.085783 0.144611
C38   C     C_R   0.300560 0.506212 0.473064 0.546035
Cu1   Cu    Cu3+1 0.500000 0.500020 0.640660 0.986342
Cu2   Cu    Cu3+1 0.500000 0.499980 0.359340 0.990069
H1    H     H_    0.859727 0.367510 0.888522 0.173683
H2    H     H_    0.618181 0.768072 0.901803 0.140686
H3    H     H_    0.720316 0.666163 0.932656 0.095168
H4    H     H_    0.646817 0.669800 0.768551 0.199236
H5    H     H_    0.781876 0.491252 0.843118 0.156599
H6    H     H_    0.745246 0.338032 0.773459 0.168626
H7    H     H_    0.105009 0.552492 0.111456 0.154480
H8    H     H_    0.221653 0.611773 0.208426 0.164377
H9    H     H_    0.209204 0.454514 0.146945 0.165010
H10   H     H_    0.290802 0.304475 0.060424 0.111205
H11   H     H_    0.404813 0.228504 0.115860 0.153151
H12   H     H_    0.352229 0.329976 0.229182 0.193185
N1    N     N_R   0.500030 0.500030 0.852080 -0.242958
N2    N     N_1   0.526740 0.159202 0.877059 -0.270401
N3    N     N_1   0.302117 0.276069 0.757667 -0.277909
N4    N     N_1   0.696914 0.725648 0.241515 -0.290198
N5    N     N_R   0.499970 0.499970 0.147920 -0.240394
N6    N     N_1   0.757839 0.419716 0.171698 -0.276660
N7    N     N_1   0.222436 0.615731 0.804314 -0.260823
N8    N     N_1   0.956955 0.283701 0.117475 -0.260418
N9    N     N_1   0.083974 0.370839 0.911314 -0.295429
N10   N     N_1   0.612174 0.178265 0.179422 -0.224982
N11   N     N_1   0.401072 0.821960 0.828607 -0.221113
N12   N     N_1   0.477141 0.843999 0.124786 -0.266121
O1    O     O_R   0.499990 0.319660 0.618740 -0.494183
O2    O     O_R   0.500010 0.680340 0.381260 -0.489465
O3    O     O_R   0.499990 0.319630 0.381170 -0.513934
O4    O     O_R   0.500010 0.680370 0.618830 -0.512230
O5    O     O_R   0.349000 0.499990 0.599490 -0.481594
O6    O     O_R   0.651000 0.500010 0.400510 -0.481420
O7    O     O_R   0.348990 0.499960 0.361920 -0.532021
O8    O     O_R   0.651010 0.500040 0.638080 -0.536366

loop_
_geom_bond_atom_site_label_1
_geom_bond_atom_site_label_2
_ccdc_geom_bond_type
C34   N5    A    
C1    O1    A    
C26   N11   T    
C19   N7    T    
C24   N9    T    
Cu2   N5    S    
Cu2   O7    S    
C2    O6    A    
C25   N10   T    
C35   N1    A    
C12   O4    A    
Cu1   O4    S    
C5    C13   A    
C20   H5    S    
C6    C11   A    
Cu1   O8    S    
C21   H8    S    
C6    C24   S    
C16   C27   S    
C15   C23   A    
C2    C3    S    
Cu1   O5    S    
C38   O5    A    
C1    C33   S    
C17   C33   A    
C3    C10   A    
Cu1   N1    S    
C32   C37   S    
C32   N4    T    
Cu1   O1    S    
C12   C23   S    
C30   H4    S    
C8    C20   S    
Cu2   O6    S    
C30   C35   S    
C14   C33   A    
C4    C7    A    
C2    O8    A    
C6    C8    A    
C21   H9    S    
C1    O3    A    
C10   C18   S    
C20   H1    S    
C16   C23   A    
C34   C36   A    
C29   H10   S    
C9    C11   A    
C14   C25   S    
C22   N8    T    
C14   C16   A    
C30   H3    S    
C27   N12   T    
C20   H6    S    
C11   C13   A    
C35   C37   A    
C5    C7    A    
C3    C8    A    
C29   H11   S    
Cu1   Cu2   S    
C15   C17   A    
C28   N2    T    
C31   C36   S    
C30   H2    S    
C15   C26   S    
Cu2   O2    S    
C36   N1    A    
C31   N3    T    
C4    C9    A    
C7    C21   S    
C17   C28   S    
C12   O2    A    
C29   C34   S    
C29   H12   S    
Cu2   O3    S    
C37   N5    A    
C5    C22   S    
C38   O7    A    
C9    C19   S    
C4    C38   S    
C18   N6    T    
C21   H7    S    
C10   C13   A    
