data_mof_unit_31625.cif
_audit_creation_date              2012-12-11T14:52:44-0500
_audit_creation_method            fapswitch 2.2
_symmetry_space_group_name_H-M    P1
_symmetry_Int_Tables_number       1
_space_group_crystal_system       triclinic
_cell_length_a                    20.666764
_cell_length_b                    7.245578
_cell_length_c                    20.174539
_cell_angle_alpha                 90.511279
_cell_angle_beta                  101.70968
_cell_angle_gamma                 90.310245
_cell_volume                      2957.91942007

loop_
_atom_site_label
_atom_site_type_symbol
_atom_type_description
_atom_site_fract_x
_atom_site_fract_y
_atom_site_fract_z
_atom_type_partial_charge
O1    O     O_R   0.673670 0.377510 0.185950 -0.533251
O2    O     O_R   0.326330 0.622490 0.814050 -0.533108
O3    O     O_R   0.826330 0.877510 0.314050 -0.533779
O4    O     O_R   0.173670 0.122490 0.685950 -0.536890
O5    O     O_R   0.806260 0.705340 0.185590 -0.529051
O6    O     O_R   0.193740 0.294660 0.814410 -0.528369
O7    O     O_R   0.693740 0.205340 0.314410 -0.530828
O8    O     O_R   0.306260 0.794660 0.685590 -0.530604
C1    C     C_R   0.825842 0.538660 0.171058 0.709077
C2    C     C_R   0.175069 0.461673 0.829891 0.712980
C3    C     C_R   0.674298 0.038814 0.329147 0.711278
C4    C     C_R   0.325838 0.961161 0.670983 0.713432
O9    O     O_R   0.672940 0.707120 0.178050 -0.539877
O10   O     O_R   0.327060 0.292880 0.821950 -0.539570
O11   O     O_R   0.827060 0.207120 0.321950 -0.542345
O12   O     O_R   0.172940 0.792880 0.678050 -0.539878
O13   O     O_R   0.692060 0.879040 0.306460 -0.537652
O14   O     O_R   0.307940 0.120960 0.693540 -0.536571
O15   O     O_R   0.807940 0.379040 0.193540 -0.538618
O16   O     O_R   0.192060 0.620960 0.806460 -0.534609
C5    C     C_R   0.648633 0.538372 0.161553 0.698165
C6    C     C_R   0.351389 0.461632 0.838425 0.698183
C7    C     C_R   0.852519 0.040692 0.337156 0.696451
C8    C     C_R   0.147658 0.959080 0.662213 0.694832
O17   O     O_3   0.756430 0.544390 0.292140 -0.374149
O18   O     O_3   0.243570 0.455610 0.707860 -0.379794
O19   O     O_3   0.743570 0.044390 0.207860 -0.371460
O20   O     O_3   0.256430 0.955610 0.792140 -0.369839
V1    V     V_3+5 0.748810 0.818610 0.242180 1.421031
V2    V     V_3+5 0.251190 0.181390 0.757820 1.415518
V3    V     V_3+5 0.751190 0.318610 0.257820 1.416241
V4    V     V_3+5 0.248810 0.681390 0.742180 1.411528
C9    C     C_R   0.084633 0.958148 0.610243 -0.107935
C10   C     C_R   0.915628 0.039743 0.388436 -0.099593
C11   C     C_R   0.414436 0.469648 0.889317 -0.088629
C12   C     C_R   0.585608 0.530411 0.110645 -0.088833
C13   C     C_R   0.028112 0.154806 0.435402 0.076378
C14   C     C_R   0.973931 0.833124 0.560613 0.085305
C15   C     C_R   0.464711 0.549200 0.077965 0.086084
C16   C     C_R   0.535359 0.451072 0.921984 0.085838
C17   C     C_R   0.972041 0.143034 0.380467 0.067013
C18   C     C_R   0.030889 0.838267 0.614520 0.052273
C19   C     C_R   0.524188 0.570163 0.128213 0.050023
C20   C     C_R   0.475874 0.430185 0.871724 0.050153
C21   C     C_R   0.917427 0.939266 0.447303 -0.268403
C22   C     C_R   0.081091 0.068403 0.553082 -0.273602
C23   C     C_R   0.588192 0.485666 0.043764 -0.262241
C24   C     C_R   0.411855 0.514293 0.956207 -0.261921
C25   C     C_R   0.972840 0.941754 0.501525 0.077868
C26   C     C_R   0.027589 0.056588 0.496750 0.070541
C27   C     C_R   0.531209 0.484670 0.991271 0.078761
C28   C     C_R   0.468850 0.515497 0.008682 0.078974
H1    H     H_    0.122494 0.159736 0.553241 0.140013
H2    H     H_    0.873154 0.862659 0.449974 0.139350
H3    H     H_    0.363621 0.544157 0.966269 0.127000
H4    H     H_    0.636418 0.455608 0.033718 0.127232
C29   C     C_3   0.544973 0.132864 0.522357 0.272826
C30   C     C_3   0.456309 0.866847 0.478874 0.273441
C31   C     C_3   0.954313 0.620071 0.976959 0.274718
C32   C     C_3   0.050033 0.384268 0.027714 0.269823
C33   C     C_3   0.533214 0.960812 0.563000 0.282400
C34   C     C_3   0.468056 0.038883 0.438246 0.284666
C35   C     C_3   0.970945 0.442297 0.941400 0.293346
C36   C     C_3   0.033366 0.562122 0.063289 0.276100
H5    H     H_    0.557456 0.703046 0.498514 0.213700
H6    H     H_    0.443846 0.296702 0.502721 0.214251
H7    H     H_    0.953812 0.195489 0.012915 0.207450
H8    H     H_    0.050554 0.808883 0.991861 0.210353
C37   C     C_1   0.371798 0.969519 0.625558 -0.165191
C38   C     C_1   0.628772 0.030362 0.374997 -0.167529
C39   C     C_1   0.130538 0.471017 0.876810 -0.166114
C40   C     C_1   0.872070 0.530570 0.125945 -0.165268
C41   C     C_3   0.469361 0.162801 0.501598 -0.268072
C42   C     C_3   0.531915 0.836911 0.499633 -0.274472
C43   C     C_3   0.028813 0.670327 0.996534 -0.254568
C44   C     C_3   0.975521 0.334019 0.008107 -0.270516
C45   C     C_3   0.458084 0.989195 0.542024 -0.054914
C46   C     C_3   0.543172 0.010506 0.459209 -0.056268
C47   C     C_3   0.045030 0.490924 0.961218 -0.054118
C48   C     C_3   0.959299 0.513380 0.043411 -0.061163
C49   C     C_1   0.410627 0.977853 0.587890 0.093293
C50   C     C_1   0.590321 0.021925 0.413046 0.089711
C51   C     C_1   0.092367 0.479575 0.915193 0.105941
C52   C     C_1   0.911290 0.523565 0.088676 0.090173
C53   C     C_3   0.032688 0.721466 0.677535 -0.343293
C54   C     C_3   0.049407 0.518260 0.664951 -0.335062
C55   C     C_3   0.019754 0.386649 0.709592 -0.682338
H9    H     H_    0.033936 0.429798 0.763386 0.243458
H10   H     H_    0.965015 0.385252 0.694501 0.243130
H11   H     H_    0.037929 0.244572 0.704005 0.213341
H12   H     H_    0.030739 0.476689 0.611332 0.185384
H13   H     H_    0.103793 0.500441 0.675471 0.223678
H14   H     H_    0.068670 0.776017 0.721895 0.167125
H15   H     H_    0.984760 0.733160 0.694036 0.195285
C56   C     C_3   0.974078 0.225946 0.311479 -0.407196
C57   C     C_3   0.004114 0.088030 0.268171 -0.318586
C58   C     C_3   0.003149 0.162820 0.197536 -0.629696
H16   H     H_    0.951489 0.186037 0.170503 0.209518
H17   H     H_    0.031358 0.294435 0.200959 0.265689
H18   H     H_    0.026147 0.061556 0.167948 0.274689
H19   H     H_    0.055915 0.056879 0.292907 0.222535
H20   H     H_    0.975329 0.956693 0.263058 0.203780
H21   H     H_    0.924517 0.263097 0.283102 0.192082
H22   H     H_    0.000822 0.359977 0.316449 0.184929
C59   C     C_3   0.476476 0.363002 0.799789 -0.395284
C60   C     C_3   0.483072 0.523377 0.752361 -0.317463
C61   C     C_3   0.478061 0.454750 0.679641 -0.627566
H23   H     H_    0.518306 0.355726 0.676888 0.267149
H24   H     H_    0.429569 0.385901 0.660819 0.211813
H25   H     H_    0.482427 0.573177 0.646257 0.252879
H26   H     H_    0.443142 0.624979 0.753252 0.198130
H27   H     H_    0.531282 0.594882 0.769352 0.227686
H28   H     H_    0.515161 0.257933 0.799278 0.184411
H29   H     H_    0.430645 0.284802 0.778512 0.183910
C62   C     C_3   0.523597 0.637632 0.200119 -0.395289
C63   C     C_3   0.517161 0.477428 0.247674 -0.317541
C64   C     C_3   0.522334 0.546330 0.320383 -0.627455
H30   H     H_    0.570833 0.615297 0.339054 0.211110
H31   H     H_    0.482092 0.645319 0.323192 0.267101
H32   H     H_    0.518084 0.428022 0.353858 0.252555
H33   H     H_    0.468949 0.405819 0.230832 0.227630
H34   H     H_    0.557089 0.375853 0.246738 0.197933
H35   H     H_    0.569377 0.716166 0.221291 0.183907
H36   H     H_    0.484846 0.742517 0.200606 0.184332
C65   C     C_3   0.087747 0.274176 0.428899 -0.358732
C66   C     C_3   0.081392 0.468650 0.457740 -0.343508
C67   C     C_3   0.140117 0.591247 0.451772 -0.670257
H37   H     H_    0.186723 0.531092 0.480356 0.239174
H38   H     H_    0.143418 0.606289 0.397813 0.249690
H39   H     H_    0.133752 0.730243 0.473139 0.213231
H40   H     H_    0.035330 0.533950 0.430005 0.201687
H41   H     H_    0.078367 0.460318 0.511925 0.194256
H42   H     H_    0.134749 0.209038 0.453641 0.176989
H43   H     H_    0.094324 0.284208 0.376028 0.196334
C68   C     C_3   0.914041 0.712632 0.565960 -0.396144
C69   C     C_3   0.859550 0.828091 0.587547 -0.336047
C70   C     C_3   0.797561 0.712185 0.587050 -0.623823
H44   H     H_    0.777389 0.658267 0.535210 0.221956
H45   H     H_    0.809071 0.594671 0.622393 0.244034
H46   H     H_    0.759342 0.798792 0.603375 0.254157
H47   H     H_    0.877872 0.883962 0.639498 0.220188
H48   H     H_    0.846159 0.947044 0.553284 0.204105
H49   H     H_    0.895421 0.637250 0.517684 0.171420
H50   H     H_    0.926304 0.598728 0.602113 0.196511
C71   C     C_3   0.397186 0.552687 0.098192 -0.369648
C72   C     C_3   0.366160 0.358393 0.093873 -0.375242
C73   C     C_3   0.298558 0.361339 0.113297 -0.582591
H51   H     H_    0.302986 0.413867 0.165940 0.252292
H52   H     H_    0.264143 0.450438 0.078125 0.240780
H53   H     H_    0.277827 0.219109 0.110217 0.249418
H54   H     H_    0.360211 0.299548 0.042015 0.205203
H55   H     H_    0.399098 0.265092 0.128794 0.210597
H56   H     H_    0.399404 0.602877 0.150347 0.199612
H57   H     H_    0.364014 0.651923 0.066513 0.175396
C74   C     C_3   0.602922 0.447041 0.901820 -0.369959
C75   C     C_3   0.634300 0.640951 0.906338 -0.371419
C76   C     C_3   0.702245 0.636883 0.887678 -0.590741
H58   H     H_    0.736210 0.547443 0.923163 0.239210
H59   H     H_    0.698237 0.584134 0.835117 0.250641
H60   H     H_    0.723292 0.778777 0.890944 0.247701
H61   H     H_    0.601797 0.734450 0.871090 0.210527
H62   H     H_    0.639840 0.700170 0.958099 0.204731
H63   H     H_    0.635891 0.347275 0.933458 0.175131
H64   H     H_    0.600701 0.397117 0.849631 0.199211
Br1   Br    Br    0.580813 0.904519 0.653480 -0.516057
Br2   Br    Br    0.420611 0.095025 0.347689 -0.498059
Br3   Br    Br    0.924986 0.353149 0.853529 -0.468050
Br4   Br    Br    0.079042 0.653579 0.150957 -0.505894
Br5   Br    Br    0.609113 0.326451 0.553995 -0.514223
Br6   Br    Br    0.392248 0.673143 0.447208 -0.494118
Br7   Br    Br    0.885837 0.794246 0.940407 -0.491990
Br8   Br    Br    0.118410 0.209951 0.064285 -0.520204

loop_
_geom_bond_atom_site_label_1
_geom_bond_atom_site_label_2
_ccdc_geom_bond_type
C65   H43   S    
O17   V3    S    
C24   H3    S    
C55   H9    S    
C32   C47   S    
O1    C5    A    
C66   C67   S    
C57   H20   S    
O19   V1    S    
O13   V1    S    
O3    C7    A    
C73   H51   S    
C1    C40   S    
C4    C37   S    
O15   V3    S    
C58   H16   S    
C3    C38   S    
C68   C69   S    
C5    C12   S    
C60   H27   S    
C20   C59   S    
H8    C43   S    
O7    C3    A    
C6    C11   S    
C70   H45   S    
C76   H58   S    
C63   H34   S    
C9    C18   A    
C59   H28   S    
C75   C76   S    
C73   H52   S    
C14   C18   A    
C54   H12   S    
C64   H31   S    
O4    C8    A    
C60   C61   S    
C62   C63   S    
O1    V3    S    
C63   C64   S    
C12   C23   A    
O2    V4    S    
C29   C41   S    
O3    V1    S    
C69   H48   S    
C30   C45   S    
C19   C62   S    
C53   H14   S    
C1    O15   A    
C23   C27   A    
C56   C57   S    
C2    O16   A    
O2    C6    A    
C61   H23   S    
C34   C41   S    
O14   V2    S    
C21   C25   A    
C16   C20   A    
O5    V1    S    
C48   C52   S    
C71   H56   S    
C2    C39   S    
C30   Br6   S    
O11   C7    A    
C15   C28   A    
C70   H44   S    
C75   H62   S    
O12   C8    A    
C57   H19   S    
C9    C22   A    
C36   C48   S    
C17   C56   S    
C10   C17   A    
O10   V2    S    
C31   Br7   S    
C11   C24   A    
C58   H17   S    
C56   H21   S    
C71   C72   S    
C39   C51   T    
C60   H26   S    
C66   H41   S    
C70   H46   S    
C62   H35   S    
C63   H33   S    
C27   C28   A    
O8    V4    S    
C59   H29   S    
C73   H53   S    
O7    V3    S    
C64   H32   S    
C33   C45   S    
C14   C25   A    
C54   C55   S    
C35   C47   S    
C74   H63   S    
C53   C54   S    
H6    C41   S    
C32   C44   S    
H5    C42   S    
C32   Br8   S    
C67   H38   S    
O5    C1    A    
C69   H47   S    
C53   H15   S    
C46   C50   S    
C45   C49   S    
O8    C4    A    
C7    C10   S    
C57   C58   S    
C15   C71   S    
O9    C5    A    
C16   C74   S    
C18   C53   S    
C14   C68   S    
O11   V3    S    
C11   C20   A    
C40   C52   T    
C10   C21   A    
C30   C34   S    
C72   H55   S    
C71   H57   S    
C68   H50   S    
O6    V2    S    
C75   H61   S    
C76   H60   S    
C55   H10   S    
C65   C66   S    
C33   C42   S    
C61   H25   S    
O9    V1    S    
C67   H37   S    
C31   C43   S    
C13   C65   S    
C58   H18   S    
C56   H22   S    
C30   C42   S    
C72   C73   S    
O16   V4    S    
C65   H42   S    
C3    O13   A    
C62   H36   S    
C34   Br2   S    
C29   C46   S    
C34   C46   S    
C44   C48   S    
C69   C70   S    
C31   C48   S    
C21   H2    S    
C15   C19   A    
C29   C33   S    
O18   V4    S    
C74   H64   S    
O12   V4    S    
C16   C27   A    
C59   C60   S    
C22   C26   A    
C31   C35   S    
C8    C9    S    
C32   C36   S    
O10   C6    A    
O20   V2    S    
C67   H39   S    
C36   Br4   S    
C54   H13   S    
C64   H30   S    
C47   C51   S    
C13   C26   A    
C61   H24   S    
C66   H40   S    
C22   H1    S    
C35   Br3   S    
C68   H49   S    
C36   C43   S    
C33   Br1   S    
C13   C17   A    
C29   Br5   S    
C38   C50   T    
C37   C49   T    
O6    C2    A    
C72   H54   S    
C24   C28   A    
C76   H59   S    
C25   C26   A    
C42   C46   S    
C55   H11   S    
C4    O14   A    
C74   C75   S    
C41   C45   S    
C35   C44   S    
C12   C19   A    
H7    C44   S    
C43   C47   S    
O4    V2    S    
C23   H4    S    
