data_mof_unit_47093.cif
_audit_creation_date              2012-12-11T14:24:45-0500
_audit_creation_method            fapswitch 2.2
_symmetry_space_group_name_H-M    P1
_symmetry_Int_Tables_number       1
_space_group_crystal_system       triclinic
_cell_length_a                    19.214385
_cell_length_b                    11.113052
_cell_length_c                    18.793107
_cell_angle_alpha                 90.283784
_cell_angle_beta                  90.743933
_cell_angle_gamma                 90.16972
_cell_volume                      4012.49492291

loop_
_atom_site_label
_atom_site_type_symbol
_atom_type_description
_atom_site_fract_x
_atom_site_fract_y
_atom_site_fract_z
_atom_type_partial_charge
C1    C     C_R   0.730265 0.374916 0.146117 0.550371
C2    C     C_R   0.270864 0.373544 0.854838 0.544111
C3    C     C_R   0.230467 0.875336 0.146348 0.537383
C4    C     C_R   0.771049 0.872908 0.855051 0.539718
C5    C     C_3   0.454323 0.088015 0.032578 -0.118793
C6    C     C_3   0.506786 0.050481 0.975200 -0.098776
C7    C     C_3   0.002473 0.548078 0.021847 -0.096558
C8    C     C_3   0.050809 0.602962 0.965445 -0.120254
C9    C     C_R   0.757221 0.899119 0.930502 0.001243
C10   C     C_R   0.249757 0.910954 0.073706 -0.013647
C11   C     C_R   0.256689 0.401319 0.930055 -0.007224
C12   C     C_R   0.748744 0.409112 0.072971 -0.006397
C13   C     C_R   0.697635 0.855799 0.966634 0.019644
C14   C     C_R   0.301804 0.850125 0.033839 0.020070
C15   C     C_R   0.197076 0.358223 0.966064 0.017690
C16   C     C_R   0.801273 0.349210 0.033270 0.020455
C17   C     C_R   0.699350 0.851297 0.042145 0.024063
C18   C     C_R   0.297104 0.850322 0.958293 0.025096
C19   C     C_R   0.198770 0.353094 0.041560 0.031311
C20   C     C_R   0.796587 0.348789 0.957705 0.017251
C21   C     C_R   0.812462 0.948114 0.043569 -0.158621
C22   C     C_R   0.200327 0.990071 0.965174 -0.155141
C23   C     C_R   0.312291 0.448582 0.043316 -0.154407
C24   C     C_R   0.698300 0.485170 0.964058 -0.157374
C25   C     C_R   0.814593 0.940689 0.970761 -0.143475
C26   C     C_R   0.201412 0.983141 0.037971 -0.164100
C27   C     C_R   0.313860 0.443634 0.970375 -0.155378
C28   C     C_R   0.699235 0.478488 0.036835 -0.154393
C29   C     C_R   0.637014 0.814530 0.930647 -0.102574
C30   C     C_R   0.357999 0.788208 0.066172 -0.085296
C31   C     C_R   0.136226 0.318511 0.929857 -0.102510
C32   C     C_R   0.857749 0.288338 0.065723 -0.084517
C33   C     C_R   0.083564 0.259644 0.966253 -0.141175
C34   C     C_R   0.901368 0.215582 0.025763 -0.137609
C35   C     C_R   0.585199 0.753545 0.967166 -0.149452
C36   C     C_R   0.401832 0.716237 0.025974 -0.131546
C37   C     C_R   0.591530 0.736295 0.040122 -0.134580
C38   C     C_R   0.392706 0.707525 0.952785 -0.132228
C39   C     C_R   0.090157 0.240440 0.039048 -0.147897
C40   C     C_R   0.892270 0.206219 0.952586 -0.129042
C41   C     C_R   0.647519 0.785586 0.077573 -0.082798
C42   C     C_R   0.340702 0.773222 0.919039 -0.079362
C43   C     C_R   0.146595 0.287792 0.076675 -0.087900
C44   C     C_R   0.840452 0.272001 0.918593 -0.079236
C45   C     C_R   0.533253 0.155206 0.144202 0.551673
C46   C     C_R   0.465866 0.155346 0.856407 0.559688
C47   C     C_R   0.034474 0.654731 0.143491 0.559863
C48   C     C_R   0.966024 0.655680 0.856187 0.555511
C49   C     C_R   0.753509 0.911381 0.079885 -0.009916
C50   C     C_R   0.248656 0.927183 0.924274 -0.004204
C51   C     C_R   0.253284 0.411867 0.079577 -0.004661
C52   C     C_R   0.747827 0.424715 0.923497 -0.011827
C53   C     C_R   0.457155 0.159379 0.564280 -0.004360
C54   C     C_R   0.505581 0.162190 0.424929 -0.001274
C55   C     C_R   0.970414 0.660566 0.566134 -0.002447
C56   C     C_R   0.042244 0.655015 0.436784 -0.007523
C57   C     C_R   0.462605 0.053167 0.524975 0.031640
C58   C     C_R   0.503631 0.056707 0.465053 0.043100
C59   C     C_R   0.972025 0.555658 0.524501 0.033660
C60   C     C_R   0.020064 0.547033 0.469712 0.045176
C61   C     C_R   0.486028 0.268450 0.458356 -0.162484
C62   C     C_R   0.479517 0.265616 0.531869 -0.154297
C63   C     C_R   0.031914 0.764687 0.472531 -0.151933
C64   C     C_R   0.999276 0.766457 0.538733 -0.142404
C65   C     C_R   0.444649 0.941333 0.551868 -0.091955
C66   C     C_R   0.544606 0.957141 0.450921 -0.080637
C67   C     C_R   0.923303 0.462417 0.531938 -0.093395
C68   C     C_R   0.033606 0.431176 0.442140 -0.079918
C69   C     C_R   0.925596 0.362261 0.487517 -0.123891
C70   C     C_R   0.981214 0.345637 0.443034 -0.124342
C71   C     C_R   0.481443 0.842298 0.533283 -0.154557
C72   C     C_R   0.527067 0.848659 0.477312 -0.166681
C73   C     C_R   0.759169 0.916077 0.569542 -0.003917
C74   C     C_R   0.242629 0.918833 0.429992 -0.005261
C75   C     C_R   0.285221 0.343638 0.563434 -0.008037
C76   C     C_R   0.708369 0.327015 0.437954 -0.009571
C77   C     C_R   0.816429 0.959672 0.529692 0.037012
C78   C     C_R   0.186640 0.965516 0.469817 0.038059
C79   C     C_R   0.328464 0.429663 0.531567 0.045767
C80   C     C_R   0.667561 0.414015 0.470653 0.045946
C81   C     C_R   0.820792 0.930068 0.457062 0.028688
C82   C     C_R   0.180075 0.932685 0.541625 0.032111
C83   C     C_R   0.303315 0.487685 0.472178 0.035838
C84   C     C_R   0.696521 0.474929 0.527964 0.039042
C85   C     C_R   0.703818 0.855477 0.458801 -0.159778
C86   C     C_R   0.294372 0.849824 0.540455 -0.160346
C87   C     C_R   0.216279 0.331814 0.455352 -0.165040
C88   C     C_R   0.769978 0.304619 0.551045 -0.172647
C89   C     C_R   0.742351 0.966979 0.149870 0.538442
C90   C     C_R   0.258069 0.970312 0.851315 0.538045
C91   C     C_R   0.242317 0.467034 0.149788 0.545719
C92   C     C_R   0.757888 0.469712 0.851041 0.537558
C93   C     C_R   0.701558 0.871290 0.532440 -0.173803
C94   C     C_R   0.299010 0.871426 0.467418 -0.170348
C95   C     C_R   0.230492 0.291564 0.524103 -0.151399
C96   C     C_R   0.756272 0.264098 0.480759 -0.163277
C97   C     C_R   0.867360 0.038224 0.558121 -0.104408
C98   C     C_R   0.141103 0.053617 0.443080 -0.114680
C99   C     C_R   0.392466 0.469932 0.560764 -0.083792
C100  C     C_R   0.604157 0.454986 0.442514 -0.085990
C101  C     C_R   0.923046 0.074186 0.517102 -0.159653
C102  C     C_R   0.092682 0.105853 0.488143 -0.169229
C103  C     C_R   0.428197 0.562575 0.532138 -0.164493
C104  C     C_R   0.573798 0.556175 0.468669 -0.160344
C105  C     C_R   0.933424 0.024603 0.449998 -0.121537
C106  C     C_R   0.081305 0.059063 0.555530 -0.118359
C107  C     C_R   0.398320 0.627839 0.477692 -0.153253
C108  C     C_R   0.607445 0.620527 0.522350 -0.147823
C109  C     C_R   0.883274 0.949356 0.420671 -0.071801
C110  C     C_R   0.119562 0.962082 0.578370 -0.087631
C111  C     C_R   0.331957 0.600000 0.456378 -0.081690
C112  C     C_R   0.674225 0.591826 0.540050 -0.075357
C113  C     C_R   0.759574 0.899915 0.420318 -0.004633
C114  C     C_R   0.239722 0.897937 0.579072 -0.003065
C115  C     C_R   0.252119 0.431712 0.429666 0.002325
C116  C     C_R   0.743366 0.416023 0.573114 -0.007137
C117  C     C_R   0.708374 0.324163 0.359510 0.570002
C118  C     C_R   0.290329 0.327495 0.639769 0.548574
C119  C     C_R   0.229780 0.879590 0.355488 0.525884
C120  C     C_R   0.770607 0.878831 0.644312 0.531915
C121  C     C_R   0.534207 0.157226 0.353563 0.530261
C122  C     C_R   0.438856 0.153598 0.639543 0.532846
C123  C     C_R   0.062650 0.652887 0.361066 0.549661
C124  C     C_R   0.942993 0.654186 0.638730 0.539915
C125  C     C_R   0.744136 0.964835 0.353664 0.523988
C126  C     C_R   0.255891 0.964630 0.645965 0.524506
C127  C     C_R   0.240760 0.476742 0.358288 0.531266
C128  C     C_R   0.757670 0.470734 0.643252 0.521165
C129  C     C_3   0.544441 0.237413 0.968178 -0.132465
C130  C     C_3   0.491923 0.275188 0.026142 -0.119385
C131  C     C_3   0.997818 0.777490 0.977332 -0.119553
C132  C     C_3   0.949730 0.722393 0.034347 -0.138207
C133  C     C_3   0.564417 0.125319 0.012422 -0.103232
C134  C     C_3   0.434260 0.199843 0.988414 -0.120474
C135  C     C_3   0.061591 0.716029 0.012677 -0.115894
C136  C     C_3   0.938971 0.609505 0.987026 -0.108193
C137  C     C_3   0.511385 0.162813 0.069192 0.053514
C138  C     C_3   0.487258 0.162281 0.931773 0.043661
C139  C     C_3   0.012863 0.660964 0.068323 0.046807
C140  C     C_3   0.987742 0.664093 0.931204 0.050834
Cr1   Cr    Cr6+3 0.772820 0.169820 0.252640 1.005730
Cr2   Cr    Cr6+3 0.227180 0.169820 0.747360 1.003123
Cr3   Cr    Cr6+3 0.272820 0.669820 0.252640 0.996917
Cr4   Cr    Cr6+3 0.727180 0.669820 0.747360 1.003223
Cr5   Cr    Cr6+3 0.615040 0.323610 0.249150 0.995154
Cr6   Cr    Cr6+3 0.384960 0.323610 0.750850 0.994684
Cr7   Cr    Cr6+3 0.115040 0.823610 0.249150 1.002206
Cr8   Cr    Cr6+3 0.884960 0.823610 0.750850 1.001996
Cr9   Cr    Cr6+3 0.616720 0.011130 0.250660 0.996894
Cr10  Cr    Cr6+3 0.383280 0.011130 0.749340 0.992432
Cr11  Cr    Cr6+3 0.116720 0.511130 0.250660 0.994541
Cr12  Cr    Cr6+3 0.883280 0.511130 0.749340 1.004321
H1    H     H_    0.618295 0.094025 0.023596 0.130253
H2    H     H_    0.380010 0.227795 0.976787 0.127981
H3    H     H_    0.112407 0.759868 0.024759 0.132233
H4    H     H_    0.888123 0.565635 0.975131 0.133275
H5    H     H_    0.481870 0.352322 0.430453 0.129777
H6    H     H_    0.498800 0.340675 0.562380 0.136556
H7    H     H_    0.048369 0.848451 0.449019 0.158027
H8    H     H_    0.994188 0.850558 0.567222 0.155187
H9    H     H_    0.407971 0.930390 0.592760 0.172262
H10   H     H_    0.590977 0.962450 0.420551 0.170857
H11   H     H_    0.880432 0.472216 0.566915 0.144541
H12   H     H_    0.078988 0.412245 0.410953 0.144211
H13   H     H_    0.886105 0.295259 0.488317 0.133149
H14   H     H_    0.983332 0.267301 0.408835 0.101656
H15   H     H_    0.474670 0.764744 0.564958 0.114186
H16   H     H_    0.549881 0.773765 0.452237 0.115014
H17   H     H_    0.661136 0.813510 0.430583 0.132285
H18   H     H_    0.334287 0.799410 0.567756 0.134471
H19   H     H_    0.176164 0.289345 0.423403 0.113267
H20   H     H_    0.805425 0.256432 0.585406 0.117071
H21   H     H_    0.861999 0.080463 0.609648 0.134606
H22   H     H_    0.148071 0.092698 0.391065 0.133348
H23   H     H_    0.418499 0.430808 0.605403 0.164393
H24   H     H_    0.578304 0.412855 0.398831 0.165842
H25   H     H_    0.956025 0.144845 0.536861 0.114306
H26   H     H_    0.066220 0.184908 0.471780 0.110873
H27   H     H_    0.477977 0.581737 0.555586 0.113365
H28   H     H_    0.526077 0.584845 0.444120 0.115303
H29   H     H_    0.977511 0.049870 0.418347 0.114155
H30   H     H_    0.046969 0.101513 0.592907 0.113987
H31   H     H_    0.424760 0.699241 0.451139 0.123949
H32   H     H_    0.583990 0.692640 0.550801 0.113296
H33   H     H_    0.889949 0.916623 0.366770 0.133915
H34   H     H_    0.110332 0.927136 0.631215 0.132853
H35   H     H_    0.304835 0.662882 0.423972 0.172088
H36   H     H_    0.705016 0.655113 0.569952 0.164720
H37   H     H_    0.581485 0.297629 0.940669 0.119274
H38   H     H_    0.485064 0.367121 0.048308 0.108251
H39   H     H_    0.996482 0.871563 0.957746 0.109953
H40   H     H_    0.908610 0.768702 0.064740 0.116216
H41   H     H_    0.417261 0.028203 0.060240 0.122216
H42   H     H_    0.512081 0.958744 0.952811 0.144999
H43   H     H_    0.002968 0.453816 0.040999 0.147828
H44   H     H_    0.092515 0.556716 0.935795 0.121639
H45   H     H_    0.856887 0.986843 0.071425 0.140935
H46   H     H_    0.162000 0.048847 0.941154 0.161543
H47   H     H_    0.356936 0.486324 0.071287 0.140615
H48   H     H_    0.659179 0.542043 0.939772 0.160000
H49   H     H_    0.628131 0.829594 0.874593 0.139959
H50   H     H_    0.370588 0.796749 0.122048 0.139929
H51   H     H_    0.127719 0.334083 0.873777 0.139932
H52   H     H_    0.870344 0.297403 0.121567 0.142499
H53   H     H_    0.038621 0.226049 0.937350 0.115048
H54   H     H_    0.940776 0.162874 0.052208 0.093877
H55   H     H_    0.540752 0.717835 0.938326 0.109639
H56   H     H_    0.441512 0.663784 0.052206 0.093855
H57   H     H_    0.052126 0.188101 0.067015 0.099830
H58   H     H_    0.925098 0.146980 0.921975 0.096453
H59   H     H_    0.553817 0.683351 0.068229 0.099546
H60   H     H_    0.425576 0.648697 0.921959 0.099411
H61   H     H_    0.651446 0.766603 0.133855 0.131879
H62   H     H_    0.333745 0.759846 0.862381 0.133200
H63   H     H_    0.150486 0.267787 0.132833 0.128729
H64   H     H_    0.833640 0.258686 0.861904 0.131163
O1    O     O_R   0.788190 0.043000 0.172520 -0.523110
O2    O     O_R   0.211810 0.043000 0.827480 -0.525182
O3    O     O_R   0.288190 0.543000 0.172520 -0.517476
O4    O     O_R   0.711810 0.543000 0.827480 -0.519969
O5    O     O_R   0.556550 0.253260 0.323480 -0.545429
O6    O     O_R   0.443450 0.253260 0.676520 -0.532742
O7    O     O_R   0.056550 0.753260 0.323480 -0.500846
O8    O     O_R   0.943450 0.753260 0.676520 -0.505036
O9    O     O_R   0.545830 0.051610 0.330160 -0.531736
O10   O     O_R   0.454170 0.051610 0.669840 -0.518960
O11   O     O_R   0.045830 0.551610 0.330160 -0.519708
O12   O     O_R   0.954170 0.551610 0.669840 -0.510936
O13   O     O_R   0.681920 0.959720 0.327070 -0.524207
O14   O     O_R   0.318080 0.959720 0.672930 -0.540294
O15   O     O_R   0.181920 0.459720 0.327070 -0.539614
O16   O     O_R   0.818080 0.459720 0.672930 -0.533343
O17   O     O_3   0.668190 0.168190 0.250820 -0.279689
O18   O     O_3   0.331810 0.168190 0.749180 -0.291750
O19   O     O_3   0.168190 0.668190 0.250820 -0.269887
O20   O     O_3   0.831810 0.668190 0.749180 -0.267215
O21   O     O_R   0.766240 0.292300 0.176860 -0.507094
O22   O     O_R   0.233760 0.292300 0.823140 -0.503787
O23   O     O_R   0.266240 0.792300 0.176860 -0.508151
O24   O     O_R   0.733760 0.792300 0.823140 -0.507316
O25   O     O_R   0.670310 0.409160 0.168720 -0.521879
O26   O     O_R   0.329690 0.409160 0.831280 -0.524176
O27   O     O_R   0.170310 0.909160 0.168720 -0.527659
O28   O     O_R   0.829690 0.909160 0.831280 -0.530078
O29   O     O_R   0.556160 0.251900 0.173380 -0.502616
O30   O     O_R   0.443840 0.251900 0.826620 -0.499618
O31   O     O_R   0.056160 0.751900 0.173380 -0.500058
O32   O     O_R   0.943840 0.751900 0.826620 -0.504726
O33   O     O_R   0.545410 0.050140 0.168240 -0.513844
O34   O     O_R   0.454590 0.050140 0.831760 -0.516217
O35   O     O_R   0.045410 0.550140 0.168240 -0.517377
O36   O     O_R   0.954590 0.550140 0.831760 -0.513331
O37   O     O_R   0.681530 0.958350 0.176970 -0.508571
O38   O     O_R   0.318470 0.958350 0.823030 -0.506660
O39   O     O_R   0.181530 0.458350 0.176970 -0.509061
O40   O     O_R   0.818470 0.458350 0.823030 -0.510234
O41   O     O_R   0.788610 0.044480 0.334450 -0.534651
O42   O     O_R   0.211390 0.044480 0.665550 -0.529270
O43   O     O_R   0.288610 0.544480 0.334450 -0.531814
O44   O     O_R   0.711390 0.544480 0.665550 -0.524060
O45   O     O_R   0.766630 0.293670 0.326970 -0.490315
O46   O     O_R   0.233370 0.293670 0.673030 -0.490853
O47   O     O_R   0.266630 0.793670 0.326970 -0.520710
O48   O     O_R   0.733370 0.793670 0.673030 -0.515962
O49   O     O_R   0.670730 0.410640 0.330640 -0.527871
O50   O     O_R   0.329270 0.410640 0.669360 -0.534417
O51   O     O_R   0.170730 0.910640 0.330640 -0.534561
O52   O     O_R   0.829270 0.910640 0.669360 -0.532841
H65   H     H_    0.656212 0.844324 0.561470 0.135266
H66   H     H_    0.344919 0.845491 0.438854 0.131088
H67   H     H_    0.198690 0.222434 0.547395 0.168797
H68   H     H_    0.784660 0.188836 0.459111 0.152363
H69   H     H_    0.863102 0.965609 0.946341 0.145509
H70   H     H_    0.161254 0.030756 0.066251 0.150973
H71   H     H_    0.362277 0.468998 0.945941 0.148304
H72   H     H_    0.658274 0.524542 0.064773 0.150302

loop_
_geom_bond_atom_site_label_1
_geom_bond_atom_site_label_2
_ccdc_geom_bond_type
C24   C52   A    
Cr11  O11   S    
C88   C96   A    
C133  C137  S    
C88   H20   S    
Cr5   O17   S    
C131  H39   S    
Cr9   O9    S    
C14   C18   A    
C48   O36   A    
C99   C103  A    
C74   C94   A    
C73   C93   A    
C136  C140  S    
C43   H63   S    
Cr7   O19   S    
C21   C49   A    
C75   C95   A    
C7    C8    S    
C104  H28   S    
C34   H54   S    
C132  C139  S    
C135  C139  S    
C74   C119  S    
C1    C12   S    
C33   H53   S    
C33   C39   A    
C27   H71   S    
C12   C28   A    
C37   C41   A    
Cr10  O10   S    
C128  O44   A    
C13   C29   A    
C126  O14   A    
C38   C42   A    
C6    C133  S    
C55   C59   A    
C53   C122  S    
C70   H14   S    
Cr2   O42   S    
C5    C6    S    
C114  C126  S    
C121  O9    A    
C132  C136  S    
C28   H72   S    
C103  H27   S    
C113  C125  S    
C61   C62   A    
C107  C111  A    
Cr9   O37   S    
C67   H11   S    
C122  O10   A    
Cr10  O18   S    
C23   H47   S    
C100  C104  A    
C115  C127  S    
C6    C138  S    
C39   H57   S    
C1    O21   A    
C36   H56   S    
Cr3   O19   S    
Cr6   O50   S    
Cr8   O32   S    
C9    C13   A    
C106  H30   S    
C25   H69   S    
C131  C140  S    
C86   C94   A    
C18   C42   A    
C59   C67   A    
Cr12  O12   S    
C85   C93   A    
C50   C90   S    
Cr6   O6    S    
C66   C72   A    
C129  C138  S    
C12   C16   A    
C120  O48   A    
C8    H44   S    
C129  H37   S    
C100  H24   S    
Cr1   O21   S    
C127  O15   A    
C31   C33   A    
C123  O7    A    
Cr7   O27   S    
C74   C78   A    
Cr12  O36   S    
C132  H40   S    
C5    H41   S    
C47   O35   A    
C45   O33   A    
C103  C107  A    
C46   O34   A    
C46   C138  S    
Cr1   O1    S    
C10   C26   A    
C47   C139  S    
C134  C138  S    
C90   O38   A    
Cr7   O31   S    
C59   C60   A    
C128  O16   A    
C73   C120  S    
Cr2   O2    S    
C80   C100  A    
C8    C135  S    
C51   C91   S    
C111  H35   S    
C72   H16   S    
Cr6   O26   S    
C130  C134  S    
C75   C118  S    
C11   C15   A    
C31   H51   S    
C14   C30   A    
Cr1   O17   S    
C2    C11   S    
C118  O50   A    
C105  C109  A    
C124  O12   A    
C6    H42   S    
C19   C43   A    
C11   C27   A    
Cr10  O34   S    
Cr5   O49   S    
C69   H13   S    
C68   H12   S    
Cr9   O33   S    
C5    C134  S    
C30   H50   S    
Cr11  O15   S    
C101  C105  A    
C97   H21   S    
C108  H32   S    
C9    C25   A    
C80   C84   A    
C56   C123  S    
C83   C115  A    
Cr3   O43   S    
C82   C114  A    
C58   C66   A    
Cr7   O51   S    
C10   C14   A    
C135  H3    S    
C45   O29   A    
Cr12  O40   S    
C126  O42   A    
C2    O22   A    
C125  O41   A    
Cr11  O35   S    
C109  H33   S    
C65   C71   A    
C89   O1    A    
C120  O52   A    
C86   C114  A    
Cr9   O17   S    
C56   C60   A    
Cr12  O16   S    
C107  H31   S    
Cr8   O20   S    
Cr4   O24   S    
C32   C34   A    
C88   C116  A    
C15   C19   A    
C81   C113  A    
C78   C98   A    
C63   H7    S    
C42   H62   S    
C123  O11   A    
Cr3   O23   S    
C32   H52   S    
C89   O37   A    
C41   H61   S    
C53   C62   A    
C78   C82   A    
C131  C135  S    
C23   C51   A    
C118  O46   A    
C85   H17   S    
C37   H59   S    
C16   C20   A    
C48   C140  S    
C87   H19   S    
C55   C64   A    
C64   H8    S    
C45   C137  S    
C4    O24   A    
C56   C63   A    
Cr5   O25   S    
C3    O27   A    
C119  O51   A    
Cr4   O20   S    
C15   C31   A    
C2    O26   A    
C46   O30   A    
C117  O49   A    
C22   C26   A    
C1    O25   A    
Cr4   O4    S    
C129  C133  S    
C61   H5    S    
C92   O40   A    
C35   H55   S    
C54   C121  S    
C81   C109  A    
C20   C44   A    
C23   C27   A    
Cr5   O29   S    
C122  O6    A    
C96   H68   S    
C102  H26   S    
C34   C40   A    
C84   C116  A    
C52   C92   S    
C66   H10   S    
Cr3   O47   S    
Cr1   O45   S    
C7    H43   S    
C131  C132  S    
Cr4   O48   S    
C7    C139  S    
C82   C110  A    
C104  C108  A    
Cr7   O7    S    
C18   C50   A    
C105  H29   S    
Cr11  O39   S    
C129  C130  S    
C106  C110  A    
C110  H34   S    
C79   C99   A    
Cr2   O22   S    
C21   C25   A    
C87   C95   A    
C133  H1    S    
Cr1   O41   S    
C26   H70   S    
C49   C89   S    
C35   C37   A    
Cr6   O30   S    
C44   H64   S    
C87   C115  A    
C22   H46   S    
C24   C28   A    
C21   H45   S    
C63   C64   A    
C53   C57   A    
C112  H36   S    
C39   C43   A    
C76   C80   A    
C95   H67   S    
Cr11  O19   S    
Cr12  O20   S    
C54   C61   A    
C30   C36   A    
C16   C32   A    
C29   C35   A    
C125  O13   A    
C76   C117  S    
Cr10  O14   S    
C22   C50   A    
C8    C140  S    
C40   H58   S    
Cr9   O13   S    
Cr6   O18   S    
Cr8   O52   S    
C85   C113  A    
Cr8   O8    S    
C117  O45   A    
C7    C136  S    
C20   C52   A    
C3    C10   S    
C98   C102  A    
C5    C137  S    
C76   C96   A    
C119  O47   A    
C29   H49   S    
C65   H9    S    
C57   C58   A    
C134  H2    S    
C91   O39   A    
C86   H18   S    
C19   C51   A    
C98   H22   S    
C17   C49   A    
C36   C38   A    
C93   H65   S    
C127  O43   A    
C62   H6    S    
C102  C106  A    
C83   C111  A    
C136  H4    S    
C91   O3    A    
C69   C70   A    
Cr4   O44   S    
C17   C41   A    
C90   O2    A    
C99   H23   S    
Cr10  O38   S    
C60   C68   A    
C67   C69   A    
Cr3   O3    S    
C13   C17   A    
C79   C83   A    
C55   C124  S    
C108  C112  A    
C40   C44   A    
Cr5   O5    S    
C71   C72   A    
C24   H48   S    
C73   C77   A    
C68   C70   A    
C77   C81   A    
C116  C128  S    
C54   C58   A    
Cr2   O18   S    
Cr8   O28   S    
C124  O8    A    
C121  O5    A    
C47   O31   A    
C48   O32   A    
C71   H15   S    
C84   C112  A    
Cr2   O46   S    
C77   C97   A    
C38   H60   S    
C4    C9    S    
C92   O4    A    
C130  C137  S    
C75   C79   A    
C4    O28   A    
C101  H25   S    
C97   C101  A    
C130  H38   S    
C3    O23   A    
C57   C65   A    
C94   H66   S    
