data_mof_unit_16789.cif
_audit_creation_date              2012-12-10T19:11:33-0500
_audit_creation_method            fapswitch 2.2
_symmetry_space_group_name_H-M    P1
_symmetry_Int_Tables_number       1
_space_group_crystal_system       triclinic
_cell_length_a                    7.783201
_cell_length_b                    9.084599
_cell_length_c                    17.100489
_cell_angle_alpha                 90.151532
_cell_angle_beta                  85.621994
_cell_angle_gamma                 90.041898
_cell_volume                      1205.59625398

loop_
_atom_site_label
_atom_site_type_symbol
_atom_type_description
_atom_site_fract_x
_atom_site_fract_y
_atom_site_fract_z
_atom_type_partial_charge
C1    C     C_R   0.500026 0.779972 0.500071 0.820226
C2    C     C_R   0.499875 0.220040 0.500495 0.934140
C3    C     C_1   0.500001 0.934619 0.500289 -0.131060
C4    C     C_1   0.499862 0.065392 0.500458 -0.088752
C5    C     C_R   0.477170 0.500361 0.650914 0.879057
C6    C     C_R   0.522878 0.499545 0.349243 0.895873
C7    C     C_R   0.463504 0.521934 0.736034 -0.204332
C8    C     C_R   0.538137 0.517128 0.264210 -0.148968
C9    C     C_R   0.566667 0.632322 0.764889 -0.181945
C10   C     C_R   0.466152 0.644128 0.234794 -0.321242
C11   C     C_R   0.555164 0.669812 0.844120 0.037948
C12   C     C_R   0.488456 0.679011 0.155547 0.039179
C13   C     C_R   0.437614 0.592863 0.896341 -0.058643
C14   C     C_R   0.581557 0.580887 0.103600 0.019461
C15   C     C_R   0.324220 0.486860 0.867202 -0.099452
C16   C     C_R   0.662947 0.455156 0.133367 -0.146219
C17   C     C_R   0.343225 0.445210 0.786959 0.416366
C18   C     C_R   0.634679 0.419146 0.213973 0.417196
C19   C     C_2   0.438698 0.614714 0.982046 -0.186555
C20   C     C_2   0.585321 0.601087 0.017789 -0.169695
Cu1   Cu    Cu3+1 0.330920 0.500000 0.500000 1.079509
Cu2   Cu    Cu3+1 0.669080 0.500000 0.500000 1.069042
H1    H     H_    0.653957 0.692969 0.724279 0.203869
H2    H     H_    0.397044 0.720006 0.275002 0.158251
H3    H     H_    0.705810 0.582386 0.982766 0.164201
H4    H     H_    0.316499 0.620361 0.017176 0.167448
N1    N     N_1   0.923170 0.500000 0.500010 -0.027196
N2    N     N_1   0.076830 0.500000 0.499990 -0.025161
O1    O     O_R   0.357240 0.711600 0.500000 -0.585998
O2    O     O_R   0.642760 0.288400 0.500000 -0.574265
O3    O     O_R   0.642760 0.711600 0.500000 -0.586336
O4    O     O_R   0.357240 0.288400 0.500000 -0.565477
O5    O     O_R   0.340660 0.500000 0.613590 -0.535352
O6    O     O_R   0.659340 0.500000 0.386410 -0.553125
O7    O     O_R   0.626230 0.500000 0.613600 -0.586761
O8    O     O_R   0.373770 0.500000 0.386400 -0.581832
C21   C     C_2   0.187124 0.420860 0.921462 0.489451
H5    H     H_    0.215353 0.386345 0.979803 0.087969
O9    O     O_2   0.039581 0.409996 0.902438 -0.480475
C22   C     C_2   0.776342 0.362688 0.079356 0.505870
H6    H     H_    0.737319 0.333733 0.021712 0.093445
O10   O     O_2   0.917600 0.323046 0.097703 -0.469208
C23   C     C_2   0.419860 0.823161 0.131327 0.453889
H7    H     H_    0.319124 0.877301 0.168268 0.087873
O11   O     O_2   0.479512 0.886457 0.072511 -0.517040
C24   C     C_2   0.659727 0.795425 0.870306 0.437914
H8    H     H_    0.632593 0.844071 0.927803 0.145982
O12   O     O_2   0.777056 0.847387 0.827482 -0.497002
S1    S     S_3+6 0.705594 0.247332 0.250825 0.032565
O13   O     O_2   0.588028 0.197718 0.319483 -0.354426
O14   O     O_2   0.707726 0.129758 0.188714 -0.246177
O15   O     O_3   0.905725 0.269425 0.279699 -0.485491
H9    H     H_    0.935055 0.173454 0.302592 0.374669
S2    S     S_3+6 0.230081 0.289850 0.751927 0.056882
O16   O     O_2   0.333108 0.216947 0.684694 -0.331114
O17   O     O_2   0.195802 0.177711 0.815733 -0.232812
O18   O     O_3   0.041484 0.348280 0.721426 -0.477981
H10   H     H_    0.987429 0.259300 0.700368 0.381812

loop_
_geom_bond_atom_site_label_1
_geom_bond_atom_site_label_2
_ccdc_geom_bond_type
C2    C4    S    
C23   H7    S    
C5    C7    S    
C21   H5    S    
C14   C20   S    
C8    C18   A    
C11   C13   A    
C19   C20   D    
C2    O2    A    
S1    O15   S    
C10   H2    S    
S1    O14   D    
C1    O1    A    
C21   O9    D    
Cu1   O8    S    
Cu1   Cu2   S    
Cu2   O7    S    
C9    C11   A    
O18   H10   S    
C10   C12   A    
C16   C22   S    
C5    O7    A    
C8    C10   A    
C22   H6    S    
Cu1   N2    S    
C12   C14   A    
C12   C23   S    
S2    O17   D    
Cu2   N1    S    
C13   C15   A    
Cu2   O6    S    
Cu1   O4    S    
C14   C16   A    
Cu1   O5    S    
Cu2   O3    S    
C13   C19   S    
C3    C4    T    
C24   O12   D    
C7    C9    A    
C1    O3    A    
O15   H9    S    
C2    O4    A    
S1    O13   D    
C20   H3    S    
N1    N2    T    
C15   C17   A    
C19   H4    S    
S2    O16   D    
C9    H1    S    
C11   C24   S    
C6    C8    S    
Cu2   O2    S    
C1    C3    S    
C24   H8    S    
Cu1   O1    S    
C17   S2    S    
C23   O11   D    
C16   C18   A    
C15   C21   S    
C6    O6    A    
C18   S1    S    
C6    O8    A    
C22   O10   D    
C7    C17   A    
S2    O18   S    
C5    O5    A    
