data_mof_unit_29257.cif
_audit_creation_date              2012-12-11T15:37:06-0500
_audit_creation_method            fapswitch 2.2
_symmetry_space_group_name_H-M    P1
_symmetry_Int_Tables_number       1
_space_group_crystal_system       triclinic
_cell_length_a                    16.633571
_cell_length_b                    7.074997
_cell_length_c                    15.214731
_cell_angle_alpha                 90.047144
_cell_angle_beta                  94.814342
_cell_angle_gamma                 89.996078
_cell_volume                      1784.18932348

loop_
_atom_site_label
_atom_site_type_symbol
_atom_type_description
_atom_site_fract_x
_atom_site_fract_y
_atom_site_fract_z
_atom_type_partial_charge
O1    O     O_R   0.578230 0.505720 0.424270 -0.518900
O2    O     O_R   0.421770 0.005720 0.575730 -0.520681
O3    O     O_R   0.412470 0.173950 0.404530 -0.492719
O4    O     O_R   0.587530 0.673950 0.595470 -0.482902
C1    C     C_R   0.385182 0.345719 0.381006 0.849900
C2    C     C_R   0.614679 0.845158 0.619090 0.884253
O5    O     O_R   0.577030 0.175880 0.413670 -0.540694
O6    O     O_R   0.422970 0.675880 0.586330 -0.530764
O7    O     O_R   0.587510 0.007580 0.584940 -0.512293
O8    O     O_R   0.412490 0.507580 0.415060 -0.486764
C3    C     C_R   0.603340 0.344758 0.393086 0.741141
C4    C     C_R   0.396517 0.844772 0.606740 0.776965
O9    O     O_3   0.503240 0.339850 0.556180 -0.364315
O10   O     O_3   0.496760 0.839850 0.443820 -0.345888
V1    V     V_3+5 0.499400 0.064230 0.489580 1.715586
V2    V     V_3+5 0.500600 0.564230 0.510420 1.748838
C5    C     C_1   0.334022 0.855144 0.668890 -0.151162
C6    C     C_1   0.665813 0.355099 0.330911 -0.152164
C7    C     C_1   0.281365 0.865836 0.720174 0.038482
C8    C     C_1   0.718483 0.365862 0.279647 0.046699
C9    C     C_1   0.219155 0.879211 0.780314 0.069408
C10   C     C_1   0.780733 0.379371 0.219562 0.067587
C11   C     C_1   0.166438 0.889873 0.831553 -0.094165
C12   C     C_1   0.833492 0.390090 0.168379 -0.098968
C13   C     C_3   0.760873 0.703187 0.827978 1.107700
C14   C     C_3   0.258159 0.260912 0.151791 1.098008
C15   C     C_3   0.681263 0.699760 0.763816 0.247694
C16   C     C_3   0.322891 0.215127 0.230956 0.274989
C17   C     C_3   0.841296 0.887591 0.720502 0.340204
C18   C     C_3   0.160998 0.298472 0.270333 0.322225
C19   C     C_3   0.753787 0.058683 0.819587 0.244768
C20   C     C_3   0.225829 0.586698 0.208634 0.394013
C21   C     C_3   0.811148 0.886768 0.814515 -0.428673
C22   C     C_3   0.189399 0.388062 0.184765 -0.473951
H1    H     H_    0.788923 0.191781 0.816874 0.235577
H2    H     H_    0.181859 0.663824 0.246667 0.198504
C23   C     C_3   0.686003 0.858765 0.690446 -0.517081
C24   C     C_3   0.313720 0.360700 0.309694 -0.540476
C25   C     C_3   0.771231 0.833933 0.646607 -0.215500
C26   C     C_3   0.228637 0.316576 0.351043 -0.188552
C27   C     C_3   0.687148 0.058973 0.739918 0.281182
C28   C     C_3   0.307886 0.569171 0.267392 0.286287
H3    H     H_    0.862220 0.034759 0.710594 0.149807
H4    H     H_    0.103634 0.366808 0.285252 0.103456
O11   O     O_R   0.087480 0.241090 0.084980 -0.490213
O12   O     O_R   0.912520 0.741090 0.915020 -0.492175
O13   O     O_R   0.922960 0.569060 0.086330 -0.543457
O14   O     O_R   0.077040 0.069060 0.913670 -0.543392
C29   C     C_R   0.896202 0.400258 0.106423 0.722568
C30   C     C_R   0.103777 0.900174 0.893563 0.780548
O15   O     O_R   0.087520 0.570920 0.095480 -0.525220
O16   O     O_R   0.912480 0.070920 0.904520 -0.559385
O17   O     O_R   0.078240 0.739160 0.924260 -0.529810
O18   O     O_R   0.921760 0.239160 0.075740 -0.539527
C31   C     C_R   0.117463 0.402018 0.115580 0.846434
C32   C     C_R   0.882825 0.901713 0.884036 0.893028
O19   O     O_3   0.996740 0.404980 0.943840 -0.375516
O20   O     O_3   0.003260 0.904980 0.056160 -0.369011
V3    V     V_3+5 0.000600 0.680640 0.010420 1.725641
V4    V     V_3+5 0.999400 0.180640 0.989580 1.685798
F1    F     F_    0.807650 0.547136 0.811444 -0.592761
F2    F     F_    0.227530 0.091685 0.117153 -0.522948
F3    F     F_    0.709376 0.193588 0.680588 -0.628320
F4    F     F_    0.305127 0.703849 0.333311 -0.592028
C33   C     C_2   0.778477 0.959071 0.564659 0.831968
O21   O     O_2   0.838563 0.055645 0.557457 -0.546485
O22   O     O_R   0.720128 0.948961 0.493045 -0.650018
H5    H     H_    0.733945 0.030180 0.441566 0.294183
C34   C     C_2   0.206954 0.475503 0.414052 0.772280
O23   O     O_2   0.142519 0.559259 0.403658 -0.558117
O24   O     O_R   0.260452 0.520784 0.486992 -0.623378
H6    H     H_    0.239082 0.623604 0.525174 0.294186
F5    F     F_    0.744810 0.688158 0.915753 -0.613154
F6    F     F_    0.290741 0.353818 0.082955 -0.627365
C35   C     C_2   0.603783 0.709855 0.810855 0.905558
O25   O     O_2   0.602015 0.785495 0.882984 -0.476471
O26   O     O_R   0.532881 0.632357 0.769776 -0.627394
H7    H     H_    0.484918 0.648006 0.806091 0.310945
C36   C     C_2   0.408782 0.194396 0.202723 0.798644
O27   O     O_2   0.431452 0.280717 0.139795 -0.503005
O28   O     O_R   0.461700 0.066965 0.247688 -0.614158
H8    H     H_    0.516566 0.063032 0.223306 0.297038
F7    F     F_    0.677484 0.525118 0.723494 -0.576566
F8    F     F_    0.304488 0.037235 0.261362 -0.538252
F9    F     F_    0.910499 0.779547 0.717120 -0.618539
F10   F     F_    0.139834 0.112479 0.251014 -0.550880
C37   C     C_2   0.780979 0.631896 0.610860 1.033526
O29   O     O_2   0.735598 0.575577 0.548874 -0.548049
O30   O     O_R   0.841213 0.510084 0.646715 -0.548803
H9    H     H_    0.840955 0.383769 0.615640 0.355133
C38   C     C_2   0.230228 0.140279 0.411026 0.999243
O31   O     O_2   0.277618 0.132495 0.476840 -0.574300
O32   O     O_R   0.172466 0.997242 0.398352 -0.564734
H10   H     H_    0.176759 0.900763 0.447631 0.323965
F11   F     F_    0.721488 0.058676 0.900863 -0.596892
F12   F     F_    0.232160 0.695303 0.133711 -0.523767
C39   C     C_2   0.606890 0.129797 0.770871 1.008459
O33   O     O_2   0.607075 0.267112 0.819723 -0.445572
O34   O     O_R   0.533077 0.045205 0.743415 -0.714941
H11   H     H_    0.485599 0.108864 0.768910 0.295650
C40   C     C_2   0.382522 0.622412 0.219478 0.992028
O35   O     O_2   0.377548 0.660556 0.140848 -0.429381
O36   O     O_R   0.458199 0.631818 0.266673 -0.660066
H12   H     H_    0.502964 0.666935 0.228411 0.300564

loop_
_geom_bond_atom_site_label_1
_geom_bond_atom_site_label_2
_ccdc_geom_bond_type
C37   O29   D    
C3    C6    S    
C40   O35   D    
O12   V3    S    
C16   F8    S    
O1    C3    A    
C25   C37   S    
O2    C4    A    
C2    O7    A    
C39   O33   D    
O17   V3    S    
O13   C29   A    
O18   V4    S    
O26   H7    S    
O5    C3    A    
O32   H10   S    
C20   H2    S    
C7    C9    S    
C13   F5    S    
C24   C28   S    
O19   V3    S    
O20   V4    S    
C29   O18   A    
C17   C21   S    
C34   O24   S    
C16   C36   S    
C27   C39   S    
O16   V4    S    
C5    C7    T    
C14   C22   S    
C33   O22   S    
C4    C5    S    
C19   C21   S    
C18   F10   S    
C17   F9    S    
C21   C32   S    
O5    V1    S    
C22   C31   S    
C40   O36   S    
C1    C24   S    
C17   H3    S    
C23   C27   S    
C25   C33   S    
C18   H4    S    
C15   C35   S    
C1    O8    A    
C39   O34   S    
O14   V4    S    
C30   O17   A    
C26   C34   S    
C18   C22   S    
O22   H5    S    
O4    C2    A    
O11   V4    S    
C38   O31   D    
C36   O28   S    
C11   C30   S    
O15   C31   A    
O20   V3    S    
O28   H8    S    
C20   C22   S    
O4    V2    S    
C35   O25   D    
C38   O32   S    
O34   H11   S    
C16   C24   S    
O6    C4    A    
C17   C25   S    
C2    C23   S    
C18   C26   S    
O1    V2    S    
C13   F1    S    
O2    V1    S    
C35   O26   S    
C20   F12   S    
C8    C10   S    
C9    C11   T    
C10   C12   T    
O15   V3    S    
C27   F3    S    
C28   C40   S    
C28   F4    S    
O3    V1    S    
C12   C29   S    
C19   C27   S    
O3    C1    A    
C13   C15   S    
C14   C16   S    
C15   F7    S    
O7    V1    S    
O24   H6    S    
C23   C25   S    
O8    V2    S    
C24   C26   S    
C15   C23   S    
C19   F11   S    
C19   H1    S    
O14   C30   A    
C14   F6    S    
C6    C8    T    
C26   C38   S    
C14   F2    S    
C34   O23   D    
O13   V3    S    
C36   O27   D    
O19   V4    S    
O11   C31   A    
O6    V2    S    
C33   O21   D    
O9    V2    S    
O12   C32   A    
O36   H12   S    
C37   O30   S    
C20   C28   S    
O10   V1    S    
O30   H9    S    
O16   C32   A    
C13   C21   S    
