data_mof_unit_53334.cif
_audit_creation_date              2012-12-11T17:47:30-0500
_audit_creation_method            fapswitch 2.2
_symmetry_space_group_name_H-M    P1
_symmetry_Int_Tables_number       1
_space_group_crystal_system       triclinic
_cell_length_a                    14.836309
_cell_length_b                    14.876576
_cell_length_c                    15.161033
_cell_angle_alpha                 110.915558
_cell_angle_beta                  108.638556
_cell_angle_gamma                 108.374532
_cell_volume                      2590.07905416

loop_
_atom_site_label
_atom_site_type_symbol
_atom_type_description
_atom_site_fract_x
_atom_site_fract_y
_atom_site_fract_z
_atom_type_partial_charge
Br1   Br    Br    0.924083 0.826605 0.602196 -0.643441
Br2   Br    Br    0.022929 0.096445 0.170001 -0.634473
C1    C     C_R   0.908176 0.194327 0.992486 -0.062532
C2    C     C_R   0.825938 0.957422 0.910048 -0.188115
C3    C     C_R   0.145961 0.995236 0.726884 -0.185057
C4    C     C_R   0.858671 0.996330 0.215515 -0.215339
C5    C     C_R   0.049279 0.955147 0.730897 0.303368
C6    C     C_R   0.887598 0.982779 0.134459 0.326186
C7    C     C_R   0.671945 0.314660 0.188339 -0.125222
C8    C     C_R   0.403737 0.692447 0.872370 -0.123431
C9    C     C_R   0.777180 0.384907 0.276319 -0.110450
C10   C     C_R   0.308973 0.614852 0.773652 -0.130815
C11   C     C_R   0.838447 0.341178 0.319497 0.097970
C12   C     C_R   0.027089 0.753221 0.940197 -0.116922
C13   C     C_R   0.256445 0.648578 0.707321 0.110653
C14   C     C_R   0.791729 0.226596 0.275000 -0.161553
C15   C     C_R   0.302351 0.760984 0.740106 -0.156908
C16   C     C_R   0.299784 0.801127 0.209819 -0.143937
C17   C     C_R   0.685699 0.247096 0.777015 -0.141063
C18   C     C_R   0.686702 0.156685 0.186644 -0.106376
C19   C     C_R   0.397898 0.838296 0.838601 -0.107061
C20   C     C_R   0.626910 0.200711 0.143105 -0.107713
C21   C     C_R   0.448199 0.804146 0.904987 -0.100071
C22   C     C_R   0.966502 0.412481 0.506471 -0.223175
C23   C     C_R   0.304451 0.860052 0.306147 0.050189
C24   C     C_R   0.136900 0.566826 0.511080 -0.220042
C25   C     C_R   0.063758 0.489980 0.602625 0.066687
C26   C     C_R   0.037127 0.492375 0.416289 0.082900
C27   C     C_R   0.151403 0.567216 0.606273 0.023757
C28   C     C_R   0.950174 0.414779 0.413548 0.028416
C29   C     C_R   0.047834 0.006270 0.828823 -0.019332
C30   C     C_R   0.817416 0.888546 0.029917 0.010472
C31   C     C_R   0.241332 0.133959 0.916239 -0.126646
C32   C     C_R   0.689391 0.826878 0.089881 -0.122233
C33   C     C_R   0.093516 0.985281 0.335491 -0.063163
C34   C     C_R   0.678973 0.224808 0.677271 0.047180
C35   C     C_R   0.826930 0.016282 0.613885 -0.062265
C36   C     C_R   0.197004 0.005761 0.349691 -0.108702
C37   C     C_R   0.728463 0.017243 0.589384 -0.132456
C38   C     C_R   0.282456 0.046267 0.452273 0.100772
C39   C     C_R   0.688567 0.048364 0.514671 0.121035
C40   C     C_R   0.224032 0.406986 0.974175 -0.142558
C41   C     C_R   0.785708 0.591285 0.091461 -0.146285
C42   C     C_R   0.264702 0.077925 0.541937 -0.163475
C43   C     C_R   0.745841 0.073987 0.461433 -0.202514
C44   C     C_R   0.162812 0.065270 0.528038 -0.114959
C45   C     C_R   0.324658 0.498954 0.048941 0.034636
C46   C     C_R   0.845354 0.074482 0.487675 -0.160709
C47   C     C_R   0.076402 0.015858 0.424497 -0.091875
C48   C     C_R   0.886001 0.045813 0.563965 -0.057408
C49   C     C_R   0.484593 0.140333 0.555918 -0.235007
C50   C     C_R   0.495979 0.974874 0.405696 -0.229812
C51   C     C_R   0.583958 0.142886 0.573735 0.066841
C52   C     C_R   0.395543 0.965979 0.391987 0.060712
C53   C     C_R   0.589789 0.059779 0.496776 0.017437
C54   C     C_R   0.387966 0.050767 0.465361 0.030923
C55   C     C_R   0.241286 0.085176 0.818739 -0.159637
C56   C     C_R   0.693012 0.499026 0.057246 0.032826
C57   C     C_R   0.759977 0.918380 0.193446 -0.163289
C58   C     C_R   0.839642 0.882979 0.940582 0.080262
C59   C     C_R   0.952646 0.955951 0.841804 0.074460
C60   C     C_R   0.145886 0.093761 0.921803 -0.166862
C61   C     C_R   0.717399 0.811477 0.007934 -0.216260
C62   C     C_R   0.899276 0.833651 0.906675 0.040907
C63   C     C_R   0.901509 0.011692 0.885566 0.047862
C64   C     C_R   0.049073 0.591197 0.313996 -0.131440
C65   C     C_R   0.004652 0.406850 0.701683 -0.173481
C66   C     C_3   0.491986 0.392830 0.016402 -0.186017
C67   C     C_R   0.024543 0.496964 0.321110 0.045302
C68   C     C_3   0.535189 0.602400 0.121983 -0.159380
C69   C     C_3   0.435622 0.446460 0.966618 -0.135846
C70   C     C_3   0.592648 0.548783 0.172177 -0.131875
C71   C     C_3   0.426122 0.498556 0.068289 0.188356
C72   C     C_3   0.600547 0.496950 0.069750 0.180224
C73   C     C_3   0.481093 0.444601 0.118402 -0.165932
C74   C     C_3   0.544488 0.549960 0.019850 -0.158002
C75   C     C_R   0.314584 0.591527 0.065039 -0.121450
C76   C     C_R   0.696482 0.407850 0.998469 -0.134004
C77   C     C_R   0.963980 0.405858 0.219011 -0.095185
C78   C     C_R   0.059964 0.496671 0.697506 0.059871
C79   C     C_R   0.090496 0.589955 0.789369 -0.111340
C80   C     C_R   0.211942 0.798568 0.305028 -0.137698
C81   C     C_R   0.782285 0.262473 0.690946 -0.101501
C82   C     C_R   0.997540 0.195315 0.899893 -0.161353
C83   C     C_R   0.932132 0.750434 0.029123 -0.141445
C84   C     C_R   0.937501 0.129806 0.926853 0.081216
C85   C     C_R   0.948578 0.779713 0.955943 0.083489
C86   C     C_R   0.932424 0.855904 0.836603 -0.149629
H1    H     H_    0.850128 0.167146 0.018195 0.093260
H2    H     H_    0.441647 0.665442 0.923556 0.104846
H3    H     H_    0.810959 0.473052 0.310588 0.127962
H4    H     H_    0.275543 0.528692 0.749812 0.112062
H5    H     H_    0.837077 0.191766 0.308564 0.119986
H6    H     H_    0.262848 0.789050 0.690798 0.118317
H7    H     H_    0.651637 0.068489 0.152203 0.113151
H8    H     H_    0.432247 0.924838 0.864067 0.103997
H9    H     H_    0.898129 0.355985 0.505485 0.131258
H10   H     H_    0.202925 0.624585 0.510566 0.130146
H11   H     H_    0.452476 0.401839 0.158718 0.123965
H12   H     H_    0.062944 0.766125 0.891331 0.097520
H13   H     H_    0.571086 0.589100 0.976206 0.114107
H14   H     H_    0.352108 0.830732 0.179254 0.095892
H15   H     H_    0.619354 0.225836 0.794406 0.097415
H16   H     H_    0.148696 0.129913 0.999269 0.168368
H17   H     H_    0.660210 0.741570 0.927070 0.137381
H18   H     H_    0.996213 0.000656 0.413215 0.111285
H19   H     H_    0.963337 0.046884 0.584719 0.116589
H20   H     H_    0.026480 0.943853 0.255001 0.135592
H21   H     H_    0.857879 0.994210 0.672886 0.137413
H22   H     H_    0.208538 0.983705 0.279476 0.132598
H23   H     H_    0.147699 0.955076 0.652698 0.149040
H24   H     H_    0.684912 0.997015 0.630787 0.115140
H25   H     H_    0.328505 0.109888 0.622307 0.102529
H26   H     H_    0.715969 0.098331 0.403689 0.123076
H27   H     H_    0.150098 0.091195 0.597236 0.112928
H28   H     H_    0.891795 0.098937 0.450323 0.106964
H29   H     H_    0.482803 0.206626 0.614919 0.130557
H30   H     H_    0.501526 0.908717 0.350695 0.130409
H31   H     H_    0.966810 0.811039 0.798739 0.149297
H32   H     H_    0.776592 0.991102 0.932312 0.119179
H33   H     H_    0.369957 0.404523 0.881830 0.112833
H34   H     H_    0.912704 0.068193 0.295430 0.141646
H35   H     H_    0.660122 0.590261 0.255861 0.139879
H36   H     H_    0.475915 0.306939 0.972831 0.099835
H37   H     H_    0.552721 0.688575 0.167461 0.107138
H38   H     H_    0.205246 0.321851 0.939115 0.119336
H39   H     H_    0.811968 0.675387 0.148593 0.113589
H40   H     H_    0.091016 0.675566 0.379117 0.108437
H41   H     H_    0.979643 0.321949 0.648185 0.110699
H42   H     H_    0.378338 0.676188 0.113245 0.090608
H43   H     H_    0.642591 0.323306 0.970437 0.086876
H44   H     H_    0.930607 0.320102 0.195802 0.130487
H45   H     H_    0.315803 0.201571 0.988257 0.120945
H46   H     H_    0.142733 0.674344 0.815663 0.109430
H47   H     H_    0.185627 0.823810 0.363919 0.110367
H48   H     H_    0.805720 0.261182 0.630505 0.115933
H49   H     H_    0.016855 0.168694 0.835585 0.108325
H50   H     H_    0.876986 0.756751 0.059540 0.117955
H51   H     H_    0.315646 0.115470 0.814793 0.111143
H52   H     H_    0.737040 0.929632 0.255887 0.137037
H53   H     H_    0.611504 0.770047 0.072933 0.108977
H54   H     H_    0.545484 0.146637 0.074786 0.100743
H55   H     H_    0.521254 0.864419 0.981776 0.110121
H56   H     H_    0.625215 0.348586 0.155449 0.118414
N1    N     N_R   0.947560 0.293820 0.002910 -0.047727
N2    N     N_R   0.789450 0.443190 0.997090 -0.035508
N3    N     N_R   0.945970 0.443180 0.152110 -0.047306
N4    N     N_R   0.054030 0.556820 0.847890 -0.042233
N5    N     N_R   0.151530 0.706170 0.208880 -0.038373
N6    N     N_R   0.848470 0.293830 0.791120 -0.045163
N7    N     N_R   0.004980 0.293810 0.946140 -0.038194
N8    N     N_R   0.995020 0.706190 0.053860 -0.045646
N9    N     N_R   0.052440 0.706180 0.997090 -0.044561
N10   N     N_R   0.208960 0.706170 0.152110 -0.036665
N11   N     N_R   0.791040 0.293830 0.847890 -0.044797
N12   N     N_R   0.154330 0.443160 0.946140 -0.040402
N13   N     N_R   0.845670 0.556840 0.053860 -0.039705
N14   N     N_R   0.002190 0.556820 0.208880 -0.041445
N15   N     N_R   0.997810 0.443180 0.791120 -0.038208
N16   N     N_R   0.210550 0.556810 0.002910 -0.039716
Ni1   Ni    Ni4+2 0.869690 0.369690 0.000000 0.213331
Ni2   Ni    Ni4+2 0.130310 0.630310 0.000000 0.217684
Ni3   Ni    Ni4+2 0.001390 0.369680 0.869810 0.213852
Ni4   Ni    Ni4+2 0.998610 0.630320 0.130190 0.217622

loop_
_geom_bond_atom_site_label_1
_geom_bond_atom_site_label_2
_ccdc_geom_bond_type
C48   H19   S    
C32   H53   S    
C25   C27   A    
C17   N11   A    
C29   C59   S    
C51   C53   A    
C26   C67   S    
C22   C25   A    
N5    N10   A    
C66   H36   S    
C63   C84   S    
C37   C39   A    
N2    N13   A    
N11   Ni1   S    
C66   C73   S    
N6    Ni3   S    
C44   C47   A    
C14   H5    S    
C72   C74   S    
C44   H27   S    
C82   C84   A    
C12   C85   A    
C17   C34   A    
C69   C74   S    
C7    C20   A    
C64   C67   A    
C34   C81   A    
C66   C72   S    
C55   H51   S    
C49   C54   A    
C16   H14   S    
C80   H47   S    
C2    C63   A    
C39   C53   S    
C33   H20   S    
C41   C56   A    
C17   H15   S    
C43   H26   S    
N12   Ni3   S    
C50   C52   A    
C31   C60   A    
C38   C54   S    
C33   C47   A    
C34   C51   S    
C61   H17   S    
C62   C85   S    
C35   H21   S    
C16   N10   A    
C50   C53   A    
N14   Ni4   S    
C46   H28   S    
C81   N6    A    
C9    H3    S    
C46   C48   A    
C1    C84   A    
C71   C73   S    
C29   C60   A    
C21   H55   S    
C65   H41   S    
C16   C23   A    
C70   C73   S    
C40   C45   A    
C7    H56   S    
C42   C44   A    
C13   C27   S    
C60   H16   S    
C83   C85   A    
N2    Ni1   S    
C52   C54   A    
C5    C29   A    
C22   H9    S    
C6    C30   A    
C11   C28   S    
C79   H46   S    
C33   C36   A    
C23   C52   S    
C45   C71   S    
C70   C72   S    
C25   C78   S    
N3    Ni1   S    
C41   H39   S    
C3    C5    A    
C76   N2    A    
C4    C6    A    
C3    H23   S    
C15   C19   A    
C49   C51   A    
N4    N15   A    
N16   Ni2   S    
C40   N12   A    
C76   H43   S    
C59   C86   A    
C59   C63   A    
C10   C13   A    
N12   N16   A    
C14   C18   A    
C79   N4    A    
C2    C58   A    
C68   C71   S    
C73   H11   S    
C1    H1    S    
N5    Ni4   S    
N1    N7    A    
C86   H31   S    
C7    C9    A    
N13   Ni4   S    
C81   H48   S    
N8    Ni4   S    
C8    C10   A    
C24   H10   S    
C68   H37   S    
C37   H24   S    
C18   H7    S    
C18   C20   A    
C42   H25   S    
C1    N1    A    
N7    Ni3   S    
N6    N11   A    
C19   C21   A    
C12   N9    A    
C68   C74   S    
C32   C57   A    
N15   Ni3   S    
C67   C77   A    
C36   H22   S    
C45   C75   A    
C40   H38   S    
N10   Ni2   S    
C64   N14   A    
C56   C72   S    
C69   C71   S    
C43   C46   A    
C74   H13   S    
C13   C15   A    
C31   C55   A    
Br1   C5    S    
C4    C57   A    
C10   H4    S    
Br2   C6    S    
C65   C78   A    
C30   C61   A    
C78   C79   A    
C41   N13   A    
C82   H49   S    
C77   N3    A    
C20   H54   S    
C12   H12   S    
C47   H18   S    
C19   H8    S    
C8    C21   A    
C24   C26   A    
C3    C55   A    
N9    Ni2   S    
C58   C62   A    
N4    Ni2   S    
C26   C28   A    
C83   N8    A    
C70   H35   S    
C39   C43   A    
C36   C38   A    
C35   C48   A    
C9    C11   A    
C23   C80   A    
N1    Ni1   S    
C57   H52   S    
C66   C69   S    
C77   H44   S    
C69   H33   S    
C32   C61   A    
C49   H29   S    
C64   H40   S    
C75   H42   S    
C22   C28   A    
C80   N5    A    
C56   C76   A    
C75   N16   A    
C82   N7    A    
C31   H45   S    
C38   C42   A    
N8    N9    A    
C8    H2    S    
C24   C27   A    
C35   C37   A    
C11   C14   A    
C30   C58   S    
C4    H34   S    
C2    H32   S    
C68   C70   S    
C15   H6    S    
N3    N14   A    
C83   H50   S    
C62   C86   A    
C65   N15   A    
C50   H30   S    
