data_mof_unit_53888.cif
_audit_creation_date              2013-03-05T15:47:37-0500
_audit_creation_method            fapswitch 2.2
_symmetry_space_group_name_H-M    P1
_symmetry_Int_Tables_number       1
_space_group_crystal_system       triclinic
_cell_length_a                    10.83738
_cell_length_b                    13.003851
_cell_length_c                    11.631365
_cell_angle_alpha                 99.834924
_cell_angle_beta                  94.04034
_cell_angle_gamma                 90.289524
_cell_volume                      1610.83423784

loop_
_atom_site_label
_atom_site_type_symbol
_atom_site_description
_atom_site_fract_x
_atom_site_fract_y
_atom_site_fract_z
_atom_type_partial_charge
O1    O     O_R   0.506570 0.354460 0.582000 -0.590876
O2    O     O_R   0.490940 0.341410 0.386200 -0.598542
C1    C     C_R   0.498176 0.298958 0.478622 0.810351
O3    O     O_R   0.327470 0.506530 0.597920 -0.601609
O4    O     O_R   0.311840 0.493480 0.402120 -0.530007
C2    C     C_R   0.263099 0.513325 0.501850 0.840269
Cu1   Cu    Cu3+1 0.509250 0.507730 0.615930 0.922083
Cu2   Cu    Cu3+1 0.490750 0.492270 0.384070 0.978131
O5    O     O_R   0.509060 0.658590 0.613800 -0.604156
O6    O     O_R   0.493430 0.645540 0.418000 -0.577165
O7    O     O_R   0.688160 0.506520 0.597880 -0.597510
O8    O     O_R   0.672530 0.493470 0.402080 -0.591331
C3    C     C_R   0.501857 0.701023 0.521379 0.813916
C4    C     C_R   0.738367 0.494250 0.499984 0.824826
C5    C     C_R   0.133743 0.574966 0.722851 -0.117142
H1    H     H_    0.218554 0.619607 0.727065 0.167379
C6    C     C_R   0.083202 0.561517 0.827610 0.153889
C7    C     C_R   0.972785 0.504186 0.820289 -0.224439
H2    H     H_    0.935434 0.486331 0.898786 0.165938
C8    C     C_R   0.906110 0.473895 0.712856 -0.172974
H3    H     H_    0.822619 0.428275 0.712870 0.172481
C9    C     C_R   0.948861 0.500027 0.609072 0.099415
C10   C     C_R   0.072129 0.535025 0.612486 0.010098
C11   C     C_R   0.128941 0.529906 0.505324 -0.238846
C12   C     C_R   0.054054 0.523686 0.399629 0.346841
H4    H     H_    0.870768 0.506730 0.319604 0.192705
C13   C     C_R   0.927629 0.506954 0.400137 -0.271694
C14   C     C_R   0.873768 0.494139 0.502680 -0.176404
C15   C     C_R   0.502844 0.814355 0.533777 -0.048210
C16   C     C_R   0.497251 0.185575 0.466218 -0.051783
C17   C     C_R   0.488489 0.015035 0.343607 -0.206452
C18   C     C_R   0.489074 0.123136 0.354751 -0.190133
C19   C     C_R   0.504722 0.139256 0.566592 -0.264861
C20   C     C_R   0.504180 0.031238 0.556179 0.175181
C21   C     C_R   0.496003 0.968659 0.443804 0.171005
C22   C     C_R   0.495426 0.860651 0.433387 -0.245855
C23   C     C_R   0.511077 0.876763 0.645253 -0.199128
C24   C     C_R   0.511717 0.984854 0.656382 -0.210366
H5    H     H_    0.489174 0.812877 0.347007 0.155287
H6    H     H_    0.516972 0.842168 0.723796 0.155847
H7    H     H_    0.482191 0.967852 0.256983 0.136873
H8    H     H_    0.518062 0.032023 0.743005 0.136185
H9    H     H_    0.483189 0.157720 0.276215 0.156453
H10   H     H_    0.510980 0.187026 0.652960 0.152066
N1    N     N_R   0.523180 0.519350 0.790130 -0.211645
N2    N     N_R   0.476820 0.480650 0.209890 -0.177393
C25   C     C_R   0.385545 0.402184 0.020834 -0.326079
C26   C     C_R   0.395155 0.411436 0.143061 0.152426
C27   C     C_R   0.550821 0.542576 0.158621 0.027080
C28   C     C_R   0.544815 0.536864 0.034980 -0.002967
C29   C     C_R   0.460168 0.464941 0.965914 0.040049
C30   C     C_R   0.451328 0.457564 0.843145 -0.004549
C31   C     C_R   0.605878 0.588991 0.854743 0.057050
C32   C     C_R   0.620017 0.600263 0.978544 0.028207
H11   H     H_    0.386290 0.402859 0.789618 0.140301
H12   H     H_    0.660695 0.635375 0.808144 0.155950
H13   H     H_    0.319676 0.346649 0.969640 0.140912
H14   H     H_    0.337105 0.362963 0.184645 0.132655
H15   H     H_    0.614347 0.596167 0.215132 0.117610
N3    N     N_R   0.103084 0.541073 0.292715 0.126294
O9    O     O_R   0.060463 0.487023 0.193056 -0.420174
O10   O     O_R   0.173426 0.622528 0.292772 -0.369091
C33   C     C_3   0.713274 0.677820 0.050917 -0.423634
C34   C     C_3   0.788778 0.743202 0.982483 -0.843579
H16   H     H_    0.844946 0.692245 0.920503 0.254784
H17   H     H_    0.726867 0.791836 0.934463 0.244528
H18   H     H_    0.853040 0.796166 0.044419 0.255326
H19   H     H_    0.662913 0.732891 0.114388 0.203441
H20   H     H_    0.779563 0.634166 0.101026 0.220761
C35   C     C_3   0.144263 0.602695 0.948301 -0.343215
C36   C     C_3   0.247634 0.684193 0.952545 -0.840601
H21   H     H_    0.327708 0.649557 0.906496 0.251106
H22   H     H_    0.212983 0.751302 0.912645 0.244730
H23   H     H_    0.280202 0.713418 0.045117 0.266053
H24   H     H_    0.072273 0.639658 0.004786 0.232463
H25   H     H_    0.181214 0.535886 0.987343 0.243462

loop_
_geom_bond_atom_site_label_1
_geom_bond_atom_site_label_2
_geom_bond_distance
_ccdc_geom_bond_type
C21   C22   1.388906 A    
Cu1   Cu2   2.663041 S    
C17   C18   1.389404 A    
C31   C32   1.419529 A    
Cu1   O7    1.964755 S    
N2    C27   1.368265 A    
H4    C13   1.083918 S    
C28   C32   1.424174 A    
Cu1   N1    2.000779 S    
C3    C15   1.455970 S    
C24   H8    1.083876 S    
C23   H6    1.083295 S    
O4    C2    1.294862 A    
O7    C4    1.282260 A    
C32   C33   1.525445 S    
C5    H1    1.078297 S    
Cu1   O5    1.966153 S    
C20   C21   1.413543 A    
O5    C3    1.287408 A    
O1    Cu1   1.964214 S    
C33   H20   1.111840 S    
C10   C11   1.420332 A    
C35   C36   1.530656 S    
C12   N3    1.438002 S    
C30   H11   1.082720 S    
C5    C10   1.418257 A    
N1    C31   1.361078 A    
C6    C35   1.517893 S    
C9    C14   1.422888 A    
O3    Cu1   1.966093 S    
C28   C29   1.411530 A    
N2    C26   1.361467 A    
C29   C30   1.411135 A    
C34   H18   1.110552 S    
C11   C12   1.414682 A    
O3    C2    1.291365 A    
C36   H22   1.111345 S    
C7    H2    1.083951 S    
C25   C29   1.404387 A    
N1    C30   1.364818 A    
N3    O9    1.301531 A    
O1    C1    1.289369 A    
C34   H17   1.110967 S    
C1    C16   1.456630 S    
C23   C24   1.389289 A    
C25   H13   1.083362 S    
C25   C26   1.402511 A    
C15   C22   1.399921 A    
Cu2   O8    1.966092 S    
C2    C11   1.473247 S    
C6    C7    1.396387 A    
C8    C9    1.415874 A    
C35   H25   1.110866 S    
C17   C21   1.398494 A    
O4    Cu2   1.964755 S    
C35   H24   1.113339 S    
C31   H12   1.078866 S    
C5    C6    1.407550 A    
C33   H19   1.111696 S    
C17   H7    1.083963 S    
C16   C19   1.399927 A    
C20   C24   1.398614 A    
C19   H10   1.084650 S    
C22   H5    1.084772 S    
O2    Cu2   1.966152 S    
O8    C4    1.299019 A    
O6    C3    1.289279 A    
C36   H23   1.110704 S    
C26   H14   1.081709 S    
C12   C13   1.386779 A    
C27   H15   1.080083 S    
C34   H16   1.109981 S    
O2    C1    1.287555 A    
C36   H21   1.108983 S    
N3    O10   1.301777 A    
C16   C18   1.404112 A    
C18   H9    1.083135 S    
C19   C20   1.389041 A    
C7    C8    1.393014 A    
Cu2   N2    2.000548 S    
C33   C34   1.530351 S    
C8    H3    1.079476 S    
Cu2   O6    1.964214 S    
C27   C28   1.424147 A    
C15   C23   1.404028 A    
C13   C14   1.398614 A    
C9    C10   1.404821 A    
C4    C14   1.465523 S    
