data_mof_unit_9405.cif
_audit_creation_date              2012-12-10T19:45:03-0500
_audit_creation_method            fapswitch 2.2
_symmetry_space_group_name_H-M    P1
_symmetry_Int_Tables_number       1
_space_group_crystal_system       triclinic
_cell_length_a                    15.080175
_cell_length_b                    10.832274
_cell_length_c                    13.679582
_cell_angle_alpha                 90.073465
_cell_angle_beta                  89.862608
_cell_angle_gamma                 89.739715
_cell_volume                      2234.56376577

loop_
_atom_site_label
_atom_site_type_symbol
_atom_type_description
_atom_site_fract_x
_atom_site_fract_y
_atom_site_fract_z
_atom_type_partial_charge
C1    C     C_R   0.497564 0.262143 0.499751 0.798238
C2    C     C_R   0.579248 0.879545 0.667546 0.121867
C3    C     C_R   0.458854 0.107400 0.239151 -0.138506
C4    C     C_R   0.541146 0.892600 0.760849 -0.138507
C5    C     C_R   0.420654 0.166236 0.158538 -0.111836
C6    C     C_R   0.579346 0.833764 0.841462 -0.111836
C7    C     C_R   0.344097 0.237934 0.170387 -0.101512
C8    C     C_R   0.655903 0.762066 0.829612 -0.101511
C9    C     C_R   0.468662 0.933292 0.419923 -0.226330
C10   C     C_R   0.531338 0.066708 0.580077 -0.226330
C11   C     C_R   0.504331 0.871726 0.500775 -0.086877
C12   C     C_R   0.502436 0.737857 0.500249 0.798238
C13   C     C_R   0.495669 0.128274 0.499225 -0.086877
C14   C     C_R   0.536976 0.938881 0.581659 -0.002569
C15   C     C_R   0.463024 0.061119 0.418341 -0.002569
C16   C     C_R   0.328447 0.500135 0.500092 0.813414
C17   C     C_R   0.671553 0.499865 0.499908 0.813415
C18   C     C_R   0.556561 0.423241 0.792935 0.049506
C19   C     C_R   0.443439 0.576759 0.207065 0.049506
C20   C     C_R   0.443560 0.576706 0.793465 0.064155
C21   C     C_R   0.556439 0.423294 0.206535 0.064156
C22   C     C_R   0.442328 0.578636 0.896523 -0.064410
C23   C     C_R   0.045789 0.481757 0.677583 -0.205042
C24   C     C_R   0.557671 0.421364 0.103477 -0.064410
C25   C     C_R   0.500076 0.499924 0.948155 -0.000629
C26   C     C_R   0.499924 0.500076 0.051845 -0.000628
C27   C     C_R   0.557940 0.421081 0.896131 -0.106962
C28   C     C_R   0.442060 0.578919 0.103869 -0.106962
C29   C     C_R   0.385032 0.657318 0.948838 -0.295142
C30   C     C_R   0.614968 0.342682 0.051162 -0.295142
C31   C     C_R   0.384738 0.657620 0.051564 0.586570
C32   C     C_R   0.615262 0.342380 0.948436 0.586570
C33   C     C_R   0.814907 0.508839 0.411226 -0.243086
C34   C     C_R   0.954211 0.518243 0.322416 -0.205042
C35   C     C_R   0.185093 0.491161 0.588774 -0.243086
C36   C     C_R   0.768372 0.499625 0.499820 -0.078384
C37   C     C_R   0.231628 0.500375 0.500180 -0.078384
C38   C     C_R   0.814529 0.490081 0.588425 -0.248942
C39   C     C_R   0.185471 0.509919 0.411575 -0.248942
C40   C     C_R   0.906883 0.490456 0.589147 0.105136
C41   C     C_R   0.093117 0.509544 0.410853 0.105136
C42   C     C_R   0.953522 0.499886 0.499956 0.064542
C43   C     C_R   0.046478 0.500114 0.500044 0.064542
C44   C     C_R   0.907302 0.509010 0.410671 0.106357
C45   C     C_R   0.305030 0.249835 0.262696 -0.109041
C46   C     C_R   0.092698 0.490990 0.589329 0.106357
C47   C     C_R   0.953334 0.481485 0.677492 -0.201875
C48   C     C_R   0.046666 0.518515 0.322508 -0.201876
C49   C     C_R   0.694970 0.750164 0.737304 -0.109042
C50   C     C_R   0.342939 0.191117 0.343544 -0.090052
C51   C     C_R   0.657061 0.808883 0.656456 -0.090051
C52   C     C_R   0.420752 0.120455 0.332454 0.121867
Cu1   Cu    Cu3+1 0.500010 0.499980 0.597420 0.945820
Cu2   Cu    Cu3+1 0.499990 0.500020 0.402580 0.945820
F1    F     F_    0.328467 0.734955 0.099603 -0.683428
F2    F     F_    0.671533 0.265045 0.900397 -0.683428
H1    H     H_    0.779363 0.516161 0.342646 0.156475
H2    H     H_    0.659581 0.281233 0.089814 0.166382
H3    H     H_    0.778707 0.481935 0.656917 0.160432
H4    H     H_    0.221293 0.518065 0.343083 0.160432
H5    H     H_    0.918163 0.474305 0.746417 0.154472
H6    H     H_    0.081837 0.525695 0.253583 0.154472
H7    H     H_    0.080597 0.474736 0.746581 0.148673
H8    H     H_    0.919402 0.525264 0.253419 0.148673
H9    H     H_    0.315013 0.284138 0.108025 0.129706
H10   H     H_    0.684987 0.715862 0.891975 0.129706
H11   H     H_    0.245407 0.304651 0.271583 0.125263
H12   H     H_    0.220637 0.483839 0.657354 0.156475
H13   H     H_    0.754593 0.695349 0.728417 0.125263
H14   H     H_    0.312351 0.201664 0.414814 0.106044
H15   H     H_    0.687649 0.798335 0.585186 0.106044
H16   H     H_    0.518785 0.053300 0.229211 0.128763
H17   H     H_    0.481214 0.946700 0.770789 0.128763
H18   H     H_    0.450800 0.157041 0.086992 0.140098
H19   H     H_    0.549200 0.842959 0.913008 0.140098
H20   H     H_    0.442253 0.881465 0.358713 0.168569
H21   H     H_    0.557747 0.118535 0.641287 0.168569
H22   H     H_    0.600459 0.363612 0.751416 0.172215
H23   H     H_    0.399541 0.636388 0.248584 0.172215
H24   H     H_    0.399735 0.636846 0.752628 0.125149
H25   H     H_    0.600265 0.363154 0.247372 0.125149
H26   H     H_    0.340419 0.718766 0.910186 0.166382
N1    N     N_R   0.499960 0.499900 0.743810 -0.195278
N2    N     N_R   0.500040 0.500100 0.256190 -0.195278
O1    O     O_R   0.500000 0.319630 0.582270 -0.590031
O2    O     O_R   0.500000 0.680370 0.417730 -0.590031
O3    O     O_R   0.499990 0.319660 0.417730 -0.576473
O4    O     O_R   0.500010 0.680340 0.582270 -0.576473
O5    O     O_R   0.370260 0.499960 0.582280 -0.591463
O6    O     O_R   0.629740 0.500040 0.417720 -0.591463
O7    O     O_R   0.370250 0.499990 0.417740 -0.589978
O8    O     O_R   0.629750 0.500010 0.582260 -0.589978

loop_
_geom_bond_atom_site_label_1
_geom_bond_atom_site_label_2
_ccdc_geom_bond_type
C1    O3    A    
C40   C47   A    
C30   C32   A    
C8    H10   S    
C22   C29   A    
Cu2   N2    S    
C6    H19   S    
C39   C41   A    
Cu1   Cu2   S    
C42   C44   A    
C7    C45   A    
C35   C37   A    
C24   C26   A    
Cu2   O6    S    
Cu2   O3    S    
C11   C14   A    
C33   C36   A    
C5    H18   S    
C49   C51   A    
C22   C25   A    
C45   H11   S    
C50   C52   A    
C9    H20   S    
C16   C37   S    
C40   C42   A    
C16   O5    A    
C23   C46   A    
C49   H13   S    
C41   C43   A    
C17   O8    A    
C51   H15   S    
C10   H21   S    
C17   O6    A    
C1    O1    A    
C23   C47   A    
C20   H24   S    
C34   C44   A    
C4    C6    A    
C10   C14   A    
Cu2   O2    S    
C12   O4    A    
C6    C8    A    
C25   C26   A    
C2    C4    A    
C7    H9    S    
C48   H6    S    
C21   N2    A    
C18   H22   S    
Cu1   O8    S    
C34   H8    S    
C18   N1    A    
C15   C52   S    
C19   H23   S    
C19   C28   A    
C9    C11   A    
C4    H17   S    
C17   C36   S    
C21   H25   S    
C13   C15   A    
Cu1   O5    S    
C21   C24   A    
C1    C13   S    
C42   C43   A    
C19   N2    A    
C5    C7    A    
C33   H1    S    
C27   C32   A    
C33   C44   A    
C28   C31   A    
C18   C27   A    
C20   C22   A    
C3    C5    A    
C10   C13   A    
C47   H5    S    
C3    C52   A    
C25   C27   A    
C26   C28   A    
C12   O2    A    
Cu1   N1    S    
C36   C38   A    
C3    H16   S    
C9    C15   A    
Cu2   O7    S    
C29   C31   A    
C38   C40   A    
C35   H12   S    
C39   H4    S    
C30   H2    S    
C23   H7    S    
C41   C48   A    
Cu1   O4    S    
C50   H14   S    
C2    C14   S    
C43   C46   A    
C24   C30   A    
C2    C51   A    
C38   H3    S    
C29   H26   S    
C34   C48   A    
C16   O7    A    
C37   C39   A    
C20   N1    A    
Cu1   O1    S    
C45   C50   A    
C31   F1    S    
C35   C46   A    
C8    C49   A    
C32   F2    S    
C11   C12   S    
