data_mof_unit_50401.cif
_audit_creation_date              2012-12-10T17:44:36-0500
_audit_creation_method            fapswitch 2.2
_symmetry_space_group_name_H-M    P1
_symmetry_Int_Tables_number       1
_space_group_crystal_system       triclinic
_cell_length_a                    9.967136
_cell_length_b                    10.606717
_cell_length_c                    15.427697
_cell_angle_alpha                 92.00773
_cell_angle_beta                  66.413959
_cell_angle_gamma                 90.825833
_cell_volume                      1493.8237602

loop_
_atom_site_label
_atom_site_type_symbol
_atom_type_description
_atom_site_fract_x
_atom_site_fract_y
_atom_site_fract_z
_atom_type_partial_charge
C1    C     C_R   0.502157 0.739091 0.497723 0.846369
C2    C     C_R   0.742098 0.496489 0.024329 0.183014
C3    C     C_R   0.599754 0.452009 0.080277 0.110564
C4    C     C_R   0.407408 0.499194 0.676485 0.844523
C5    C     C_R   0.840415 0.528641 0.066175 -0.221188
C6    C     C_R   0.795341 0.525211 0.164096 -0.204598
C7    C     C_R   0.557845 0.448832 0.178005 -0.284297
C8    C     C_R   0.491873 0.859506 0.334693 -0.176227
C9    C     C_R   0.483038 0.920712 0.258138 0.260313
C10   C     C_R   0.479272 0.052434 0.259568 -0.152270
C11   C     C_R   0.485090 0.122308 0.336280 -0.248409
C12   C     C_R   0.423625 0.451902 0.908455 0.051670
C13   C     C_R   0.493328 0.061273 0.414063 0.093798
C14   C     C_R   0.496354 0.929280 0.413362 0.049323
C15   C     C_R   0.507817 0.871142 0.490991 -0.069549
C16   C     C_R   0.500679 0.260692 0.497637 0.869765
C17   C     C_R   0.521746 0.939359 0.565466 -0.222475
C18   C     C_R   0.519548 0.068111 0.565932 -0.204194
C19   C     C_R   0.502892 0.127989 0.492087 -0.085439
C20   C     C_R   0.804155 0.696093 0.593675 -0.152146
C21   C     C_R   0.857372 0.808283 0.616506 -0.247367
C22   C     C_R   0.998062 0.811945 0.613274 -0.176647
C23   C     C_R   0.287900 0.391049 0.959206 0.145811
C24   C     C_R   0.074166 0.698140 0.600930 0.249948
C25   C     C_R   0.042750 0.596610 0.548322 0.123440
C26   C     C_R   0.899811 0.596416 0.546604 0.136398
C27   C     C_R   0.955709 0.408116 0.454460 -0.114576
C28   C     C_R   0.592667 0.497596 0.323487 0.834932
C29   C     C_R   0.098572 0.408374 0.454178 -0.117371
C30   C     C_R   0.349993 0.481585 0.778376 -0.056251
C31   C     C_R   0.652081 0.488934 0.220249 -0.059333
C32   C     C_R   0.184778 0.377918 0.917722 -0.211147
C33   C     C_R   0.217465 0.420022 0.826829 -0.222387
C34   C     C_R   0.534124 0.458212 0.944446 0.065194
C35   C     C_R   0.445281 0.505843 0.822623 -0.236158
C36   C     C_3   0.120531 0.273470 0.104782 -0.931885
C37   C     C_3   0.479385 0.846551 0.174382 -0.915036
C38   C     C_3   0.108291 0.673061 0.685174 -0.830953
C39   C     C_R   0.499089 0.422836 0.038342 0.017128
C40   C     C_R   0.364811 0.360295 0.087395 -0.240660
C41   C     C_R   0.260344 0.342909 0.048763 0.176319
C42   C     C_R   0.679776 0.495892 0.888766 -0.212931
C43   C     C_R   0.782506 0.512413 0.928032 -0.253553
H1    H     H_    0.949842 0.561530 0.023660 0.153314
H2    H     H_    0.174094 0.333515 0.416372 0.145027
H3    H     H_    0.870009 0.555440 0.195949 0.164538
H4    H     H_    0.892132 0.543022 0.883628 0.146530
H5    H     H_    0.718780 0.510230 0.813750 0.151568
H6    H     H_    0.117324 0.242305 0.173582 0.240392
H7    H     H_    0.025022 0.336054 0.120038 0.249911
H8    H     H_    0.110547 0.188246 0.063891 0.243757
H9    H     H_    0.497650 0.757696 0.331400 0.147835
H10   H     H_    0.483487 0.743309 0.183091 0.249857
H11   H     H_    0.377042 0.868048 0.165456 0.243384
H12   H     H_    0.530917 0.892605 0.624265 0.129389
H13   H     H_    0.574816 0.872570 0.109489 0.243846
H14   H     H_    0.447747 0.423514 0.223685 0.157998
H15   H     H_    0.083986 0.573420 0.705395 0.236241
H16   H     H_    0.220543 0.704773 0.672974 0.247822
H17   H     H_    0.034742 0.727157 0.749425 0.199161
H18   H     H_    0.081100 0.330686 0.953131 0.162687
H19   H     H_    0.142355 0.399753 0.793269 0.153702
H20   H     H_    0.539700 0.563986 0.786509 0.141566
H21   H     H_    0.341169 0.319031 0.154861 0.143023
H22   H     H_    0.473309 0.101261 0.200679 0.145222
H23   H     H_    0.485058 0.223985 0.333259 0.148842
H24   H     H_    0.528344 0.121445 0.624741 0.151574
H25   H     H_    0.924737 0.332955 0.416908 0.148450
H26   H     H_    0.688418 0.688974 0.616459 0.194574
H27   H     H_    0.785220 0.888364 0.645535 0.160219
H28   H     H_    0.029470 0.894183 0.644584 0.156062
N1    N     N_R   0.856800 0.501200 0.500850 -0.109727
N2    N     N_R   0.142390 0.501280 0.500880 -0.109547
O1    O     O_R   0.385310 0.683220 0.500000 -0.608528
O2    O     O_R   0.614640 0.683250 0.500010 -0.624895
O3    O     O_R   0.319840 0.499980 0.632240 -0.611880
O4    O     O_R   0.549160 0.500000 0.632250 -0.625920
O5    O     O_R   0.385360 0.316750 0.499990 -0.616188
O6    O     O_R   0.614690 0.316780 0.500000 -0.608291
O7    O     O_R   0.450840 0.500000 0.367750 -0.619212
O8    O     O_R   0.680160 0.500020 0.367760 -0.602301
Zn1   Zn    Zn3+2 0.346880 0.499980 0.499990 0.931960
Zn2   Zn    Zn3+2 0.653120 0.500020 0.500010 0.936576

loop_
_geom_bond_atom_site_label_1
_geom_bond_atom_site_label_2
_ccdc_geom_bond_type
C27   C29   A    
C26   N1    A    
C22   H28   S    
C34   C42   A    
C12   C23   A    
C30   C35   A    
C1    O1    A    
C32   H18   S    
C3    C7    A    
C5    C6    A    
C29   N2    A    
O4    Zn2   S    
C18   C19   A    
C27   H25   S    
C38   H15   S    
C37   H13   S    
C33   H19   S    
C24   C38   S    
C1    C15   S    
C9    C10   A    
C17   H12   S    
C16   O5    A    
C11   H23   S    
C37   H10   S    
C6    C31   A    
C3    C39   A    
C13   C14   A    
C36   C41   S    
O1    Zn1   S    
O8    Zn2   S    
C7    C31   A    
C13   C19   A    
C34   C39   A    
C1    O2    A    
C24   C25   A    
O7    Zn1   S    
O3    Zn1   S    
C39   C40   A    
C8    C9    A    
C25   C26   A    
C29   H2    S    
O5    Zn1   S    
C2    C43   A    
C9    C37   S    
C17   C18   A    
C42   H5    S    
C12   C35   A    
C36   H8    S    
C38   H17   S    
C37   H11   S    
C40   C41   A    
C5    H1    S    
C22   C24   A    
C20   H26   S    
C2    C5    A    
C42   C43   A    
C12   C34   A    
N2    Zn1   S    
C36   H7    S    
C10   H22   S    
C15   C17   A    
C8    H9    S    
C8    C14   A    
C6    H3    S    
C30   C33   A    
C28   O8    A    
C28   C31   S    
C40   H21   S    
C23   C41   A    
C21   H27   S    
C16   O6    A    
C23   C32   A    
C2    C3    A    
C18   H24   S    
C4    O4    A    
C32   C33   A    
O6    Zn2   S    
C11   C13   A    
O2    Zn2   S    
C20   C26   A    
C16   C19   S    
C25   N2    A    
C28   O7    A    
C4    O3    A    
N1    Zn2   S    
C10   C11   A    
C36   H6    S    
C38   H16   S    
C20   C21   A    
C14   C15   A    
C35   H20   S    
C21   C22   A    
C43   H4    S    
C7    H14   S    
C4    C30   S    
C27   N1    A    
