data_mof_unit_42629.cif
_audit_creation_date              2012-12-10T20:02:25-0500
_audit_creation_method            fapswitch 2.2
_symmetry_space_group_name_H-M    P1
_symmetry_Int_Tables_number       1
_space_group_crystal_system       triclinic
_cell_length_a                    10.790411
_cell_length_b                    15.006008
_cell_length_c                    14.146643
_cell_angle_alpha                 90.022773
_cell_angle_beta                  91.496299
_cell_angle_gamma                 90.055161
_cell_volume                      2289.85615137

loop_
_atom_site_label
_atom_site_type_symbol
_atom_type_description
_atom_site_fract_x
_atom_site_fract_y
_atom_site_fract_z
_atom_type_partial_charge
C1    C     C_R   0.500551 0.327716 0.500008 0.850678
C2    C     C_R   0.457189 0.814245 0.420575 -0.201813
C3    C     C_R   0.503008 0.231937 0.500102 -0.020368
C4    C     C_R   0.502300 0.767913 0.500010 -0.019137
C5    C     C_R   0.542736 0.186423 0.420048 -0.201908
C6    C     C_R   0.550352 0.813351 0.579173 -0.198989
C7    C     C_R   0.545770 0.094463 0.420374 -0.182831
C8    C     C_R   0.553669 0.905308 0.578776 -0.182686
C9    C     C_R   0.507702 0.048008 0.500296 0.118528
C10   C     C_R   0.507425 0.951778 0.499733 0.117756
C11   C     C_R   0.544291 0.426587 0.105933 -0.319898
C12   C     C_R   0.500235 0.672226 0.500009 0.870581
C13   C     C_R   0.518487 0.579129 0.895316 -0.300714
C14   C     C_R   0.543262 0.427758 0.205203 0.020311
C15   C     C_R   0.519500 0.577472 0.796078 0.024233
C16   C     C_R   0.259683 0.497342 0.498599 0.880485
C17   C     C_R   0.740083 0.495960 0.501293 0.873555
C18   C     C_R   0.459608 0.573142 0.203806 0.046803
C19   C     C_R   0.480274 0.422621 0.795264 0.037281
C20   C     C_R   0.458835 0.574696 0.104496 -0.278319
C21   C     C_R   0.480472 0.421091 0.894520 -0.300942
C22   C     C_R   0.500213 0.500347 0.053412 0.125929
C23   C     C_R   0.872355 0.488200 0.502814 -0.093939
C24   C     C_R   0.498918 0.500202 0.946715 0.123644
C25   C     C_R   0.162687 0.570581 0.171368 -0.197691
C26   C     C_R   0.771052 0.333321 0.766836 -0.179384
C27   C     C_R   0.130446 0.574069 0.266305 -0.148479
C28   C     C_R   0.813438 0.364527 0.680492 -0.086041
C29   C     C_R   0.107453 0.495068 0.315593 0.137555
C30   C     C_R   0.888859 0.440809 0.677247 0.115103
C31   C     C_R   0.116311 0.412796 0.269216 -0.177193
C32   C     C_R   0.923497 0.484005 0.762189 -0.205267
C33   C     C_R   0.147669 0.408909 0.173705 0.156733
C34   C     C_R   0.127178 0.490399 0.496277 -0.089744
C35   C     C_R   0.883274 0.451735 0.849383 0.175170
C36   C     C_R   0.171252 0.488509 0.125113 -0.117611
C37   C     C_R   0.806122 0.376321 0.850960 -0.141564
C38   C     C_R   0.930141 0.499512 0.416402 -0.252008
C39   C     C_R   0.069664 0.474406 0.582154 -0.249742
C40   C     C_3   0.150567 0.320533 0.123011 -0.460587
C41   C     C_3   0.282868 0.295917 0.096933 -0.313924
C42   C     C_3   0.286962 0.206309 0.046231 -0.917807
C43   C     C_3   0.926447 0.495217 0.940659 -0.467702
C44   C     C_3   0.818784 0.540885 0.989505 -0.321079
C45   C     C_R   0.942218 0.469955 0.586381 0.009463
C46   C     C_3   0.859396 0.581946 0.083914 -0.866103
C47   C     C_R   0.056709 0.497545 0.411451 -0.002554
C48   C     C_R   0.467956 0.093564 0.580310 -0.182842
C49   C     C_R   0.459027 0.906227 0.420683 -0.180472
C50   C     C_R   0.466329 0.185522 0.580445 -0.206995
H1    H     H_    0.194641 0.487125 0.051152 0.130350
H2    H     H_    0.464736 0.361350 0.756615 0.118227
H3    H     H_    0.422872 0.633047 0.068287 0.124729
H4    H     H_    0.465221 0.358186 0.929540 0.132091
H5    H     H_    0.179687 0.631669 0.133169 0.131446
H6    H     H_    0.712261 0.274890 0.768680 0.130790
H7    H     H_    0.121018 0.638047 0.300808 0.125699
H8    H     H_    0.788239 0.328919 0.616178 0.114010
H9    H     H_    0.095212 0.352077 0.307054 0.121471
H10   H     H_    0.983478 0.541907 0.760334 0.126333
H11   H     H_    0.876837 0.508742 0.351001 0.174881
H12   H     H_    0.774445 0.350123 0.917447 0.121233
H13   H     H_    0.124320 0.462126 0.646256 0.168497
H14   H     H_    0.436603 0.058040 0.641925 0.128852
H15   H     H_    0.421286 0.941769 0.359832 0.128185
H16   H     H_    0.434701 0.220125 0.642555 0.141948
H17   H     H_    0.418948 0.779480 0.359301 0.138874
H18   H     H_    0.572602 0.221780 0.357868 0.141659
H19   H     H_    0.586767 0.777873 0.640523 0.141136
H20   H     H_    0.252358 0.152564 0.092657 0.264607
H21   H     H_    0.229393 0.208529 0.980015 0.263824
H22   H     H_    0.384062 0.190919 0.027866 0.242721
H23   H     H_    0.578254 0.059634 0.358674 0.128386
H24   H     H_    0.319722 0.347709 0.049463 0.225966
H25   H     H_    0.342717 0.292614 0.162017 0.229437
H26   H     H_    0.112570 0.266962 0.168252 0.200646
H27   H     H_    0.090629 0.324290 0.058069 0.192859
H28   H     H_    0.894770 0.529424 0.132874 0.271613
H29   H     H_    0.932653 0.632716 0.073300 0.258203
H30   H     H_    0.778779 0.614708 0.116570 0.251006
H31   H     H_    0.779628 0.593943 0.942831 0.226236
H32   H     H_    0.745884 0.490958 0.003035 0.235584
H33   H     H_    0.967346 0.443362 0.987880 0.198323
H34   H     H_    0.592804 0.940119 0.639685 0.127465
H35   H     H_    0.999964 0.545358 0.927402 0.198373
H36   H     H_    0.580557 0.368468 0.070830 0.131512
H37   H     H_    0.536268 0.641647 0.931321 0.131461
H38   H     H_    0.577547 0.370686 0.244438 0.117772
H39   H     H_    0.536327 0.638559 0.758100 0.122358
H40   H     H_    0.425892 0.630298 0.241890 0.116965
N1    N     N_R   0.500000 0.499980 0.252470 -0.087735
N2    N     N_R   0.500000 0.500020 0.747530 -0.086861
O1    O     O_R   0.500010 0.369070 0.579480 -0.639941
O2    O     O_R   0.499990 0.630930 0.420520 -0.632342
O3    O     O_R   0.500010 0.369060 0.420520 -0.634025
O4    O     O_R   0.499990 0.630940 0.579480 -0.633661
O5    O     O_R   0.316760 0.500010 0.579480 -0.625093
O6    O     O_R   0.683240 0.499990 0.420520 -0.627468
O7    O     O_R   0.316760 0.500000 0.420520 -0.609222
O8    O     O_R   0.683240 0.500000 0.579480 -0.608747
Zn1   Zn    Zn3+2 0.500000 0.500010 0.606140 0.945842
Zn2   Zn    Zn3+2 0.500000 0.499990 0.393860 0.946047

loop_
_geom_bond_atom_site_label_1
_geom_bond_atom_site_label_2
_ccdc_geom_bond_type
C6    H19   S    
C46   H30   S    
C23   C45   A    
C27   C29   A    
C43   H33   S    
C41   C42   S    
C30   C45   S    
C37   H12   S    
C7    H23   S    
C17   C23   S    
C49   H15   S    
C29   C47   S    
C18   N1    A    
C19   C21   A    
C44   H32   S    
C21   H4    S    
C11   C14   A    
C16   O5    A    
C48   H14   S    
C41   H25   S    
C11   H36   S    
C42   H20   S    
C33   C36   A    
C31   H9    S    
O8    Zn1   S    
C19   N2    A    
C16   C34   S    
C15   N2    A    
C19   H2    S    
C31   C33   A    
C4    C12   S    
C35   C43   S    
C9    C10   S    
O3    Zn2   S    
C39   C45   A    
C38   H11   S    
C48   C50   A    
C41   H24   S    
O4    Zn1   S    
C12   O2    A    
C5    H18   S    
C3    C50   A    
C44   C46   S    
C33   C40   S    
C34   C39   A    
C43   H35   S    
C32   C35   A    
C4    C6    A    
C44   H31   S    
C27   H7    S    
O1    Zn1   S    
C5    C7    A    
C6    C8    A    
O6    Zn2   S    
C40   H26   S    
C13   C24   A    
C1    C3    S    
C18   H40   S    
C2    C4    A    
C43   C44   S    
C2    C49   A    
C15   H39   S    
C1    O3    A    
C13   H37   S    
C42   H22   S    
C26   C37   A    
C50   H16   S    
C38   C47   A    
C36   H1    S    
N2    Zn1   S    
C8    C10   A    
C40   C41   S    
C20   C22   A    
C2    H17   S    
C13   C15   A    
C22   C24   S    
C32   H10   S    
N1    Zn2   S    
C46   H28   S    
C17   O6    A    
C7    C9    A    
C35   C37   A    
C8    H34   S    
C25   H5    S    
C20   H3    S    
C3    C5    A    
C26   H6    S    
C16   O7    A    
C28   H8    S    
C25   C27   A    
C23   C38   A    
C39   H13   S    
C11   C22   A    
C26   C28   A    
C28   C30   A    
C14   H38   S    
C29   C31   A    
C30   C32   A    
C46   H29   S    
C42   H21   S    
C18   C20   A    
C17   O8    A    
C14   N1    A    
C25   C36   A    
O7    Zn2   S    
O2    Zn2   S    
C9    C48   A    
C1    O1    A    
C21   C24   A    
C40   H27   S    
C12   O4    A    
C34   C47   A    
C10   C49   A    
O5    Zn1   S    
