data_mof_unit_59636.cif
_audit_creation_date              2012-10-26T18:50:42-0400
_audit_creation_method            fapswitch 2.2
_symmetry_space_group_name_H-M    P1
_symmetry_Int_Tables_number       1
_space_group_crystal_system       triclinic
_cell_length_a                    12.327134
_cell_length_b                    13.101124
_cell_length_c                    17.228696
_cell_angle_alpha                 104.389793
_cell_angle_beta                  75.360381
_cell_angle_gamma                 116.418819
_cell_volume                      2381.03230155

loop_
_atom_site_label
_atom_site_type_symbol
_atom_type_description
_atom_site_fract_x
_atom_site_fract_y
_atom_site_fract_z
_atom_type_partial_charge
C1    C     C_R   0.144355 0.713795 0.506541 0.530302
C2    C     C_R   0.004359 0.483196 0.262326 -0.008904
C3    C     C_R   0.733325 0.973359 0.397623 -0.141128
C4    C     C_R   0.983213 0.495210 0.651037 0.526956
C5    C     C_R   0.774957 0.163590 0.475494 -0.009847
C6    C     C_R   0.179652 0.917795 0.557951 -0.138265
C7    C     C_R   0.258224 0.032312 0.577307 -0.150345
C8    C     C_R   0.384295 0.067696 0.552858 -0.138226
C9    C     C_R   0.434594 0.989715 0.503834 0.019547
C10   C     C_R   0.352604 0.875788 0.477051 0.016280
C11   C     C_R   0.563245 0.021442 0.479197 0.016291
C12   C     C_R   0.949616 0.565696 0.797360 -0.156294
C13   C     C_R   0.606940 0.942549 0.423602 0.042805
C14   C     C_R   0.524176 0.835457 0.391972 -0.150621
C15   C     C_R   0.399070 0.803501 0.416872 -0.129428
C16   C     C_R   0.856064 0.286078 0.489389 0.533360
C17   C     C_R   0.650204 0.130028 0.506934 -0.148628
C18   C     C_R   0.817041 0.083935 0.422798 -0.145710
C19   C     C_R   0.225920 0.837524 0.510809 -0.005547
C20   C     C_R   0.657739 0.692949 0.616568 0.020299
C21   C     C_R   0.250274 0.357698 0.386490 0.019968
C22   C     C_R   0.349983 0.328362 0.357929 0.233051
C23   C     C_R   0.903948 0.498433 0.163540 0.024830
C24   C     C_R   0.447735 0.374628 0.402173 0.254184
C25   C     C_R   0.450920 0.462030 0.472087 -0.056622
C26   C     C_R   0.347438 0.491786 0.495638 0.071971
C27   C     C_R   0.551816 0.524505 0.518002 -0.060919
C28   C     C_R   0.010894 0.495750 0.347826 0.542081
C29   C     C_R   0.549100 0.617751 0.581975 0.063785
C30   C     C_R   0.439127 0.633164 0.610656 0.227980
C31   C     C_R   0.345224 0.576167 0.563536 -0.096035
C32   C     C_R   0.656330 0.499391 0.504191 0.041921
C33   C     C_R   0.754291 0.658912 0.600082 0.037720
C34   C     C_R   0.929341 0.524596 0.242188 -0.121015
C35   C     C_R   0.972262 0.482485 0.734738 0.017161
C36   C     C_R   0.997349 0.395668 0.752712 0.011828
C37   C     C_R   0.013122 0.403687 0.831780 -0.091429
C38   C     C_R   0.992611 0.488200 0.893378 0.009713
C39   C     C_R   0.960311 0.568811 0.876370 -0.135112
C40   C     C_3   0.006974 0.293476 0.690627 -0.269862
C41   C     C_3   0.911692 0.178472 0.716234 -0.464627
C42   C     C_3   0.314862 0.708126 0.719685 -0.005025
C43   C     C_3   0.309535 0.809574 0.694240 -0.265547
C44   C     C_3   0.185816 0.816773 0.727404 -0.479412
C45   C     C_R   0.059010 0.418785 0.202214 -0.153083
C46   C     C_3   0.681770 0.814324 0.663352 -0.248843
C47   C     C_3   0.675634 0.891742 0.612484 -0.405257
C48   C     C_3   0.512346 0.229362 0.383555 0.036935
C49   C     C_3   0.570627 0.165010 0.311253 -0.233518
C50   C     C_3   0.709259 0.231789 0.290521 -0.389322
C51   C     C_3   0.409242 0.313287 0.221357 0.015361
C52   C     C_3   0.411597 0.228886 0.142398 -0.257819
C53   C     C_3   0.474006 0.292052 0.069189 -0.494022
C54   C     C_3   0.840389 0.293588 0.986619 -0.265151
C55   C     C_3   0.755920 0.218925 0.051623 -0.450974
C56   C     C_R   0.035540 0.392997 0.123185 -0.139910
C57   C     C_3   0.816443 0.539759 0.146586 -0.281277
C58   C     C_3   0.875330 0.670080 0.147774 -0.445208
C59   C     C_R   0.957188 0.430986 0.103901 0.062236
C60   C     C_2   0.006273 0.493772 0.976132 -0.137264
C61   C     C_2   0.939259 0.406687 0.019370 0.004470
Cu1   Cu    Cu3+1 0.900140 0.524980 0.518800 0.915294
Cu2   Cu    Cu3+1 0.099860 0.475020 0.481200 0.885185
H1    H     H_    0.077645 0.342615 0.076957 0.108674
H2    H     H_    0.836407 0.711162 0.627016 0.117631
H3    H     H_    0.886274 0.574108 0.288554 0.140581
H4    H     H_    0.667846 0.430047 0.460621 0.196558
H5    H     H_    0.173613 0.318197 0.353676 0.143926
H6    H     H_    0.271561 0.601252 0.579713 0.193459
H7    H     H_    0.116281 0.385312 0.216783 0.119333
H8    H     H_    0.944681 0.634699 0.924131 0.106686
H9    H     H_    0.928470 0.631153 0.784593 0.113608
H10   H     H_    0.068086 0.576074 0.004969 0.114233
H11   H     H_    0.041527 0.343805 0.845517 0.107203
H12   H     H_    0.913645 0.108697 0.398096 0.127790
H13   H     H_    0.928665 0.164918 0.772369 0.137636
H14   H     H_    0.817855 0.175861 0.726672 0.154324
H15   H     H_    0.917194 0.106684 0.667300 0.137209
H16   H     H_    0.991103 0.293426 0.630273 0.188920
H17   H     H_    0.100577 0.296565 0.683087 0.140046
H18   H     H_    0.309183 0.726090 0.786753 0.153669
H19   H     H_    0.235023 0.624927 0.708510 0.139097
H20   H     H_    0.383167 0.891110 0.717674 0.165875
H21   H     H_    0.326848 0.801185 0.627129 0.173073
H22   H     H_    0.113802 0.744332 0.695443 0.158767
H23   H     H_    0.556226 0.776458 0.346865 0.105221
H24   H     H_    0.190639 0.899108 0.717163 0.151228
H25   H     H_    0.160967 0.814013 0.793709 0.138653
H26   H     H_    0.746643 0.900319 0.557057 0.149466
H27   H     H_    0.584344 0.857003 0.593973 0.189515
H28   H     H_    0.692963 0.978796 0.648536 0.127504
H29   H     H_    0.620086 0.813297 0.722582 0.200459
H30   H     H_    0.775346 0.856854 0.679888 0.092541
H31   H     H_    0.411469 0.175175 0.393655 0.143221
H32   H     H_    0.546979 0.235675 0.438766 0.117854
H33   H     H_    0.551416 0.079905 0.325716 0.125485
H34   H     H_    0.767034 0.913406 0.355236 0.105214
H35   H     H_    0.528227 0.149122 0.257335 0.172834
H36   H     H_    0.729774 0.311728 0.267906 0.191400
H37   H     H_    0.748485 0.178038 0.242122 0.115833
H38   H     H_    0.753402 0.254679 0.344680 0.166197
H39   H     H_    0.505721 0.373410 0.228639 0.158855
H40   H     H_    0.358497 0.363508 0.217003 0.112310
H41   H     H_    0.462035 0.178202 0.145634 0.160201
H42   H     H_    0.316015 0.168016 0.134259 0.166945
H43   H     H_    0.422857 0.340492 0.063096 0.145382
H44   H     H_    0.475813 0.228550 0.013085 0.145974
H45   H     H_    0.623459 0.192293 0.551166 0.116073
H46   H     H_    0.569931 0.353087 0.075826 0.139821
H47   H     H_    0.808982 0.191258 0.078983 0.152022
H48   H     H_    0.710009 0.267223 0.099999 0.154465
H49   H     H_    0.684027 0.140623 0.023547 0.130889
H50   H     H_    0.781934 0.312768 0.957673 0.153654
H51   H     H_    0.884371 0.242138 0.939944 0.134399
H52   H     H_    0.899440 0.716429 0.208524 0.148445
H53   H     H_    0.959507 0.694514 0.101267 0.147677
H54   H     H_    0.809669 0.697205 0.133989 0.131031
H55   H     H_    0.785858 0.497125 0.087054 0.150496
H56   H     H_    0.082951 0.891203 0.582980 0.120745
H57   H     H_    0.732278 0.516899 0.193327 0.134873
H58   H     H_    0.439084 0.157382 0.571881 0.095406
H59   H     H_    0.221536 0.093361 0.614255 0.112287
H60   H     H_    0.339541 0.722548 0.386259 0.153127
N1    N     N_R   0.749710 0.562810 0.547300 -0.259659
N2    N     N_R   0.249640 0.437820 0.453210 -0.275001
O1    O     O_R   0.025490 0.682370 0.523640 -0.504275
O2    O     O_3   0.544317 0.342311 0.369368 -0.590162
O3    O     O_3   0.350445 0.250709 0.287030 -0.581322
O4    O     O_R   0.194150 0.640180 0.491890 -0.524790
O5    O     O_R   0.905900 0.523560 0.631310 -0.495870
O6    O     O_R   0.074570 0.481370 0.599560 -0.534205
O7    O     O_R   0.805850 0.359820 0.508110 -0.514033
O8    O     O_R   0.974510 0.317630 0.476360 -0.510058
O9    O     O_R   0.925430 0.518630 0.400440 -0.503644
O10   O     O_R   0.094100 0.476440 0.368690 -0.513790
O11   O     O_3   0.429626 0.702827 0.686058 -0.600509

loop_
_geom_bond_atom_site_label_1
_geom_bond_atom_site_label_2
_ccdc_geom_bond_type
C37   H11   S    
C18   H12   S    
C48   H32   S    
C55   H49   S    
C27   C29   A    
C28   O10   A    
C43   H20   S    
C32   N1    A    
C35   C36   A    
C42   H19   S    
C34   H3    S    
Cu1   N1    S    
C33   H2    S    
C7    C8    A    
C51   H39   S    
C23   C59   A    
C6    C19   A    
C50   H36   S    
C37   C38   A    
C15   H60   S    
C28   O9    A    
C51   O3    S    
Cu2   O8    S    
C21   C22   A    
C36   C37   A    
C1    O4    A    
C10   C15   A    
C41   H14   S    
C30   C31   A    
C8    H58   S    
C46   H29   S    
C51   H40   S    
C54   H50   S    
C60   H10   S    
C3    C18   A    
C42   O11   S    
Cu1   O5    S    
C5    C16   S    
C49   H35   S    
C46   C47   S    
C53   H43   S    
C11   C17   A    
C45   C56   A    
C8    C9    A    
C24   O2    S    
C40   H17   S    
Cu2   O6    S    
C44   H24   S    
C9    C10   A    
C3    C13   A    
C2    C34   A    
C12   H9    S    
C4    C35   S    
C26   C31   A    
C13   C14   A    
C58   H53   S    
C43   H21   S    
C47   H26   S    
C42   H18   S    
C16   O8    A    
C4    O6    A    
C20   C29   A    
C2    C45   A    
C1    C19   S    
C59   C61   S    
C51   C52   S    
Cu1   O7    S    
C36   C40   S    
C1    O1    A    
C14   H23   S    
C17   H45   S    
C41   H15   S    
Cu1   O1    S    
C4    O5    A    
C5    C18   A    
C25   C26   A    
C58   H54   S    
C60   C61   D    
C26   N2    A    
Cu2   O10   S    
C43   C44   S    
C29   C30   A    
C33   N1    A    
C53   H44   S    
C22   O3    S    
C10   C19   A    
C23   C34   A    
Cu1   Cu2   S    
C56   H1    S    
C40   H16   S    
C24   C25   A    
C12   C35   A    
C9    C11   A    
Cu2   N2    S    
C48   H31   S    
C32   H4    S    
C38   C60   S    
C20   C33   A    
C40   C41   S    
C52   H42   S    
C30   O11   S    
C57   H57   S    
C55   H47   S    
C58   H52   S    
C47   H27   S    
C22   C24   A    
C42   C43   S    
C7    H59   S    
C21   N2    A    
C44   H22   S    
C6    H56   S    
C52   C53   S    
C53   H46   S    
C23   C57   S    
C54   C55   S    
C52   H41   S    
C3    H34   S    
C55   H48   S    
C45   H7    S    
C47   H28   S    
C6    C7    A    
C54   C61   S    
C25   C27   A    
C50   H37   S    
C56   C59   A    
Cu1   O9    S    
C12   C39   A    
C21   H5    S    
C48   O2    S    
C11   C13   A    
C57   C58   S    
C38   C39   A    
C46   H30   S    
C48   C49   S    
C54   H51   S    
Cu2   O4    S    
C49   H33   S    
C16   O7    A    
C27   C32   A    
C31   H6    S    
C5    C17   A    
C50   H38   S    
C49   C50   S    
C39   H8    S    
C14   C15   A    
C2    C28   S    
C44   H25   S    
C20   C46   S    
C57   H55   S    
C41   H13   S    
