data_mof_unit_21001.cif
_audit_creation_date              2012-10-26T20:02:31-0400
_audit_creation_method            fapswitch 2.2
_symmetry_space_group_name_H-M    P1
_symmetry_Int_Tables_number       1
_space_group_crystal_system       triclinic
_cell_length_a                    19.06091
_cell_length_b                    18.639906
_cell_length_c                    12.413436
_cell_angle_alpha                 89.97893
_cell_angle_beta                  130.06114
_cell_angle_gamma                 90.190423
_cell_volume                      3375.51836254

loop_
_atom_site_label
_atom_site_type_symbol
_atom_type_description
_atom_site_fract_x
_atom_site_fract_y
_atom_site_fract_z
_atom_type_partial_charge
C1    C     C_R   0.609159 0.896274 0.648975 0.565199
C2    C     C_R   0.679719 0.749486 0.054342 0.016412
C3    C     C_2   0.414764 0.228016 0.060081 0.238234
C4    C     C_2   0.862912 0.335219 0.962706 0.206970
C5    C     C_2   0.914910 0.728283 0.060393 0.238093
C6    C     C_R   0.145073 0.796276 0.980321 0.010886
C7    C     C_R   0.179681 0.249454 0.054278 0.016416
C8    C     C_R   0.569444 0.259094 0.863253 -0.138095
C9    C     C_R   0.600227 0.782681 0.938462 -0.163734
C10   C     C_R   0.069415 0.759162 0.863142 -0.138052
C11   C     C_R   0.100201 0.282672 0.938423 -0.163731
C12   C     C_R   0.578786 0.215825 0.782231 -0.125919
C13   C     C_R   0.591837 0.800476 0.822299 -0.130951
C14   C     C_R   0.078786 0.715842 0.782207 -0.125937
C15   C     C_R   0.612183 0.101844 0.652910 0.572937
C16   C     C_R   0.091803 0.300466 0.822255 -0.130938
C17   C     C_R   0.309608 0.817253 0.140754 -0.141463
C18   C     C_R   0.304003 0.171687 0.129453 -0.156400
C19   C     C_R   0.809627 0.317267 0.140725 -0.141450
C20   C     C_R   0.804103 0.671778 0.129582 -0.156429
C21   C     C_R   0.218137 0.867600 0.192411 -0.097092
C22   C     C_R   0.261081 0.184081 0.273979 -0.071552
C23   C     C_R   0.718225 0.367385 0.192692 -0.096987
C24   C     C_R   0.761079 0.684072 0.273991 -0.071631
C25   C     C_R   0.676617 0.161115 0.738721 0.019240
C26   C     C_R   0.109154 0.396271 0.648968 0.565157
C27   C     C_R   0.669298 0.834170 0.729423 0.004500
C28   C     C_R   0.176638 0.661098 0.738762 0.019244
C29   C     C_R   0.169265 0.334146 0.729375 0.004479
C30   C     C_R   0.676209 0.049427 0.290152 -0.117063
C31   C     C_R   0.176217 0.549420 0.290160 -0.117056
C32   C     C_R   0.342891 0.989173 0.630868 0.164224
C33   C     C_R   0.842889 0.489170 0.630878 0.164248
C34   C     C_R   0.311100 0.987775 0.705094 -0.146307
C35   C     C_R   0.811104 0.487792 0.705115 -0.146391
C36   C     C_R   0.384237 0.098554 0.342253 0.549130
C37   C     C_R   0.112188 0.601840 0.652918 0.572890
C38   C     C_R   0.382707 0.902138 0.339783 0.541374
C39   C     C_R   0.884248 0.598563 0.342269 0.549208
C40   C     C_R   0.882720 0.402123 0.339803 0.541456
C41   C     C_R   0.369953 0.997865 0.848208 -0.089144
C42   C     C_R   0.869958 0.497897 0.848221 -0.089224
C43   C     C_R   0.463594 0.008048 0.923060 0.017424
C44   C     C_R   0.963599 0.508062 0.923065 0.017312
C45   C     C_R   0.496003 0.011369 0.845502 0.104659
C46   C     C_R   0.996006 0.511373 0.845503 0.104635
C47   C     C_R   0.525986 0.014387 0.073588 0.007123
C48   C     C_R   0.230593 0.791518 0.010329 -0.009645
C49   C     C_R   0.025991 0.514394 0.073592 0.006968
C50   C     C_R   0.614751 0.042313 0.142420 0.022249
C51   C     C_R   0.114759 0.542312 0.142427 0.022188
C52   C     C_R   0.640573 0.060421 0.062124 -0.022631
C53   C     C_R   0.140582 0.560417 0.062131 -0.022646
C54   C     C_R   0.591199 0.029832 0.927030 0.004202
C55   C     C_R   0.091205 0.529830 0.927035 0.004207
C56   C     C_R   0.503110 0.995293 0.159023 0.089563
C57   C     C_R   0.003112 0.495297 0.159023 0.089510
C58   C     C_R   0.651634 0.025661 0.367687 0.039712
C59   C     C_R   0.245490 0.226960 0.042171 0.010514
C60   C     C_R   0.151637 0.525656 0.367692 0.039729
C61   C     C_R   0.638585 0.336781 0.070402 0.022038
C62   C     C_R   0.691325 0.731790 0.176152 0.007258
C63   C     C_R   0.138490 0.837008 0.070096 0.022084
C64   C     C_R   0.191319 0.231791 0.176126 0.007302
C65   C     C_R   0.303664 0.857666 0.229164 -0.031927
C66   C     C_R   0.315192 0.152237 0.247944 -0.022541
C67   C     C_R   0.803712 0.357605 0.229238 -0.031887
C68   C     C_R   0.815230 0.652268 0.247997 -0.022563
C69   C     C_R   0.756137 0.166017 0.754473 -0.131118
C70   C     C_R   0.730605 0.291505 0.010337 -0.009623
C71   C     C_R   0.736072 0.816986 0.718851 -0.129128
C72   C     C_R   0.256180 0.665978 0.754567 -0.131166
C73   C     C_R   0.236017 0.316944 0.718765 -0.129141
C74   C     C_R   0.319757 0.720121 0.835474 -0.084344
C75   C     C_R   0.309385 0.273776 0.818654 -0.087241
C76   C     C_R   0.819699 0.220175 0.835342 -0.084336
C77   C     C_R   0.809485 0.773874 0.818826 -0.087208
C78   C     C_R   0.308877 0.767773 0.910951 0.040090
C79   C     C_R   0.320480 0.249573 0.935541 0.024369
C80   C     C_R   0.808829 0.267817 0.910842 0.040084
C81   C     C_R   0.745567 0.727039 0.042292 0.010491
C82   C     C_R   0.820596 0.749719 0.935751 0.024392
C83   C     C_R   0.735773 0.256854 0.913237 -0.003202
C84   C     C_R   0.745885 0.756624 0.936586 0.008599
C85   C     C_R   0.235794 0.756832 0.913291 -0.003236
C86   C     C_R   0.245803 0.256531 0.936446 0.008622
C87   C     C_R   0.663205 0.210291 0.811223 0.004731
C88   C     C_R   0.668116 0.797066 0.827922 0.018048
C89   C     C_R   0.163219 0.710282 0.811250 0.004726
C90   C     C_R   0.168067 0.297025 0.827845 0.018058
C91   C     C_2   0.727845 0.098866 0.123932 0.276443
C92   C     C_R   0.645119 0.296183 0.980452 0.010814
C93   C     C_2   0.227854 0.598862 0.123939 0.276439
C94   C     C_2   0.271760 0.977240 0.479523 0.289957
C95   C     C_2   0.771732 0.477206 0.479539 0.289714
C96   C     C_2   0.652973 0.985124 0.923389 0.315554
C97   C     C_2   0.152974 0.485118 0.923391 0.315563
C98   C     C_2   0.549503 0.353049 0.034956 0.265778
C99   C     C_2   0.635493 0.765429 0.207012 0.234261
C100  C     C_2   0.049367 0.853447 0.034415 0.265830
C101  C     C_2   0.135516 0.265460 0.207019 0.234306
C102  C     C_2   0.362973 0.835171 0.962834 0.207005
Cu1   Cu    Cu3+1 0.526340 1.000000 0.421010 0.966637
Cu2   Cu    Cu3+1 0.026340 0.500000 0.421010 0.966644
Cu3   Cu    Cu3+1 0.473640 1.000000 0.578990 0.991673
Cu4   Cu    Cu3+1 0.973640 0.500000 0.578990 0.991772
H1    H     H_    0.212160 0.903344 0.253652 0.177761
H2    H     H_    0.839011 0.641438 0.102624 0.139655
H3    H     H_    0.517676 0.188925 0.693550 0.147682
H4    H     H_    0.525642 0.819248 0.730256 0.153034
H5    H     H_    0.017681 0.688935 0.693526 0.147649
H6    H     H_    0.025616 0.319264 0.730236 0.153045
H7    H     H_    0.726654 0.144276 0.068595 0.144080
H8    H     H_    0.226661 0.644275 0.068606 0.144057
H9    H     H_    0.743699 0.072500 0.348374 0.162437
H10   H     H_    0.243711 0.572487 0.348386 0.162431
H11   H     H_    0.435489 0.977741 0.114391 0.113924
H12   H     H_    0.272031 0.170758 0.368772 0.199124
H13   H     H_    0.935491 0.477743 0.114387 0.113961
H14   H     H_    0.232759 0.927669 0.444700 0.086739
H15   H     H_    0.732587 0.427712 0.444785 0.086802
H16   H     H_    0.238818 0.979761 0.650647 0.114061
H17   H     H_    0.738823 0.479783 0.650681 0.113991
H18   H     H_    0.652219 0.927891 0.935577 0.113359
H19   H     H_    0.152214 0.427884 0.935570 0.113357
H20   H     H_    0.503164 0.259806 0.836323 0.113365
H21   H     H_    0.542120 0.791649 0.933212 0.154184
H22   H     H_    0.003116 0.759900 0.836146 0.113263
H23   H     H_    0.712260 0.403004 0.254093 0.177604
H24   H     H_    0.042110 0.291669 0.933203 0.154173
H25   H     H_    0.485994 0.350658 0.927343 0.093483
H26   H     H_    0.600208 0.815409 0.157119 0.155588
H27   H     H_    0.985876 0.850815 0.926835 0.093473
H28   H     H_    0.100208 0.315426 0.157078 0.155543
H29   H     H_    0.767981 0.129096 0.700288 0.128887
H30   H     H_    0.735729 0.841275 0.639225 0.149526
H31   H     H_    0.268027 0.629050 0.700398 0.128856
H32   H     H_    0.235688 0.341252 0.639167 0.149566
H33   H     H_    0.340400 0.880927 0.986969 0.096222
H34   H     H_    0.771989 0.670711 0.368738 0.199102
H35   H     H_    0.439455 0.237749 0.165617 0.133407
H36   H     H_    0.840317 0.380979 0.986798 0.096185
H37   H     H_    0.939516 0.738009 0.165882 0.133192
H38   H     H_    0.376189 0.726093 0.835156 0.157815
H39   H     H_    0.362628 0.265755 0.811844 0.140113
H40   H     H_    0.876111 0.226162 0.834983 0.157815
H41   H     H_    0.862741 0.765864 0.812043 0.140091
H42   H     H_    0.699356 0.031977 0.480825 0.127445
H43   H     H_    0.199359 0.531969 0.480830 0.127425
H44   H     H_    0.339635 0.999506 0.897402 0.096846
H45   H     H_    0.839642 0.499560 0.897417 0.096830
H46   H     H_    0.376980 0.806972 0.174522 0.155018
H47   H     H_    0.338850 0.141297 0.102445 0.139618
H48   H     H_    0.876986 0.307055 0.174411 0.155053
N1    N     N_R   0.566260 1.000000 0.302220 -0.238342
N2    N     N_R   0.066260 0.500000 0.302220 -0.238327
N3    N     N_R   0.434410 0.000000 0.697680 -0.248231
N4    N     N_R   0.934410 0.500000 0.697680 -0.248155
O1    O     O_R   0.608610 0.924520 0.551740 -0.490284
O2    O     O_R   0.435880 0.924530 0.314850 -0.506978
O3    O     O_R   0.935880 0.575470 0.314850 -0.514519
O4    O     O_R   0.935880 0.424530 0.314850 -0.506991
O5    O     O_R   0.391380 0.075460 0.448260 -0.461956
O6    O     O_R   0.391380 0.924540 0.448260 -0.507842
O7    O     O_R   0.891380 0.575460 0.448260 -0.461853
O8    O     O_R   0.891380 0.424540 0.448260 -0.507661
O9    O     O_2   0.801591 0.076699 0.228867 -0.491877
O10   O     O_2   0.301600 0.576694 0.228872 -0.491911
O11   O     O_2   0.247608 0.024864 0.394888 -0.480670
O12   O     O_R   0.608610 0.075480 0.551740 -0.514529
O13   O     O_2   0.747703 0.524753 0.394823 -0.480725
O14   O     O_2   0.710924 0.011345 0.921305 -0.481743
O15   O     O_2   0.210929 0.511336 0.921309 -0.481818
O16   O     O_2   0.546317 0.371268 0.126246 -0.487405
O17   O     O_2   0.630243 0.738624 0.291418 -0.479583
O18   O     O_2   0.046118 0.872085 0.125454 -0.487112
O19   O     O_2   0.130315 0.238692 0.291503 -0.479533
O20   O     O_2   0.431190 0.841338 0.974199 -0.570521
O21   O     O_2   0.466435 0.200114 0.046163 -0.519985
O22   O     O_2   0.931150 0.341380 0.974125 -0.570469
O23   O     O_R   0.108610 0.424520 0.551740 -0.490298
O24   O     O_2   0.966701 0.700496 0.046616 -0.520020
O25   O     O_R   0.108610 0.575480 0.551740 -0.514547
O26   O     O_R   0.564110 0.924510 0.685150 -0.522849
O27   O     O_R   0.564110 0.075490 0.685150 -0.486570
O28   O     O_R   0.064110 0.424510 0.685150 -0.522869
O29   O     O_R   0.064110 0.575490 0.685150 -0.486589
O30   O     O_R   0.435880 0.075470 0.314850 -0.514512

loop_
_geom_bond_atom_site_label_1
_geom_bond_atom_site_label_2
_ccdc_geom_bond_type
C44   C49   A    
C31   C60   A    
C32   C94   S    
C16   C90   A    
C78   C102  S    
C41   C43   A    
C56   H11   S    
C5    O24   D    
C83   C87   A    
C61   C98   S    
C3    H35   S    
C17   C48   A    
C3    C79   S    
Cu2   Cu4   S    
C101  H28   S    
C24   H34   S    
C7    C11   A    
C15   O27   A    
C9    H21   S    
C6    C48   A    
C99   H26   S    
Cu4   O8    S    
C91   O9    D    
Cu4   O29   S    
C4    C80   S    
C56   N1    A    
C94   O11   D    
Cu2   O4    S    
C98   O16   D    
C36   C66   S    
Cu1   O2    S    
C5    H37   S    
C29   C73   A    
C73   H32   S    
C23   C67   A    
C46   N4    A    
C25   C87   A    
C49   C57   A    
C23   H23   S    
C69   C76   A    
C39   C68   S    
Cu3   O27   S    
C35   C42   A    
C9    C13   A    
C22   C66   A    
C3    O21   D    
C42   H45   S    
C94   H14   S    
C28   C37   S    
Cu3   N3    S    
C93   O10   D    
C52   C54   A    
C49   C51   A    
C40   C67   S    
C46   C55   A    
C100  O18   D    
C36   O5    A    
C50   C52   A    
Cu3   O5    S    
C19   C67   A    
C28   C89   A    
C8    C92   A    
C39   O3    A    
C43   C47   A    
C77   H41   S    
C40   O8    A    
C71   H30   S    
C61   C92   A    
Cu1   N1    S    
C95   H15   S    
C38   O6    A    
Cu2   O23   S    
C30   C50   A    
C76   H40   S    
C34   H16   S    
C20   C81   A    
C73   C75   A    
C28   C72   A    
C34   C41   A    
C42   C44   A    
C4    O22   D    
C80   C83   A    
C10   H22   S    
C33   C95   S    
C7    C59   A    
C12   H3    S    
C1    O26   A    
C44   C46   A    
C47   C50   A    
C30   H9    S    
C53   C55   A    
C64   C101  S    
C57   N2    A    
C97   O15   D    
C96   H18   S    
C53   C93   S    
Cu4   O7    S    
C76   C80   A    
C1    O1    A    
C45   N3    A    
Cu4   O28   S    
C97   H19   S    
C86   C90   A    
Cu2   O3    S    
C85   C89   A    
C41   H44   S    
Cu4   N4    S    
C22   C64   A    
C75   H39   S    
C91   H7    S    
C15   O12   A    
C36   O30   A    
C32   C34   A    
C6    C63   A    
C39   O7    A    
C60   N2    A    
C14   C89   A    
C40   O4    A    
C63   C100  S    
C70   C83   A    
Cu1   O12   S    
C11   C16   A    
C38   C65   S    
C8    C12   A    
C55   C97   S    
Cu3   O6    S    
Cu1   Cu3   S    
Cu2   N2    S    
C14   H5    S    
C43   C45   A    
C13   H4    S    
C21   H1    S    
C18   H47   S    
C26   C29   S    
C78   C85   A    
C72   C74   A    
C72   H31   S    
C45   C54   A    
C82   C84   A    
C74   C78   A    
C100  H27   S    
C102  O20   D    
C17   H46   S    
C25   C69   A    
C11   H24   S    
C31   H10   S    
C71   C77   A    
C81   C84   A    
C27   C71   A    
C33   N4    A    
C16   H6    S    
C32   N3    A    
C8    H20   S    
C22   H12   S    
C74   H38   S    
C24   C62   A    
C12   C87   A    
C21   C65   A    
C29   C90   A    
C20   C68   A    
C70   C92   A    
Cu1   O30   S    
C84   C88   A    
C31   C51   A    
C52   C91   S    
C6    C10   A    
C18   C66   A    
C98   H25   S    
C17   C65   A    
C57   H13   S    
C35   H17   S    
C59   C86   A    
C38   O2    A    
C4    H36   S    
C5    C82   S    
C26   O28   A    
Cu1   O1    S    
C37   O29   A    
C95   O13   D    
C77   C82   A    
C30   C58   A    
C13   C88   A    
C60   H43   S    
C33   C35   A    
C58   H42   S    
C93   H8    S    
Cu3   O26   S    
C27   C88   A    
C7    C64   A    
C21   C63   A    
C101  O19   D    
C58   N1    A    
C24   C68   A    
C102  H33   S    
C62   C99   S    
C26   O23   A    
C18   C59   A    
C23   C61   A    
Cu2   O25   S    
C99   O17   D    
C15   C25   S    
C69   H29   S    
C96   O14   D    
C1    C27   S    
C19   H48   S    
C48   C85   A    
C2    C81   A    
C51   C53   A    
C19   C70   A    
C2    C9    A    
C75   C79   A    
C54   C96   S    
C79   C86   A    
C2    C62   A    
C10   C14   A    
C47   C56   A    
C20   H2    S    
C37   O25   A    
