data_mof_unit_23317.cif
_audit_creation_date              2012-12-10T18:40:30-0500
_audit_creation_method            fapswitch 2.2
_symmetry_space_group_name_H-M    P1
_symmetry_Int_Tables_number       1
_space_group_crystal_system       triclinic
_cell_length_a                    10.741436
_cell_length_b                    11.573584
_cell_length_c                    15.579204
_cell_angle_alpha                 90.022302
_cell_angle_beta                  88.123403
_cell_angle_gamma                 89.999835
_cell_volume                      1935.71965132

loop_
_atom_site_label
_atom_site_type_symbol
_atom_type_description
_atom_site_fract_x
_atom_site_fract_y
_atom_site_fract_z
_atom_type_partial_charge
C1    C     C_R   0.500000 0.718972 0.500008 0.923309
C2    C     C_R   0.500000 0.281037 0.499997 0.893617
C3    C     C_1   0.500001 0.839042 0.500013 -0.189076
C4    C     C_1   0.500002 0.161004 0.500004 -0.192050
C5    C     C_1   0.500003 0.940900 0.500014 0.008832
C6    C     C_1   0.500003 0.059156 0.500010 0.006372
C7    C     C_1   0.930339 0.500115 0.499950 0.023634
C8    C     C_1   0.069661 0.500115 0.500036 0.023814
C9    C     C_R   0.486520 0.495590 0.657778 0.904334
C10   C     C_R   0.513497 0.495512 0.342227 0.904181
C11   C     C_R   0.484934 0.458302 0.749269 -0.219703
C12   C     C_R   0.515257 0.458025 0.250760 -0.218358
C13   C     C_R   0.597014 0.435608 0.792451 0.436265
C14   C     C_R   0.403340 0.434722 0.207545 0.436470
C15   C     C_R   0.592495 0.376290 0.871896 0.269525
C16   C     C_R   0.408253 0.375282 0.128100 0.268536
C17   C     C_R   0.479207 0.328860 0.903517 -0.052406
C18   C     C_R   0.521892 0.328553 0.096429 -0.049990
C19   C     C_R   0.368885 0.357477 0.862886 -0.125482
C20   C     C_R   0.631986 0.357682 0.137178 -0.123681
C21   C     C_R   0.371282 0.423962 0.788287 -0.271410
C22   C     C_R   0.629127 0.424153 0.211803 -0.268668
C23   C     C_2   0.479130 0.224694 0.959250 0.401014
C24   C     C_2   0.522855 0.224672 0.040312 0.400962
H1    H     H_    0.716020 0.439808 0.243197 0.185145
H2    H     H_    0.284287 0.439195 0.756931 0.185486
H3    H     H_    0.280637 0.322171 0.885659 0.189990
H4    H     H_    0.720490 0.322845 0.114480 0.188792
N1    N     N_1   0.819370 0.500000 0.500010 -0.076941
N2    N     N_1   0.180630 0.500000 0.499990 -0.076846
O1    O     O_R   0.397470 0.665550 0.500010 -0.595872
O2    O     O_R   0.602530 0.334450 0.499990 -0.618742
O3    O     O_R   0.602530 0.665550 0.499990 -0.595672
O4    O     O_R   0.397470 0.334450 0.500010 -0.618867
O5    O     O_R   0.385350 0.500000 0.615800 -0.604966
O6    O     O_R   0.614650 0.500000 0.384200 -0.604956
O7    O     O_R   0.590410 0.500000 0.615800 -0.576393
O8    O     O_R   0.409590 0.500000 0.384200 -0.576348
Zn1   Zn    Zn3+2 0.363080 0.500000 0.500000 0.967149
Zn2   Zn    Zn3+2 0.636920 0.500000 0.500000 0.967280
O9    O     O_3   0.710707 0.473259 0.758078 -0.605044
C25   C     C_3   0.779608 0.378779 0.722805 0.142016
H5    H     H_    0.754311 0.364831 0.655095 0.159602
H6    H     H_    0.762783 0.295608 0.757340 0.150517
C26   C     C_3   0.918555 0.406945 0.724941 -0.291519
H7    H     H_    0.937670 0.487959 0.688604 0.222077
H8    H     H_    0.945148 0.420845 0.792517 0.265493
C27   C     C_3   0.997931 0.309582 0.685999 -0.970307
H9    H     H_    0.984125 0.228950 0.723773 0.275086
H10   H     H_    0.097851 0.333988 0.686828 0.267821
H11   H     H_    0.972731 0.293564 0.618444 0.263471
O10   O     O_3   0.289462 0.472092 0.241808 -0.604564
C28   C     C_3   0.220915 0.377527 0.277206 0.141500
H12   H     H_    0.246319 0.363877 0.344922 0.159517
H13   H     H_    0.237991 0.294311 0.242739 0.150480
C29   C     C_3   0.081870 0.405312 0.275087 -0.291999
H14   H     H_    0.062541 0.486415 0.311315 0.222263
H15   H     H_    0.055182 0.418887 0.207501 0.265361
C30   C     C_3   0.002791 0.307906 0.314201 -0.968560
H16   H     H_    0.016819 0.227151 0.276542 0.275770
H17   H     H_    0.902781 0.332065 0.313346 0.267834
H18   H     H_    0.028070 0.292243 0.381788 0.263289
O11   O     O_3   0.545136 0.120256 0.080860 -0.648847
C31   C     C_3   0.660504 0.074743 0.050509 0.123405
H19   H     H_    0.737590 0.136825 0.061183 0.152249
H20   H     H_    0.658374 0.054107 0.980819 0.191441
C32   C     C_3   0.687200 0.963650 0.099514 -0.351326
H21   H     H_    0.692002 0.983279 0.169193 0.233528
H22   H     H_    0.610290 0.901021 0.090487 0.235129
C33   C     C_3   0.809804 0.908883 0.068384 -0.924140
H23   H     H_    0.806027 0.886334 0.999190 0.269968
H24   H     H_    0.826494 0.828698 0.105393 0.276590
H25   H     H_    0.888465 0.969353 0.078014 0.266259
O12   O     O_3   0.458539 0.120248 0.918287 -0.631189
C34   C     C_3   0.343152 0.073660 0.947695 0.147859
H26   H     H_    0.265259 0.130340 0.928518 0.113406
H27   H     H_    0.337893 0.063708 0.018828 0.184315
C35   C     C_3   0.324179 0.955169 0.906680 -0.373035
H28   H     H_    0.229090 0.923465 0.924408 0.182752
H29   H     H_    0.331578 0.963253 0.835587 0.229574
C36   C     C_3   0.419410 0.867020 0.936446 -0.741776
H30   H     H_    0.515391 0.894757 0.917493 0.274927
H31   H     H_    0.401293 0.782040 0.906175 0.242420
H32   H     H_    0.412004 0.856718 0.007309 0.245956
Cl1   Cl    Cl    0.268929 0.351486 0.073418 -0.694326
Cl2   Cl    Cl    0.731975 0.353467 0.926600 -0.693524

loop_
_geom_bond_atom_site_label_1
_geom_bond_atom_site_label_2
_ccdc_geom_bond_type
C21   H2    S    
C7    N1    T    
O9    C25   S    
C2    C4    S    
C13   O9    S    
C36   H30   S    
C1    O3    A    
C7    C8    S    
C26   H7    S    
C17   C23   S    
C18   C24   S    
C19   C21   A    
O7    Zn2   S    
C5    C6    S    
C35   H29   S    
C28   C29   S    
C12   C22   A    
C1    O1    A    
C29   H14   S    
C2    O2    A    
C26   H8    S    
C27   H11   S    
C14   O10   S    
C29   H15   S    
C22   H1    S    
C23   C24   D    
C33   H23   S    
C19   H3    S    
C2    O4    A    
C27   H10   S    
C30   H16   S    
C25   H6    S    
C36   H31   S    
C28   H13   S    
C30   H17   S    
O3    Zn2   S    
O12   C34   S    
C32   H21   S    
C31   C32   S    
O6    Zn2   S    
C4    C6    T    
C35   H28   S    
C20   H4    S    
C28   H12   S    
C11   C21   A    
O4    Zn1   S    
C32   H22   S    
C25   C26   S    
C31   H20   S    
O5    Zn1   S    
C34   H26   S    
C9    C11   S    
C33   H25   S    
C9    O7    A    
C34   H27   S    
C10   C12   S    
C15   Cl2   S    
C27   H9    S    
C20   C22   A    
C24   O11   S    
C13   C15   A    
C16   Cl1   S    
C14   C16   A    
C25   H5    S    
C23   O12   S    
C36   H32   S    
O10   C28   S    
C26   C27   S    
C15   C17   A    
C30   H18   S    
C12   C14   A    
C3    C5    T    
C33   H24   S    
C29   C30   S    
C10   O8    A    
C32   C33   S    
C8    N2    T    
C31   H19   S    
C11   C13   A    
C35   C36   S    
O8    Zn1   S    
N1    Zn2   S    
C17   C19   A    
O1    Zn1   S    
N2    Zn1   S    
C18   C20   A    
O2    Zn2   S    
C34   C35   S    
O11   C31   S    
C16   C18   A    
C9    O5    A    
C10   O6    A    
C1    C3    S    
