data_mof_unit_55734.cif
_audit_creation_date              2012-12-11T15:47:03-0500
_audit_creation_method            fapswitch 2.2
_symmetry_space_group_name_H-M    P1
_symmetry_Int_Tables_number       1
_space_group_crystal_system       triclinic
_cell_length_a                    11.498303
_cell_length_b                    11.556696
_cell_length_c                    19.547815
_cell_angle_alpha                 90.414908
_cell_angle_beta                  89.874863
_cell_angle_gamma                 60.2004
_cell_volume                      2253.973055

loop_
_atom_site_label
_atom_site_type_symbol
_atom_type_description
_atom_site_fract_x
_atom_site_fract_y
_atom_site_fract_z
_atom_type_partial_charge
C1    C     C_R   0.640496 0.117075 0.599270 0.542423
C2    C     C_1   0.653114 0.149381 0.668641 0.005354
C3    C     C_R   0.683984 0.610260 0.202012 0.022432
C4    C     C_R   0.612503 0.745804 0.598628 0.539184
C5    C     C_R   0.635175 0.552104 0.247915 -0.050175
C6    C     C_R   0.630978 0.575643 0.316666 -0.045612
C7    C     C_R   0.733628 0.711485 0.297278 -0.159804
C8    C     C_R   0.735115 0.691360 0.227005 0.007659
C9    C     C_3   0.510389 0.539681 0.250845 -0.039179
C10   C     C_3   0.509732 0.561482 0.327835 -0.247357
C11   C     C_R   0.669827 0.664234 0.341431 -0.013117
C12   C     C_1   0.641106 0.703820 0.667983 0.005901
C13   C     C_R   0.160083 0.194420 0.187431 -0.015491
C14   C     C_R   0.161336 0.292393 0.229021 0.009642
C15   C     C_R   0.183280 0.272598 0.297648 -0.008162
C16   C     C_R   0.240775 0.145173 0.598124 0.539179
C17   C     C_R   0.235242 0.044856 0.284760 0.053861
C18   C     C_R   0.208414 0.066338 0.214207 -0.146782
C19   C     C_3   0.056888 0.435326 0.240302 -0.223540
C20   C     C_3   0.082302 0.412511 0.316215 -0.254960
C21   C     C_R   0.209755 0.153586 0.328199 0.032052
C22   C     C_R   0.679183 0.195707 0.195999 0.029138
C23   C     C_1   0.126849 0.199250 0.859311 0.007700
C24   C     C_R   0.753167 0.214220 0.247174 -0.020613
C25   C     C_R   0.740246 0.190766 0.314523 -0.022962
C26   C     C_R   0.564898 0.143678 0.283748 -0.119138
C27   C     C_R   0.577399 0.169149 0.214888 -0.135239
C28   C     C_R   0.643888 0.111528 0.402345 0.533279
C29   C     C_3   0.897975 0.170919 0.254048 -0.241025
C30   C     C_3   0.884123 0.144962 0.329418 -0.117568
C31   C     C_R   0.653851 0.145362 0.333049 0.043720
C32   C     C_R   0.081834 0.231406 0.928621 0.549069
C33   C     C_R   0.684014 0.604692 0.929533 0.566799
C34   C     C_1   0.171286 0.170194 0.727705 -0.028721
C35   C     C_R   0.708446 0.206829 0.930127 0.550879
C36   C     C_R   0.086499 0.235002 0.123851 0.532935
C37   C     C_R   0.704367 0.561135 0.133290 0.563583
C38   C     C_R   0.707162 0.210739 0.126115 0.543261
C39   C     C_R   0.620435 0.733760 0.404911 0.544526
C40   C     C_R   0.249340 0.137785 0.399684 0.545596
C41   C     C_1   0.670878 0.646538 0.860142 0.006510
C42   C     C_1   0.654829 0.683637 0.728414 -0.028895
C43   C     C_1   0.663835 0.666667 0.799686 -0.029422
C44   C     C_2   0.964781 0.000015 0.349957 0.603021
C45   C     C_1   0.150179 0.182546 0.798942 -0.028579
C46   C     C_2   0.774964 0.769574 0.182413 0.587206
C47   C     C_2   0.385074 0.645843 0.216932 0.566072
C48   C     C_1   0.194971 0.160636 0.667339 0.006250
C49   C     C_1   0.678655 0.191365 0.860779 0.007964
C50   C     C_1   0.658691 0.167018 0.729029 -0.028790
C51   C     C_1   0.665780 0.180866 0.800343 -0.028229
Cr1   Cr    Cr6+3 0.404720 0.198220 0.499960 1.034264
Cr2   Cr    Cr6+3 0.698290 0.897110 0.500380 1.067116
Cr3   Cr    Cr6+3 0.396970 0.904720 0.499610 1.068070
Cr4   Cr    Cr6+3 0.926290 0.152010 0.028150 1.039356
Cr5   Cr    Cr6+3 0.921440 0.451830 0.027490 1.062006
Cr6   Cr    Cr6+3 0.626370 0.446880 0.028730 1.064848
H1    H     H_    0.764887 0.780342 0.316004 0.200445
H2    H     H_    0.528474 0.439411 0.237573 0.122151
H3    H     H_    0.420566 0.652990 0.347328 0.192325
H4    H     H_    0.534159 0.470499 0.357453 0.129494
H5    H     H_    0.214838 0.986778 0.182025 0.180234
H6    H     H_    0.956167 0.454183 0.225429 0.129851
H7    H     H_    0.031791 0.042721 0.436686 0.294634
H8    H     H_    0.893911 0.850201 0.169217 0.349744
H9    H     H_    0.187230 0.719590 0.201635 0.351729
H10   H     H_    0.383527 0.855746 0.291029 0.256825
H11   H     H_    0.226976 0.875596 0.295495 0.275392
H12   H     H_    0.087174 0.505389 0.218940 0.206959
H13   H     H_    0.129102 0.468041 0.338743 0.187583
H14   H     H_    0.995486 0.419865 0.345221 0.129049
H15   H     H_    0.490931 0.116001 0.297974 0.128090
H16   H     H_    0.513558 0.161183 0.176703 0.139966
H17   H     H_    0.915794 0.256015 0.246778 0.106680
H18   H     H_    0.962302 0.080338 0.222812 0.177808
H19   H     H_    0.895039 0.215226 0.364431 0.070759
N1    N     N_3   0.287595 0.914015 0.311696 -0.556619
O1    O     O_R   0.267750 0.231960 0.575440 -0.503253
O2    O     O_R   0.596230 0.579400 0.952760 -0.496437
O3    O     O_R   0.639160 0.321170 0.958690 -0.496092
O4    O     O_R   0.527290 0.186640 0.570530 -0.494706
O5    O     O_R   0.821370 0.124220 0.104400 -0.509480
O6    O     O_R   0.037020 0.167050 0.097880 -0.509971
O7    O     O_R   0.056310 0.349620 0.102920 -0.516533
O8    O     O_R   0.797790 0.564880 0.097980 -0.476705
O9    O     O_R   0.596000 0.584270 0.104310 -0.446449
O10   O     O_R   0.638950 0.325690 0.099180 -0.519920
O11   O     O_3   0.824700 0.350240 0.028120 -0.291426
O12   O     O_R   0.685950 0.784660 0.430010 -0.508678
O13   O     O_R   0.728110 0.003450 0.576380 -0.498128
O14   O     O_R   0.682980 0.789190 0.570500 -0.495747
O15   O     O_R   0.499300 0.771880 0.575540 -0.503579
O16   O     O_R   0.285350 0.030870 0.569740 -0.493878
O17   O     O_R   0.270960 0.227070 0.423890 -0.523680
O18   O     O_R   0.530270 0.182120 0.430040 -0.512279
O19   O     O_R   0.731320 0.998570 0.424830 -0.473060
O20   O     O_2   0.964760 0.912968 0.314132 -0.439598
O21   O     O_R   0.039274 0.963605 0.410238 -0.643509
O22   O     O_2   0.713897 0.818812 0.129625 -0.483041
O23   O     O_R   0.502510 0.767000 0.423980 -0.500724
O24   O     O_R   0.878195 0.792755 0.202748 -0.679001
O25   O     O_2   0.386679 0.732381 0.182116 -0.516763
O26   O     O_R   0.265467 0.643893 0.226059 -0.692448
O27   O     O_R   0.288320 0.026340 0.429250 -0.454240
O28   O     O_3   0.499990 0.000020 0.499980 -0.269588
O29   O     O_R   0.821590 0.119350 0.952850 -0.496219
O30   O     O_R   0.037230 0.162540 0.957390 -0.489665
O31   O     O_R   0.056530 0.344750 0.951370 -0.503054
O32   O     O_R   0.798000 0.560370 0.957490 -0.482741

loop_
_geom_bond_atom_site_label_1
_geom_bond_atom_site_label_2
_ccdc_geom_bond_type
C25   C31   A    
C30   C44   S    
C46   O22   D    
C1    O13   A    
C23   C45   T    
C26   H15   S    
Cr6   O2    S    
C19   C20   S    
H10   N1    S    
H8    O24   S    
Cr3   O23   S    
C16   C48   S    
Cr3   O15   S    
Cr5   O8    S    
C7    C8    A    
C7    C11   A    
C16   O16   A    
C13   C18   A    
C28   O18   A    
Cr3   O27   S    
C5    C6    A    
Cr5   O7    S    
Cr5   O11   S    
C36   O6    A    
C1    O4    A    
C22   C38   S    
C35   O3    A    
C25   C30   S    
Cr6   O9    S    
Cr1   O18   S    
C1    C2    S    
Cr4   O11   S    
C24   C29   S    
Cr5   O31   S    
Cr3   O16   S    
C12   C42   T    
C2    C50   T    
C44   O21   S    
C19   H6    S    
C49   C51   T    
C32   O30   A    
C35   C49   S    
C20   H14   S    
Cr1   O17   S    
C4    C12   S    
C9    C10   S    
C7    H1    S    
C4    O14   A    
H7    O21   S    
C26   C31   A    
C47   O25   D    
C13   C14   A    
C38   O5    A    
Cr2   O19   S    
C41   C43   T    
Cr6   O3    S    
C20   H13   S    
Cr1   O1    S    
C14   C19   S    
C50   C51   S    
C15   C20   S    
C46   O24   S    
C47   O26   S    
Cr4   O29   S    
C37   O9    A    
C24   C25   A    
C13   C36   S    
C3    C8    A    
C6    C11   A    
C18   H5    S    
C29   H17   S    
C17   C21   A    
Cr6   O10   S    
Cr4   O30   S    
C9    H2    S    
C10   H3    S    
Cr2   O14   S    
C29   C30   S    
C40   O27   A    
C30   H19   S    
C44   O20   D    
C17   N1    S    
C17   C18   A    
C26   C27   A    
C34   C45   S    
Cr4   O5    S    
C11   C39   S    
Cr1   O28   S    
C9    C47   S    
C22   C27   A    
Cr2   O12   S    
C22   C24   A    
C19   H12   S    
C10   H4    S    
C34   C48   T    
C42   C43   S    
Cr4   O6    S    
Cr5   O32   S    
C37   O8    A    
H11   N1    S    
Cr3   O28   S    
H9    O26   S    
C28   C31   S    
C33   O2    A    
C40   O17   A    
C3    C5    A    
C6    C10   S    
C29   H18   S    
Cr6   O11   S    
C38   O10   A    
C28   O19   A    
C33   C41   S    
C23   C32   S    
C35   O29   A    
C39   O23   A    
C21   C40   S    
C36   O7    A    
C16   O1    A    
Cr1   O4    S    
C8    C46   S    
Cr2   O28   S    
C15   C21   A    
C33   O32   A    
C3    C37   S    
C32   O31   A    
Cr2   O13   S    
C14   C15   A    
C5    C9    S    
C27   H16   S    
C39   O12   A    
C4    O15   A    
