data_mof_unit_34780.cif
_audit_creation_date              2012-12-11T14:08:21-0500
_audit_creation_method            fapswitch 2.2
_symmetry_space_group_name_H-M    P1
_symmetry_Int_Tables_number       1
_space_group_crystal_system       triclinic
_cell_length_a                    27.724896
_cell_length_b                    27.818323
_cell_length_c                    27.789371
_cell_angle_alpha                 89.592975
_cell_angle_beta                  90.104074
_cell_angle_gamma                 89.853896
_cell_volume                      21432.1868325

loop_
_atom_site_label
_atom_site_type_symbol
_atom_type_description
_atom_site_fract_x
_atom_site_fract_y
_atom_site_fract_z
_atom_type_partial_charge
C1    C     C_R   0.026701 0.085295 0.025697 0.065530
C2    C     C_R   0.026651 0.024943 0.085762 0.065405
C3    C     C_R   0.087028 0.025245 0.025943 0.065475
C4    C     C_R   0.889541 0.714835 0.183502 0.024933
C5    C     C_R   0.183729 0.889885 0.713423 0.025283
C6    C     C_R   0.696486 0.208946 0.908424 0.034144
C7    C     C_R   0.893357 0.186585 0.712011 0.023015
C8    C     C_R   0.183924 0.713803 0.890062 0.025956
C9    C     C_R   0.697674 0.906134 0.204985 0.031836
C10   C     C_R   0.696269 0.696601 0.207814 0.034854
C11   C     C_R   0.211222 0.695413 0.694495 0.036016
C12   C     C_R   0.708690 0.188968 0.709184 0.024258
C13   C     C_R   0.907533 0.907898 0.208387 0.035884
C14   C     C_R   0.210608 0.908483 0.908561 0.039569
C15   C     C_R   0.907536 0.208090 0.907994 0.036067
C16   C     C_R   0.909524 0.852438 0.391607 -0.126286
C17   C     C_R   0.379339 0.916779 0.861394 -0.139842
C18   C     C_R   0.851147 0.393869 0.906886 -0.116806
C19   C     C_R   0.906928 0.394021 0.850901 -0.127100
C20   C     C_R   0.380494 0.860556 0.916711 -0.116365
C21   C     C_R   0.855325 0.909815 0.390600 -0.122156
C22   C     C_R   0.686364 0.742092 0.378987 -0.135593
C23   C     C_R   0.378191 0.685910 0.741703 -0.121499
C24   C     C_R   0.743306 0.382328 0.687719 -0.121272
C25   C     C_R   0.688048 0.383102 0.744352 -0.128141
C26   C     C_R   0.377074 0.741394 0.685764 -0.148125
C27   C     C_R   0.742346 0.686497 0.379824 -0.117721
C28   C     C_R   0.861114 0.686501 0.379897 -0.117280
C29   C     C_R   0.394335 0.850562 0.696902 -0.129060
C30   C     C_R   0.685871 0.378325 0.861783 -0.121762
C31   C     C_R   0.860522 0.380794 0.686880 -0.117241
C32   C     C_R   0.383202 0.688262 0.859208 -0.129559
C33   C     C_R   0.692569 0.854668 0.389839 -0.114905
C34   C     C_R   0.746165 0.912332 0.387120 -0.136578
C35   C     C_R   0.382484 0.743350 0.915669 -0.120645
C36   C     C_R   0.916829 0.379587 0.742054 -0.151048
C37   C     C_R   0.741346 0.377148 0.917634 -0.138989
C38   C     C_R   0.394100 0.906899 0.752055 -0.117700
C39   C     C_R   0.917255 0.741614 0.378847 -0.147431
C40   C     C_R   0.894054 0.892098 0.416418 0.024296
C41   C     C_R   0.397693 0.905975 0.906203 0.034113
C42   C     C_R   0.888829 0.420365 0.888521 0.023215
C43   C     C_R   0.696471 0.696684 0.396435 0.034483
C44   C     C_R   0.393600 0.695686 0.695395 0.033399
C45   C     C_R   0.698829 0.401583 0.699439 0.031527
C46   C     C_R   0.907041 0.696366 0.396452 0.033234
C47   C     C_R   0.420702 0.888322 0.714679 0.024792
C48   C     C_R   0.695643 0.393843 0.907969 0.034888
C49   C     C_R   0.905934 0.398166 0.697352 0.032154
C50   C     C_R   0.401736 0.699019 0.903996 0.031948
C51   C     C_R   0.706693 0.896364 0.412360 0.023621
C52   C     C_R   0.955619 0.140217 0.016548 -0.166640
C53   C     C_R   0.015936 0.953069 0.139139 -0.167666
C54   C     C_R   0.142112 0.016416 0.955229 -0.166531
C55   C     C_R   0.955689 0.016127 0.140642 -0.166428
C56   C     C_R   0.016158 0.138979 0.953937 -0.167391
C57   C     C_R   0.141890 0.954318 0.016622 -0.166981
C58   C     C_R   0.575947 0.028939 0.089476 0.095382
C59   C     C_R   0.984156 0.675935 0.924268 0.094372
C60   C     C_R   0.917138 0.985531 0.680215 0.098114
C61   C     C_R   0.574370 0.094026 0.030357 0.097034
C62   C     C_R   0.984143 0.929320 0.677718 0.092846
C63   C     C_R   0.919867 0.680428 0.983286 0.094684
C64   C     C_R   0.518085 0.026945 0.023250 0.094518
C65   C     C_R   0.916506 0.620944 0.920223 0.095393
C66   C     C_R   0.921093 0.926288 0.617066 0.097388
C67   C     C_R   0.590821 0.074636 0.074124 -0.230592
C68   C     C_R   0.963790 0.697015 0.965042 -0.219991
C69   C     C_R   0.959596 0.966828 0.700367 -0.216812
C70   C     C_R   0.536000 0.071327 0.006626 -0.216480
C71   C     C_R   0.894669 0.644829 0.958577 -0.227574
C72   C     C_R   0.964358 0.908770 0.636391 -0.219091
C73   C     C_R   0.538706 0.005878 0.064511 -0.218274
C74   C     C_R   0.895840 0.962293 0.641187 -0.231457
C75   C     C_R   0.959690 0.638699 0.901187 -0.217989
C76   C     C_R   0.656578 0.005566 0.122311 -0.169197
C77   C     C_R   0.052762 0.732878 0.915892 -0.183415
C78   C     C_R   0.908964 0.054717 0.736135 -0.187686
C79   C     C_R   0.654978 0.127599 0.008395 -0.167881
C80   C     C_R   0.066726 0.956607 0.700432 -0.170097
C81   C     C_R   0.914755 0.736626 0.052556 -0.184176
C82   C     C_R   0.685948 0.975375 0.149648 -0.170754
C83   C     C_R   0.101737 0.741559 0.910224 -0.162320
C84   C     C_R   0.907283 0.104116 0.743051 -0.159057
C85   C     C_R   0.684419 0.154836 0.978432 -0.170950
C86   C     C_R   0.115565 0.947364 0.707402 -0.178899
C87   C     C_R   0.910494 0.744114 0.101779 -0.160863
C88   C     C_R   0.665662 0.939645 0.178938 0.141268
C89   C     C_R   0.133434 0.703507 0.900357 0.145517
C90   C     C_R   0.900572 0.135394 0.703668 0.147428
C91   C     C_R   0.664266 0.184663 0.942931 0.140763
C92   C     C_R   0.133225 0.900500 0.702966 0.146758
C93   C     C_R   0.898558 0.705771 0.132645 0.146955
C94   C     C_R   0.615249 0.935824 0.181965 -0.166974
C95   C     C_R   0.115757 0.656715 0.896152 -0.178386
C96   C     C_R   0.894492 0.116787 0.657543 -0.193284
C97   C     C_R   0.613861 0.188916 0.939691 -0.168285
C98   C     C_R   0.101500 0.862708 0.692702 -0.163194
C99   C     C_R   0.890537 0.660044 0.113802 -0.179382
C100  C     C_R   0.585646 0.966670 0.155043 -0.179717
C101  C     C_R   0.066887 0.647828 0.902867 -0.171033
C102  C     C_R   0.896969 0.067513 0.650485 -0.173407
C103  C     C_R   0.584135 0.162195 0.970480 -0.180381
C104  C     C_R   0.052534 0.871742 0.686776 -0.183934
C105  C     C_R   0.895483 0.652387 0.064747 -0.167810
C106  C     C_R   0.606046 0.001324 0.124194 0.136506
C107  C     C_R   0.034930 0.685908 0.912642 0.136402
C108  C     C_R   0.904703 0.036002 0.689667 0.135203
C109  C     C_R   0.604369 0.130106 0.004361 0.135244
C110  C     C_R   0.034743 0.918818 0.690147 0.137099
C111  C     C_R   0.907704 0.690601 0.033674 0.138702
C112  C     C_R   0.926283 0.169338 0.987670 -0.176491
C113  C     C_R   0.986632 0.924391 0.168163 -0.177803
C114  C     C_R   0.171653 0.987849 0.926484 -0.174353
C115  C     C_R   0.926378 0.987446 0.169750 -0.176501
C116  C     C_R   0.986823 0.168017 0.925055 -0.178001
C117  C     C_R   0.171422 0.925753 0.987884 -0.178613
C118  C     C_R   0.450291 0.967465 0.015212 -0.176280
C119  C     C_R   0.908466 0.551670 0.864144 -0.187364
C120  C     C_R   0.899204 0.954983 0.534966 -0.173532
C121  C     C_R   0.487114 0.000048 0.943056 -0.173289
C122  C     C_R   0.916973 0.870390 0.547696 -0.186447
C123  C     C_R   0.893310 0.539694 0.949360 -0.167183
C124  C     C_R   0.421872 0.937150 0.987056 -0.169060
C125  C     C_R   0.905393 0.502288 0.857303 -0.162439
C126  C     C_R   0.895476 0.947431 0.485758 -0.189528
C127  C     C_R   0.457959 0.970715 0.915057 -0.168832
C128  C     C_R   0.913989 0.863007 0.498412 -0.159731
C129  C     C_R   0.889411 0.490544 0.942342 -0.182398
C130  C     C_R   0.425728 0.938531 0.936782 0.141067
C131  C     C_R   0.896307 0.471525 0.896519 0.148411
C132  C     C_R   0.903358 0.901545 0.467166 0.147801
C133  C     C_R   0.483845 0.998755 0.993545 0.134704
C134  C     C_R   0.903249 0.570765 0.910402 0.138237
C135  C     C_R   0.910034 0.916509 0.566360 0.138144
C136  C     C_R   0.030205 0.576419 0.513598 0.095341
C137  C     C_R   0.620348 0.924068 0.681747 0.094693
C138  C     C_R   0.576670 0.509618 0.031018 0.097730
C139  C     C_R   0.027646 0.518970 0.580309 0.094229
C140  C     C_R   0.521105 0.577395 0.023145 0.093785
C141  C     C_R   0.672096 0.931303 0.611821 0.095687
C142  C     C_R   0.095098 0.574984 0.573081 0.096964
C143  C     C_R   0.678023 0.988956 0.676671 0.095723
C144  C     C_R   0.578144 0.574318 0.090045 0.096309
C145  C     C_R   0.075864 0.591473 0.529189 -0.229970
C146  C     C_R   0.644374 0.962548 0.703117 -0.227272
C147  C     C_R   0.593472 0.528802 0.074572 -0.230081
C148  C     C_R   0.072014 0.536828 0.596984 -0.217781
C149  C     C_R   0.541207 0.597848 0.064558 -0.218512
C150  C     C_R   0.693052 0.972253 0.631823 -0.221754
C151  C     C_R   0.006898 0.539369 0.538809 -0.219583
C152  C     C_R   0.636484 0.906597 0.637477 -0.216725
C153  C     C_R   0.538602 0.532949 0.007049 -0.217945
C154  C     C_R   0.007213 0.656234 0.478717 -0.169827
C155  C     C_R   0.539412 0.951151 0.707996 -0.166837
C156  C     C_R   0.656347 0.474208 0.008663 -0.169180
C157  C     C_R   0.999811 0.488181 0.660516 -0.173753
C158  C     C_R   0.453150 0.636514 0.013688 -0.178530
C159  C     C_R   0.727263 0.925652 0.541807 -0.182746
C160  C     C_R   0.976928 0.685101 0.450950 -0.172148
C161  C     C_R   0.490373 0.943188 0.713155 -0.183151
C162  C     C_R   0.684940 0.447056 0.978080 -0.169365
C163  C     C_R   0.970267 0.458948 0.688516 -0.172439
C164  C     C_R   0.424996 0.666939 0.984956 -0.169506
C165  C     C_R   0.734923 0.920153 0.492875 -0.157974
C166  C     C_R   0.940948 0.182457 0.941028 0.144690
C167  C     C_R   0.940919 0.940705 0.182755 0.144640
C168  C     C_R   0.185482 0.941562 0.941841 0.143548
C169  C     C_R   0.940868 0.664543 0.422402 0.142550
C170  C     C_R   0.471771 0.897161 0.706419 0.148694
C171  C     C_R   0.663933 0.418429 0.942493 0.141006
C172  C     C_R   0.938523 0.426515 0.666788 0.143651
C173  C     C_R   0.430316 0.666700 0.934782 0.141619
C174  C     C_R   0.696380 0.908569 0.462243 0.146819
C175  C     C_R   0.936873 0.614299 0.420501 -0.168212
C176  C     C_R   0.502900 0.858644 0.696307 -0.163431
C177  C     C_R   0.613513 0.415262 0.939757 -0.170518
C178  C     C_R   0.937709 0.422622 0.616542 -0.171046
C179  C     C_R   0.463774 0.635559 0.913687 -0.171421
C180  C     C_R   0.650000 0.902906 0.481018 -0.182113
C181  C     C_R   0.967893 0.585157 0.447812 -0.178803
C182  C     C_R   0.552223 0.866451 0.691864 -0.187405
C183  C     C_R   0.584614 0.441829 0.971246 -0.179321
C184  C     C_R   0.968239 0.451130 0.588401 -0.177534
C185  C     C_R   0.492605 0.605994 0.942338 -0.173494
C186  C     C_R   0.642066 0.909583 0.529970 -0.171697
C187  C     C_R   0.002782 0.605879 0.478071 0.136405
C188  C     C_R   0.570801 0.912967 0.696819 0.138644
C189  C     C_R   0.605733 0.472890 0.005133 0.134884
C190  C     C_R   0.999155 0.484798 0.610055 0.135350
C191  C     C_R   0.487711 0.606126 0.992712 0.135512
C192  C     C_R   0.680775 0.920659 0.560806 0.136298
C193  C     C_R   0.130428 0.654794 0.594138 -0.168316
C194  C     C_R   0.648446 0.068954 0.702871 -0.166340
C195  C     C_R   0.657582 0.596801 0.125929 -0.170172
C196  C     C_R   0.163260 0.583824 0.633175 -0.179282
C197  C     C_R   0.585676 0.636194 0.155645 -0.177518
C198  C     C_R   0.732500 0.059747 0.680365 -0.183039
C199  C     C_R   0.158048 0.683774 0.623919 -0.172335
C200  C     C_R   0.654954 0.118120 0.708121 -0.178635
C201  C     C_R   0.685976 0.626905 0.153820 -0.168788
C202  C     C_R   0.190301 0.613121 0.663846 -0.168749
C203  C     C_R   0.614356 0.667048 0.183061 -0.167084
C204  C     C_R   0.738785 0.109008 0.684858 -0.156163
C205  C     C_R   0.187127 0.663384 0.659944 0.141882
C206  C     C_R   0.699966 0.138457 0.698636 0.145191
C207  C     C_R   0.664796 0.662946 0.181814 0.140442
C208  C     C_R   0.131773 0.604359 0.598837 0.134886
C209  C     C_R   0.687181 0.039360 0.688962 0.136539
C210  C     C_R   0.607058 0.601387 0.125859 0.135673
C211  C     C_R   0.573363 0.577387 0.513246 0.095862
C212  C     C_R   0.508462 0.575866 0.572518 0.097251
C213  C     C_R   0.576516 0.520523 0.580412 0.093938
C214  C     C_R   0.597035 0.540613 0.538798 -0.218829
C215  C     C_R   0.527589 0.592419 0.528684 -0.230210
C216  C     C_R   0.531911 0.537994 0.596666 -0.218131
C217  C     C_R   0.000176 0.123409 0.999342 0.145225
C218  C     C_R   0.000101 0.998623 0.123734 0.145133
C219  C     C_R   0.125524 0.999272 0.999905 0.144706
C220  C     C_R   0.635630 0.585782 0.447652 -0.178186
C221  C     C_R   0.473502 0.655603 0.594345 -0.168184
C222  C     C_R   0.605238 0.491991 0.661202 -0.173869
C223  C     C_R   0.636032 0.452918 0.589842 -0.178631
C224  C     C_R   0.440689 0.584473 0.632731 -0.179840
C225  C     C_R   0.595953 0.657027 0.478013 -0.170178
C226  C     C_R   0.666667 0.614764 0.420466 -0.166922
C227  C     C_R   0.446518 0.684431 0.624826 -0.173125
C228  C     C_R   0.634993 0.463288 0.689802 -0.171376
C229  C     C_R   0.666647 0.424892 0.618519 -0.169795
C230  C     C_R   0.414283 0.613604 0.664094 -0.169800
C231  C     C_R   0.626278 0.685742 0.450382 -0.169662
C232  C     C_R   0.662563 0.665027 0.422204 0.140324
C233  C     C_R   0.417786 0.663833 0.660834 0.142733
C234  C     C_R   0.666367 0.430075 0.668677 0.141465
C235  C     C_R   0.600588 0.606670 0.477624 0.136003
C236  C     C_R   0.471881 0.605168 0.598409 0.135179
C237  C     C_R   0.605407 0.487232 0.610842 0.135476
C238  C     C_R   0.907124 0.752790 0.209705 -0.126674
C239  C     C_R   0.209843 0.907509 0.751706 -0.120160
C240  C     C_R   0.742887 0.224246 0.917232 -0.124832
C241  C     C_R   0.908862 0.211284 0.751734 -0.128303
C242  C     C_R   0.209886 0.752183 0.907310 -0.130495
C243  C     C_R   0.743243 0.916239 0.222318 -0.127042
C244  C     C_R   0.686925 0.860895 0.222870 -0.119816
C245  C     C_R   0.210005 0.696045 0.851830 -0.120152
C246  C     C_R   0.855382 0.213019 0.693731 -0.122384
C247  C     C_R   0.685858 0.226075 0.862831 -0.129790
C248  C     C_R   0.209818 0.851536 0.696115 -0.128906
C249  C     C_R   0.851665 0.696455 0.209901 -0.117626
C250  C     C_R   0.741593 0.686395 0.225423 -0.139352
C251  C     C_R   0.226700 0.741506 0.685543 -0.145063
C252  C     C_R   0.693822 0.212331 0.750166 -0.114666
C253  C     C_R   0.747049 0.215155 0.692158 -0.135464
C254  C     C_R   0.227028 0.685551 0.740625 -0.128413
C255  C     C_R   0.686339 0.742463 0.224015 -0.115865
C256  C     C_R   0.861145 0.917238 0.224204 -0.119173
C257  C     C_R   0.226723 0.862365 0.917971 -0.141992
C258  C     C_R   0.917650 0.225704 0.862492 -0.144146
C259  C     C_R   0.861160 0.224026 0.917234 -0.119800
C260  C     C_R   0.226603 0.917945 0.862408 -0.128352
C261  C     C_R   0.917665 0.862394 0.225973 -0.143755
H1    H     H_    0.891445 0.179944 0.001484 0.107352
H2    H     H_    0.999287 0.888701 0.177341 0.107881
H3    H     H_    0.181796 0.001495 0.891426 0.107486
H4    H     H_    0.891663 0.001498 0.180471 0.107335
H5    H     H_    0.999593 0.177320 0.889471 0.107768
H6    H     H_    0.181345 0.890477 0.001190 0.107614
H7    H     H_    0.762687 0.947051 0.390900 0.090134
H8    H     H_    0.383800 0.760477 0.950394 0.087209
H9    H     H_    0.952542 0.377646 0.757599 0.093748
H10   H     H_    0.757323 0.374048 0.953037 0.088351
H11   H     H_    0.403835 0.937316 0.773636 0.092056
H12   H     H_    0.952841 0.757170 0.376459 0.091492
H13   H     H_    0.522570 0.086244 0.973159 0.106616
H14   H     H_    0.861191 0.631153 0.973316 0.114846
H15   H     H_    0.985629 0.883364 0.615976 0.115438
H16   H     H_    0.528903 0.969511 0.074482 0.113966
H17   H     H_    0.862983 0.976792 0.625548 0.106923
H18   H     H_    0.977090 0.620066 0.871852 0.111007
H19   H     H_    0.598680 0.908965 0.204890 0.107652
H20   H     H_    0.139826 0.627062 0.888313 0.111998
H21   H     H_    0.888539 0.140399 0.626931 0.112542
H22   H     H_    0.597389 0.212343 0.913063 0.107439
H23   H     H_    0.114341 0.825988 0.690427 0.118815
H24   H     H_    0.881089 0.630140 0.137082 0.109067
H25   H     H_    0.673807 0.030640 0.097897 0.109658
H26   H     H_    0.028837 0.762804 0.923114 0.119420
H27   H     H_    0.914764 0.031223 0.766860 0.120377
H28   H     H_    0.672353 0.102399 0.032703 0.108983
H29   H     H_    0.054377 0.993519 0.701737 0.117205
H30   H     H_    0.924217 0.766561 0.029321 0.118668
H31   H     H_    0.546888 0.962736 0.157557 0.111958
H32   H     H_    0.054462 0.610999 0.901655 0.116918
H33   H     H_    0.894998 0.054417 0.613965 0.110504
H34   H     H_    0.545412 0.165616 0.966747 0.112610
H35   H     H_    0.028601 0.842030 0.679135 0.118162
H36   H     H_    0.891405 0.616134 0.051497 0.107595
H37   H     H_    0.396843 0.912869 0.004520 0.109334
H38   H     H_    0.909307 0.488284 0.821246 0.118127
H39   H     H_    0.886782 0.977436 0.462228 0.112010
H40   H     H_    0.461991 0.971873 0.876292 0.114708
H41   H     H_    0.918691 0.826852 0.484987 0.117102
H42   H     H_    0.881932 0.467284 0.972843 0.110200
H43   H     H_    0.446463 0.965960 0.053959 0.112811
H44   H     H_    0.916016 0.574794 0.833573 0.119211
H45   H     H_    0.895181 0.991282 0.548148 0.109259
H46   H     H_    0.513489 0.022281 0.924925 0.116161
H47   H     H_    0.925316 0.840253 0.571192 0.117752
H48   H     H_    0.890675 0.552947 0.985776 0.108243
H49   H     H_    0.970540 0.529443 0.528775 0.113628
H50   H     H_    0.617708 0.877142 0.620483 0.110789
H51   H     H_    0.525124 0.518594 0.973583 0.107514
H52   H     H_    0.909684 0.597559 0.398254 0.107657
H53   H     H_    0.489239 0.822429 0.692473 0.118544
H54   H     H_    0.596476 0.392760 0.913067 0.107985
H55   H     H_    0.913755 0.397451 0.599101 0.108926
H56   H     H_    0.468781 0.635252 0.875036 0.116552
H57   H     H_    0.620080 0.893466 0.457843 0.111450
H58   H     H_    0.032401 0.673785 0.502597 0.108706
H59   H     H_    0.552225 0.987754 0.710462 0.108345
H60   H     H_    0.674376 0.498516 0.032974 0.109134
H61   H     H_    0.021743 0.514649 0.678589 0.115368
H62   H     H_    0.448216 0.637077 0.052325 0.113222
H63   H     H_    0.757703 0.933789 0.564834 0.120037
H64   H     H_    0.963810 0.546511 0.446145 0.111494
H65   H     H_    0.575646 0.836502 0.683306 0.119330
H66   H     H_    0.545811 0.439216 0.967953 0.112635
H67   H     H_    0.967229 0.447243 0.549674 0.112593
H68   H     H_    0.519842 0.584324 0.924921 0.117579
H69   H     H_    0.605543 0.906933 0.543411 0.116424
H70   H     H_    0.154436 0.722424 0.620452 0.108779
H71   H     H_    0.624851 0.140282 0.719255 0.110314
H72   H     H_    0.724821 0.623333 0.151673 0.111325
H73   H     H_    0.213051 0.596471 0.690949 0.107549
H74   H     H_    0.597121 0.694207 0.204855 0.108253
H75   H     H_    0.774388 0.123793 0.678811 0.125140
H76   H     H_    0.105773 0.672473 0.569489 0.108111
H77   H     H_    0.612675 0.054427 0.708230 0.107718
H78   H     H_    0.675673 0.571666 0.102477 0.109142
H79   H     H_    0.165923 0.545207 0.637412 0.112432
H80   H     H_    0.546865 0.640378 0.156826 0.111754
H81   H     H_    0.762809 0.037653 0.669604 0.119784
H82   H     H_    0.633498 0.530750 0.529011 0.114113
H83   H     H_    0.508891 0.620474 0.508864 0.110221
H84   H     H_    0.517532 0.524669 0.630331 0.107395
H85   H     H_    0.639861 0.547121 0.446173 0.111791
H86   H     H_    0.497952 0.673314 0.569686 0.108472
H87   H     H_    0.583404 0.519028 0.678643 0.117209
H88   H     H_    0.636639 0.448081 0.551218 0.113129
H89   H     H_    0.437876 0.545831 0.636457 0.112672
H90   H     H_    0.570611 0.674702 0.501643 0.109016
H91   H     H_    0.937687 0.774694 0.200354 0.094179
H92   H     H_    0.200213 0.937879 0.773515 0.095257
H93   H     H_    0.760607 0.224576 0.951875 0.086972
H94   H     H_    0.939211 0.201860 0.774109 0.094123
H95   H     H_    0.200563 0.773858 0.937870 0.095430
H96   H     H_    0.760512 0.951001 0.222093 0.088221
H97   H     H_    0.757473 0.650953 0.228108 0.086912
H98   H     H_    0.229456 0.757970 0.650315 0.090941
H99   H     H_    0.663722 0.202633 0.772639 0.094168
H100  H     H_    0.763491 0.210918 0.657438 0.088539
H101  H     H_    0.229117 0.650307 0.757092 0.082370
H102  H     H_    0.651665 0.760239 0.223347 0.084479
H103  H     H_    0.940565 0.830706 0.400213 0.091356
H104  H     H_    0.377391 0.952345 0.845599 0.089402
H105  H     H_    0.828858 0.403677 0.936930 0.093120
H106  H     H_    0.937647 0.403571 0.829337 0.092750
H107  H     H_    0.381521 0.842760 0.951361 0.085320
H108  H     H_    0.837053 0.943113 0.397482 0.084393
N1    N     N_R   0.006840 0.064807 0.065380 -0.117041
N2    N     N_R   0.066565 0.005186 0.065611 -0.117329
N3    N     N_R   0.066614 0.065093 0.006022 -0.117203
N4    N     N_R   0.877910 0.758550 0.247710 -0.040660
N5    N     N_R   0.247710 0.877910 0.758550 -0.042918
N6    N     N_R   0.758550 0.247710 0.877910 -0.038702
N7    N     N_R   0.877910 0.247710 0.758550 -0.039507
N8    N     N_R   0.247710 0.758550 0.877910 -0.041284
N9    N     N_R   0.758550 0.877910 0.247710 -0.040030
N10   N     N_R   0.725540 0.845080 0.247770 -0.040986
N11   N     N_R   0.247770 0.725540 0.845080 -0.042531
N12   N     N_R   0.845080 0.247770 0.725540 -0.039770
N13   N     N_R   0.725540 0.247770 0.845080 -0.039173
N14   N     N_R   0.247770 0.845080 0.725540 -0.041305
N15   N     N_R   0.845080 0.725540 0.247770 -0.042245
N16   N     N_R   0.758420 0.725600 0.247730 -0.037962
N17   N     N_R   0.247730 0.758420 0.725600 -0.035968
N18   N     N_R   0.725600 0.247730 0.758420 -0.041511
N19   N     N_R   0.758420 0.247730 0.725600 -0.038983
N20   N     N_R   0.247730 0.725600 0.758420 -0.037406
N21   N     N_R   0.725600 0.758420 0.247730 -0.039221
N22   N     N_R   0.845030 0.878030 0.247760 -0.039016
N23   N     N_R   0.247760 0.845030 0.878030 -0.037108
N24   N     N_R   0.878030 0.247760 0.845030 -0.038414
N25   N     N_R   0.845030 0.247760 0.878030 -0.039488
N26   N     N_R   0.247760 0.878030 0.845030 -0.037568
N27   N     N_R   0.878030 0.845030 0.247760 -0.038049
N28   N     N_R   0.877970 0.845080 0.355840 -0.039489
N29   N     N_R   0.355840 0.877970 0.845080 -0.037528
N30   N     N_R   0.845080 0.355840 0.877970 -0.042135
N31   N     N_R   0.877970 0.355840 0.845080 -0.040264
N32   N     N_R   0.355840 0.845080 0.877970 -0.038745
N33   N     N_R   0.845080 0.877970 0.355840 -0.039683
N34   N     N_R   0.725530 0.758500 0.355850 -0.038848
N35   N     N_R   0.355850 0.725530 0.758500 -0.037611
N36   N     N_R   0.758500 0.355850 0.725530 -0.040890
N37   N     N_R   0.725530 0.355850 0.758500 -0.040406
N38   N     N_R   0.355850 0.758500 0.725530 -0.036379
N39   N     N_R   0.758500 0.725530 0.355850 -0.039606
N40   N     N_R   0.845000 0.725590 0.355820 -0.039675
N41   N     N_R   0.355820 0.845000 0.725590 -0.041203
N42   N     N_R   0.725590 0.355820 0.845000 -0.038259
N43   N     N_R   0.845000 0.355820 0.725590 -0.039198
N44   N     N_R   0.355820 0.725590 0.845000 -0.040481
N45   N     N_R   0.725590 0.845000 0.355820 -0.040973
N46   N     N_R   0.758510 0.877990 0.355880 -0.038572
N47   N     N_R   0.355880 0.758510 0.877990 -0.040981
N48   N     N_R   0.877990 0.355880 0.758510 -0.037235
N49   N     N_R   0.758510 0.355880 0.877990 -0.037717
N50   N     N_R   0.355880 0.877990 0.758510 -0.042632
N51   N     N_R   0.877990 0.758510 0.355880 -0.037893
Ni1   Ni    Ni4+2 0.877260 0.801820 0.301780 0.214120
Ni2   Ni    Ni4+2 0.301780 0.877260 0.801820 0.212146
Ni3   Ni    Ni4+2 0.801820 0.301780 0.877260 0.212013
Ni4   Ni    Ni4+2 0.877260 0.301780 0.801820 0.214122
Ni5   Ni    Ni4+2 0.301780 0.801820 0.877260 0.210525
Ni6   Ni    Ni4+2 0.801820 0.877260 0.301780 0.213182
Ni7   Ni    Ni4+2 0.726220 0.801790 0.301810 0.209842
Ni8   Ni    Ni4+2 0.301810 0.726220 0.801790 0.210666
Ni9   Ni    Ni4+2 0.801790 0.301810 0.726220 0.210748
Ni10  Ni    Ni4+2 0.726220 0.301810 0.801790 0.210022
Ni11  Ni    Ni4+2 0.301810 0.801790 0.726220 0.214257
Ni12  Ni    Ni4+2 0.801790 0.726220 0.301810 0.209837
H109  H     H_    0.619074 0.092873 0.093740 0.110683
H110  H     H_    0.984914 0.722173 0.985857 0.115954
H111  H     H_    0.976610 0.985051 0.730194 0.111717
H112  H     H_    0.724705 0.978726 0.146244 0.113077
H113  H     H_    0.114596 0.778221 0.912315 0.121554
H114  H     H_    0.910268 0.117729 0.779347 0.121742
H115  H     H_    0.723143 0.150483 0.981411 0.112670
H116  H     H_    0.139639 0.976826 0.715554 0.111467
H117  H     H_    0.915511 0.780104 0.115480 0.119759
H118  H     H_    0.094382 0.619505 0.509374 0.110667
H119  H     H_    0.631817 0.976182 0.737343 0.115665
H120  H     H_    0.621694 0.510203 0.094261 0.109574
H121  H     H_    0.086637 0.523391 0.630569 0.106815
H122  H     H_    0.531172 0.634138 0.074249 0.114174
H123  H     H_    0.716744 0.994302 0.609984 0.114166
H124  H     H_    0.942303 0.129147 0.051512 0.117529
H125  H     H_    0.050009 0.938493 0.126951 0.118000
H126  H     H_    0.130466 0.051014 0.941320 0.117537
H127  H     H_    0.942481 0.051210 0.129698 0.117489
H128  H     H_    0.050366 0.126885 0.939604 0.117928
H129  H     H_    0.130061 0.940069 0.050980 0.117719
H130  H     H_    0.980374 0.723771 0.453585 0.108654
H131  H     H_    0.466844 0.973176 0.721333 0.109945
H132  H     H_    0.723760 0.450532 0.980702 0.111630
H133  H     H_    0.970942 0.463001 0.727263 0.109712
H134  H     H_    0.398883 0.690301 0.001925 0.109259
H135  H     H_    0.771416 0.923252 0.479338 0.125172
H136  H     H_    0.693983 0.597878 0.398480 0.108059
H137  H     H_    0.450254 0.723088 0.621819 0.108462
H138  H     H_    0.634639 0.468197 0.728438 0.116723
H139  H     H_    0.690181 0.398978 0.601521 0.109093
H140  H     H_    0.391683 0.596882 0.691133 0.107860
H141  H     H_    0.622683 0.724421 0.452869 0.112197
H142  H     H_    0.652133 0.843536 0.222398 0.085580
H143  H     H_    0.200397 0.665781 0.829874 0.096378
H144  H     H_    0.837673 0.206515 0.660040 0.083801
H145  H     H_    0.650360 0.228180 0.846863 0.082810
H146  H     H_    0.200543 0.830002 0.665442 0.093939
H147  H     H_    0.829816 0.666067 0.200325 0.091916
H148  H     H_    0.843234 0.951719 0.224195 0.081960
H149  H     H_    0.229538 0.845774 0.953103 0.084204
H150  H     H_    0.953056 0.228743 0.846695 0.086652
H151  H     H_    0.843277 0.223999 0.951683 0.082077
H152  H     H_    0.229172 0.953054 0.845821 0.081692
H153  H     H_    0.953060 0.846394 0.229092 0.086811
H154  H     H_    0.650919 0.758186 0.376866 0.086469
H155  H     H_    0.377982 0.651087 0.759136 0.083141
H156  H     H_    0.760463 0.383521 0.652882 0.086910
H157  H     H_    0.653412 0.384491 0.762028 0.090601
H158  H     H_    0.373989 0.757445 0.650346 0.092218
H159  H     H_    0.759933 0.651812 0.380350 0.084568
H160  H     H_    0.843447 0.651948 0.380505 0.084660
H161  H     H_    0.404020 0.828594 0.666686 0.093734
H162  H     H_    0.650964 0.378273 0.844471 0.083324
H163  H     H_    0.842822 0.381965 0.652246 0.085652
H164  H     H_    0.384680 0.653765 0.841665 0.090966
H165  H     H_    0.661652 0.833092 0.398902 0.090571

loop_
_geom_bond_atom_site_label_1
_geom_bond_atom_site_label_2
_ccdc_geom_bond_type
C101  C107  A    
C261  H153  S    
C96   C102  A    
C240  N6    A    
C2    N2    A    
N8    Ni5   S    
C181  C187  A    
C143  C209  S    
C170  C176  A    
C176  C182  A    
N40   Ni12  S    
C252  H99   S    
N41   Ni11  S    
N31   Ni4   S    
N51   Ni1   S    
C23   H155  S    
C239  N5    A    
C9    C88   S    
C1    N1    A    
C173  C179  A    
C247  N13   A    
C245  H143  S    
C216  H84   S    
C78   C108  A    
C32   N44   A    
C113  H2    S    
C229  C234  A    
C198  C209  A    
C114  H3    S    
N8    N11   A    
C80   C86   A    
C183  H66   S    
C162  C171  A    
C18   H105  S    
N4    Ni1   S    
C71   H14   S    
N16   Ni12  S    
C142  C208  S    
C160  H130  S    
C165  H135  S    
C248  N14   A    
C29   H161  S    
C193  C208  A    
C3    N2    A    
C69   H111  S    
C116  C166  A    
C35   H8    S    
C250  H97   S    
C183  C189  A    
C68   H110  S    
C53   C113  A    
C55   C218  A    
C251  N17   A    
N14   Ni11  S    
C227  C233  A    
N15   Ni12  S    
C79   C109  A    
N40   N51   A    
C10   C255  A    
C137  C146  A    
N50   Ni2   S    
N38   Ni11  S    
C45   C234  S    
C43   C232  S    
C73   H16   S    
C193  C199  A    
C225  H90   S    
C29   N41   A    
C184  H67   S    
C142  C148  A    
C56   H128  S    
C158  H62   S    
C7    C246  A    
C7    C241  A    
C56   C116  A    
C124  C130  A    
C164  C173  A    
C87   H117  S    
C118  C124  A    
C163  C172  A    
C22   H154  S    
C149  H122  S    
C97   C103  A    
N28   N33   A    
C16   C40   A    
N37   Ni10  S    
C63   C71   A    
C8    C245  A    
N21   Ni7   S    
N33   Ni6   S    
C221  C236  A    
C198  C204  A    
N17   N20   A    
C33   C51   A    
C185  H68   S    
N18   N19   A    
C79   C85   A    
C261  N27   A    
C52   H124  S    
C256  N22   A    
C38   N50   A    
C150  H123  S    
C20   H107  S    
C258  N24   A    
C159  C192  A    
C14   C257  A    
C195  C201  A    
C1    N3    A    
C194  H77   S    
N24   N25   A    
C221  C227  A    
C100  C106  A    
C221  H86   S    
C120  C135  A    
C100  H31   S    
N36   N37   A    
C104  C110  A    
C7    C90   S    
C80   H29   S    
C36   N48   A    
C203  C207  A    
C226  C232  A    
C54   C114  A    
C211  C235  S    
C98   H23   S    
C24   H156  S    
C63   C111  S    
C96   H21   S    
N48   Ni4   S    
C253  H100  S    
C94   H19   S    
N49   Ni3   S    
N39   Ni12  S    
C58   C67   A    
C197  H80   S    
N23   Ni5   S    
C246  H144  S    
C67   H109  S    
C2    C218  S    
C36   H9    S    
C257  H149  S    
N9    N10   A    
C254  N20   A    
C25   N37   A    
C101  H32   S    
N26   Ni2   S    
C199  C205  A    
C139  C190  S    
N12   Ni9   S    
C222  H87   S    
C26   C44   A    
C180  H57   S    
C28   C46   A    
C34   C51   A    
C144  C149  A    
C164  H134  S    
C29   C47   A    
C30   C48   A    
C30   N42   A    
C116  H5    S    
C18   C42   A    
N44   Ni8   S    
N45   Ni7   S    
C241  H94   S    
C52   C112  A    
C117  C168  A    
N30   N31   A    
C66   C74   A    
C11   C254  A    
C148  H121  S    
C201  H72   S    
C203  H74   S    
C194  C200  A    
N9    Ni6   S    
C215  H83   S    
C195  H78   S    
C42   C131  S    
C244  N10   A    
C126  C132  A    
C19   C42   A    
C175  C181  A    
C137  C188  S    
C156  C189  A    
C121  H46   S    
C122  H47   S    
C76   H25   S    
C141  C192  S    
C84   C90   A    
C77   H26   S    
C144  C147  A    
C78   H27   S    
C212  C236  S    
N34   Ni7   S    
C141  C150  A    
C247  H145  S    
C83   C89   A    
C14   C168  S    
C88   C94   A    
C139  C148  A    
C119  C134  A    
C24   N36   A    
C16   H103  S    
C62   C72   A    
C22   N34   A    
C223  C237  A    
C76   C82   A    
C20   N32   A    
C165  C174  A    
C242  N8    A    
C248  H146  S    
N5    Ni2   S    
C59   C107  S    
C159  C165  A    
N25   Ni3   S    
C10   C250  A    
C239  H92   S    
C196  C208  A    
C51   C174  S    
C55   H127  S    
C48   C171  S    
C125  C131  A    
C22   C43   A    
N11   Ni8   S    
C212  C215  A    
C94   C100  A    
C28   H160  S    
C220  C226  A    
C15   C166  S    
C182  C188  A    
C253  N19   A    
C180  C186  A    
C259  H151  S    
C26   N38   A    
C184  C190  A    
C138  C189  S    
C5    C248  A    
C9    C243  A    
C174  C180  A    
C124  H37   S    
C169  C175  A    
C172  C178  A    
C63   C68   A    
C74   H17   S    
C76   C106  A    
C12   C253  A    
C119  H44   S    
C60   C108  S    
C49   C172  S    
C244  H142  S    
C154  H58   S    
C90   C96   A    
C175  H52   S    
C140  C153  A    
C222  C237  A    
N34   N39   A    
C14   C260  A    
C44   C233  S    
C117  H6    S    
C39   H12   S    
C21   C40   A    
C60   C69   A    
C82   C88   A    
C249  H147  S    
C226  H136  S    
N35   Ni8   S    
N36   Ni9   S    
N19   Ni9   S    
C161  H131  S    
C242  H95   S    
C4    C93   S    
C223  C229  A    
C211  C214  A    
C186  H69   S    
C140  C191  S    
C4    C238  A    
C171  C177  A    
C8    C89   S    
C37   H10   S    
C38   H11   S    
C140  C149  A    
N24   Ni4   S    
C95   C101  A    
C141  C152  A    
C17   N29   A    
C61   C70   A    
C143  C146  A    
C70   H13   S    
N46   Ni6   S    
C25   C45   A    
C220  C235  A    
C177  H54   S    
N35   N38   A    
C178  H55   S    
C144  C210  S    
C156  H60   S    
C54   C219  A    
C102  H33   S    
C213  C214  A    
C155  C161  A    
C83   H113  S    
C50   C173  S    
C26   H158  S    
C4    C249  A    
C121  C127  A    
C97   H22   S    
C41   C130  S    
C120  C126  A    
C33   N45   A    
N22   Ni6   S    
C157  C190  A    
C163  H133  S    
C197  C210  A    
C214  H82   S    
C252  N18   A    
C202  C205  A    
C17   H104  S    
C160  C169  A    
C137  C152  A    
C19   H106  S    
C147  H120  S    
C257  N23   A    
C93   C99   A    
C65   C134  S    
N13   Ni10  S    
C145  H118  S    
C200  H71   S    
C30   H162  S    
C84   H114  S    
C105  C111  A    
C238  H91   S    
C2    N1    A    
C142  C145  A    
C27   H159  S    
C31   C49   A    
C25   H157  S    
C56   C217  A    
C245  N11   A    
C185  C191  A    
N42   N49   A    
N43   Ni9   S    
C6    C247  A    
C251  H98   S    
C195  C210  A    
C82   H112  S    
N7    N12   A    
C123  C134  A    
C177  C183  A    
C13   C256  A    
C23   C44   A    
C62   C69   A    
C12   C206  S    
C89   C95   A    
C27   N39   A    
C246  N12   A    
C224  C230  A    
N29   Ni2   S    
N41   N50   A    
C128  H41   S    
C222  C228  A    
C112  C166  A    
C52   C217  A    
C123  H48   S    
C259  N25   A    
C91   C97   A    
C103  H34   S    
C81   H30   S    
N30   Ni3   S    
C81   C87   A    
C15   C258  A    
C61   C67   A    
C119  C125  A    
C138  C153  A    
C18   N30   A    
N44   N47   A    
C224  H89   S    
C3    N3    A    
C159  H63   S    
C196  H79   S    
C162  H132  S    
C136  C151  A    
N7    Ni4   S    
C57   C117  A    
C213  C216  A    
N27   Ni1   S    
C64   C133  S    
C129  H42   S    
C5    C239  A    
C72   H15   S    
C230  H140  S    
C115  C167  A    
C31   H163  S    
C113  C167  A    
C114  C168  A    
C179  C185  A    
C104  H35   S    
C154  C187  A    
C193  H76   S    
C12   C252  A    
C255  N21   A    
C103  C109  A    
C34   N46   A    
C224  C236  A    
C158  C191  A    
C260  N26   A    
C55   C115  A    
C122  C128  A    
C254  H101  S    
N4    N15   A    
C122  C135  A    
C66   C135  S    
C198  H81   S    
N6    N13   A    
C27   C43   A    
C146  H119  S    
C3    C219  S    
C229  H139  S    
C258  H150  S    
C120  H45   S    
C1    C217  S    
C36   C49   A    
C115  H4    S    
C211  C215  A    
C176  H53   S    
C250  N16   A    
N6    Ni3   S    
C61   C109  S    
C20   C41   A    
C85   C91   A    
C92   C98   A    
C199  H70   S    
N10   Ni7   S    
C225  C231  A    
C24   C45   A    
C34   H7    S    
N20   Ni8   S    
C213  C237  S    
C155  C188  A    
C28   N40   A    
C125  H38   S    
C13   C167  S    
C126  H39   S    
C77   C83   A    
C6    C91   S    
C87   C93   A    
C33   H165  S    
C230  C233  A    
C202  H73   S    
C139  C151  A    
C228  H138  S    
C57   H129  S    
C143  C150  A    
C81   C111  A    
C66   C72   A    
C260  H152  S    
N47   Ni5   S    
C102  C108  A    
C64   C70   A    
C23   N35   A    
C157  C163  A    
C228  C234  A    
C136  C145  A    
C179  H56   S    
C153  H51   S    
C158  C164  A    
C181  H64   S    
C21   N33   A    
C16   N28   A    
C40   C132  S    
C156  C162  A    
C123  C129  A    
C152  H50   S    
N29   N32   A    
C105  H36   S    
C256  H148  S    
N23   N26   A    
C128  C132  A    
C99   H24   S    
C201  C207  A    
N22   N27   A    
C99   C105  A    
N32   Ni5   S    
C243  H96   S    
C240  H93   S    
C225  C235  A    
C212  C216  A    
C77   C107  A    
C155  H59   S    
C57   C219  A    
C95   H20   S    
C39   N51   A    
C65   C71   A    
C6    C240  A    
C11   C251  A    
C75   H18   S    
C37   N49   A    
C58   C106  S    
C10   C207  S    
C32   H164  S    
C154  C160  A    
C19   N31   A    
C54   H126  S    
C78   C84   A    
C59   C68   A    
C53   H125  S    
C62   C110  S    
C8    C242  A    
C138  C147  A    
C64   C73   A    
C35   C50   A    
C31   N43   A    
C118  H43   S    
C243  N9    A    
C223  H88   S    
C37   C48   A    
C220  H85   S    
C32   C50   A    
C38   C47   A    
C118  C133  A    
C79   H28   S    
C39   C46   A    
C161  C170  A    
N42   Ni10  S    
C204  C206  A    
N43   N48   A    
C136  C187  S    
N5    N14   A    
C196  C202  A    
C59   C75   A    
C47   C170  S    
C15   C259  A    
C238  N4    A    
C249  N15   A    
C53   C218  A    
C35   N47   A    
C200  C206  A    
C255  H102  S    
C127  H40   S    
N17   Ni11  S    
C241  N7    A    
C11   C205  S    
C157  H61   S    
N18   Ni10  S    
N28   Ni1   S    
C182  H65   S    
C46   C169  S    
C231  H141  S    
C127  C130  A    
C85   H115  S    
C86   C92   A    
C194  C209  A    
C86   H116  S    
N45   N46   A    
C227  H137  S    
C98   C104  A    
C60   C74   A    
C197  C203  A    
C186  C192  A    
C17   C41   A    
C5    C92   S    
N16   N21   A    
C204  H75   S    
C151  H49   S    
C21   H108  S    
C80   C110  A    
C231  C232  A    
C121  C133  A    
C9    C244  A    
C13   C261  A    
C178  C184  A    
C65   C75   A    
C58   C73   A    
C112  H1    S    
C129  C131  A    
