data_mof_unit_36259.cif
_audit_creation_date              2012-12-10T18:13:33-0500
_audit_creation_method            fapswitch 2.2
_symmetry_space_group_name_H-M    P1
_symmetry_Int_Tables_number       1
_space_group_crystal_system       triclinic
_cell_length_a                    12.599578
_cell_length_b                    13.135
_cell_length_c                    17.011732
_cell_angle_alpha                 91.944986
_cell_angle_beta                  97.483735
_cell_angle_gamma                 96.971793
_cell_volume                      2767.20098629

loop_
_atom_site_label
_atom_site_type_symbol
_atom_type_description
_atom_site_fract_x
_atom_site_fract_y
_atom_site_fract_z
_atom_type_partial_charge
C1    C     C_R   0.559404 0.692219 0.513243 1.022331
C2    C     C_R   0.484639 0.527183 0.734467 -0.071423
C3    C     C_R   0.264541 0.058877 0.492653 -0.079674
C4    C     C_R   0.515115 0.500282 0.350680 0.966417
C5    C     C_R   0.401757 0.199690 0.480151 -0.084750
C6    C     C_R   0.698988 0.842467 0.502490 -0.097771
C7    C     C_R   0.709587 0.929906 0.456222 -0.079658
C8    C     C_R   0.617946 0.979976 0.433727 0.416927
C9    C     C_R   0.525890 0.959263 0.473978 -0.089065
C10   C     C_R   0.514393 0.870689 0.517819 -0.082327
C11   C     C_R   0.446778 0.026204 0.475347 0.116731
C12   C     C_R   0.584789 0.586330 0.235927 0.350906
C13   C     C_R   0.342950 0.990505 0.494854 0.078366
C14   C     C_R   0.327309 0.894988 0.529510 -0.186761
C15   C     C_R   0.419783 0.848318 0.555329 0.369196
C16   C     C_R   0.440145 0.308726 0.489085 0.841281
C17   C     C_R   0.475716 0.131383 0.471839 -0.087030
C18   C     C_R   0.293988 0.162997 0.484808 -0.200866
C19   C     C_R   0.594816 0.804249 0.519276 -0.112601
C20   C     C_R   0.904788 0.355740 0.617028 0.358814
C21   C     C_R   0.205772 0.625320 0.403745 0.004749
C22   C     C_R   0.101351 0.653295 0.386098 -0.092128
C23   C     C_R   0.376553 0.524308 0.841603 -0.087670
C24   C     C_R   0.019984 0.606980 0.425830 -0.100802
C25   C     C_R   0.040588 0.533082 0.481985 -0.000959
C26   C     C_R   0.147000 0.507336 0.497358 0.247256
C27   C     C_R   0.958801 0.482339 0.522047 -0.039863
C28   C     C_R   0.487526 0.506569 0.650202 0.911709
C29   C     C_R   0.985084 0.407060 0.577111 0.047636
C30   C     C_R   0.090500 0.382151 0.589071 -0.166512
C31   C     C_R   0.169497 0.432019 0.550524 -0.211707
C32   C     C_R   0.851103 0.502582 0.508581 -0.034091
C33   C     C_R   0.797147 0.370399 0.592464 -0.057190
C34   C     C_R   0.385236 0.504671 0.762637 -0.165106
C35   C     C_R   0.525427 0.502466 0.267476 -0.127373
C36   C     C_R   0.473342 0.418367 0.219371 -0.224405
C37   C     C_R   0.477028 0.416418 0.138720 -0.070306
C38   C     C_R   0.531818 0.499161 0.105407 0.047275
C39   C     C_R   0.587136 0.584208 0.153229 -0.145531
C40   C     C_2   0.649515 0.671010 0.917458 0.422076
C41   C     C_2   0.219414 0.850435 0.548061 0.439143
C42   C     C_2   0.793382 0.791775 0.536559 0.500378
C43   C     C_2   0.813553 0.967029 0.428372 0.653997
C44   C     C_2   0.709168 0.300844 0.618635 0.598655
C45   C     C_R   0.576273 0.575824 0.785634 -0.037176
C46   C     C_2   0.291921 0.673363 0.361312 0.468274
C47   C     C_2   0.076545 0.732137 0.327653 0.549686
C48   C     C_2   0.684197 0.596135 0.758915 0.541146
C49   C     C_2   0.393063 0.629085 0.016731 0.530571
C50   C     C_2   0.644451 0.669635 0.115133 0.494676
C51   C     C_2   0.579193 0.422425 0.978469 0.492633
C52   C     C_R   0.564071 0.603937 0.864301 -0.094221
C53   C     C_R   0.465776 0.571197 0.892642 0.082106
C54   C     C_2   0.522625 0.498543 0.018711 -0.184790
C55   C     C_2   0.462818 0.564351 0.978138 -0.213180
H1    H     H_    0.428742 0.354418 0.244472 0.164743
H2    H     H_    0.301473 0.498856 0.863829 0.175525
H3    H     H_    0.434216 0.351710 0.101655 0.168102
H4    H     H_    0.625810 0.724413 0.959796 0.131008
H5    H     H_    0.210727 0.811724 0.602398 0.171825
H6    H     H_    0.786533 0.744704 0.587184 0.141972
H7    H     H_    0.485142 0.103132 0.263686 0.391177
H8    H     H_    0.859676 0.913755 0.401945 0.158492
H9    H     H_    0.392244 0.839689 0.764929 0.404840
H10   H     H_    0.648566 0.329946 0.649254 0.064253
H11   H     H_    0.072828 0.285383 0.794189 0.393178
H12   H     H_    0.234655 0.215290 0.489517 0.174258
H13   H     H_    0.348211 0.737235 0.389057 0.089822
H14   H     H_    0.139568 0.772246 0.298388 0.077371
H15   H     H_    0.752302 0.564621 0.790425 0.104546
H16   H     H_    0.381351 0.620822 0.078349 0.096722
H17   H     H_    0.711997 0.656075 0.084411 0.104740
H18   H     H_    0.516206 0.783639 0.280942 0.399930
H19   H     H_    0.564498 0.407895 0.914614 0.064947
H20   H     H_    0.183656 0.035960 0.505546 0.208584
H21   H     H_    0.559015 0.161154 0.470092 0.210459
H22   H     H_    0.314867 0.467863 0.723969 0.171101
H23   H     H_    0.113346 0.321178 0.626156 0.215149
H24   H     H_    0.824520 0.561128 0.471316 0.188112
H25   H     H_    0.941191 0.630093 0.411113 0.218768
H26   H     H_    0.247289 0.407867 0.562499 0.199485
N1    N     N_R   0.774070 0.445420 0.541180 -0.160195
N2    N     N_R   0.226730 0.554050 0.459240 -0.148572
O1    O     O_R   0.631480 0.627510 0.519670 -0.599786
O2    O     O_2   0.138406 0.853259 0.500691 -0.560991
O3    O     O_2   0.879213 0.801477 0.510031 -0.557587
O4    O     O_2   0.669926 0.154473 0.360147 -0.272928
O5    O     O_2   0.661840 0.992315 0.283382 -0.205321
O6    O     O_3   0.481233 0.054991 0.307092 -0.559758
O7    O     O_2   0.848306 0.058237 0.434490 -0.503498
O8    O     O_2   0.347356 0.696119 0.644019 -0.330324
O9    O     O_2   0.537999 0.768429 0.677486 -0.277696
O10   O     O_3   0.391809 0.876160 0.714880 -0.534603
O11   O     O_2   0.704613 0.208121 0.606613 -0.526516
O12   O     O_R   0.455770 0.662400 0.493360 -0.635642
O13   O     O_2   0.850499 0.265436 0.751250 -0.256128
O14   O     O_2   0.959598 0.176031 0.668967 -0.248608
O15   O     O_3   0.051158 0.337206 0.756358 -0.577356
O16   O     O_2   0.295518 0.646357 0.292430 -0.560725
O17   O     O_2   0.984935 0.753943 0.311626 -0.494855
O18   O     O_2   0.698517 0.649354 0.702965 -0.537337
O19   O     O_2   0.347292 0.692656 0.979376 -0.510573
O20   O     O_2   0.613383 0.754159 0.114909 -0.500580
O21   O     O_2   0.713339 0.656693 0.370912 -0.317763
O22   O     O_2   0.724687 0.766809 0.260561 -0.195505
O23   O     O_R   0.598240 0.480510 0.398910 -0.573367
O24   O     O_3   0.552611 0.757420 0.329894 -0.583928
O25   O     O_2   0.642809 0.374055 0.017034 -0.502572
O26   O     O_R   0.422540 0.515400 0.372600 -0.588388
O27   O     O_R   0.544230 0.337600 0.506640 -0.632062
O28   O     O_R   0.368520 0.372490 0.480330 -0.647654
O29   O     O_R   0.577460 0.484600 0.627400 -0.655152
O30   O     O_R   0.401760 0.519490 0.601090 -0.588444
O31   O     O_2   0.745441 0.667183 0.915636 -0.550964
S1    S     S_3+6 0.610467 0.047908 0.344182 0.054748
S2    S     S_3+6 0.426353 0.791976 0.649012 0.014669
S3    S     S_3+6 0.939029 0.279450 0.699786 0.050334
S4    S     S_3+6 0.649055 0.693756 0.299604 0.044750
Zn1   Zn    Zn3+2 0.617320 0.476700 0.517570 1.012086
Zn2   Zn    Zn3+2 0.382680 0.523300 0.482430 1.001684

loop_
_geom_bond_atom_site_label_1
_geom_bond_atom_site_label_2
_ccdc_geom_bond_type
C4    O26   A    
O6    S1    S    
C26   N2    A    
O23   Zn1   S    
C27   C29   A    
C35   C36   A    
C51   H19   S    
C46   O16   D    
C43   H8    S    
C7    C8    A    
C28   O29   A    
C1    O1    A    
C6    C19   A    
C37   C38   A    
C36   C37   A    
H9    O10   S    
C10   C15   A    
C34   H22   S    
C30   C31   A    
H18   O24   S    
C5    C17   A    
H7    O6    S    
O8    S2    D    
C3    C18   A    
C50   H17   S    
C47   H14   S    
C5    C16   S    
C8    S1    S    
C24   H25   S    
C40   O31   D    
C21   N2    A    
C8    C9    A    
C17   H21   S    
C42   O3    D    
C7    C43   S    
C3    H20   S    
C9    C10   A    
O24   S4    S    
O4    S1    D    
C37   H3    S    
C3    C13   A    
C2    C34   A    
C22   C47   S    
C4    C35   S    
C50   O20   D    
C40   H4    S    
C13   C14   A    
C44   H10   S    
N1    Zn1   S    
C20   S3    S    
C23   C53   A    
O21   S4    D    
C20   C29   A    
C53   C55   S    
C2    C45   A    
C1    C19   S    
C43   O7    D    
C16   O27   A    
O13   S3    D    
C24   C25   A    
C49   O19   D    
C51   O25   D    
C5    C18   A    
C45   C52   A    
C18   H12   S    
C49   C55   S    
C4    O23   A    
C47   O17   D    
O28   Zn2   S    
O10   S2    S    
N2    Zn2   S    
C46   H13   S    
C29   C30   A    
C36   H1    S    
O30   Zn2   S    
C9    C11   A    
C38   C54   S    
C10   C19   A    
C1    O12   A    
C23   C34   A    
C12   C35   A    
O9    S2    D    
C42   H6    S    
C14   C41   S    
C12   S4    S    
C20   C33   A    
C6    C42   S    
C22   C24   A    
O22   S4    D    
C41   O2    D    
C52   C53   A    
O15   S3    S    
C21   C46   S    
C33   N1    A    
C45   C48   S    
C23   H2    S    
C54   C55   D    
C11   C17   A    
C27   C32   A    
C14   C15   A    
C33   C44   S    
C41   H5    S    
C48   H15   S    
O27   Zn1   S    
O29   Zn1   S    
C6    C7    A    
O12   Zn2   S    
C25   C27   A    
C32   N1    A    
C31   H26   S    
C51   C54   S    
H11   O15   S    
C12   C39   A    
C25   C26   A    
C40   C52   S    
C32   H24   S    
C11   C13   A    
C38   C39   A    
O5    S1    D    
O1    Zn1   S    
C48   O18   D    
O14   S3    D    
C44   O11   D    
C28   O30   A    
C30   H23   S    
C26   C31   A    
C39   C50   S    
O26   Zn2   S    
C49   H16   S    
C15   S2    S    
C2    C28   S    
C21   C22   A    
C16   O28   A    
