data_mof_unit_24798.cif
_audit_creation_date              2012-12-11T17:08:30-0500
_audit_creation_method            fapswitch 2.2
_symmetry_space_group_name_H-M    P1
_symmetry_Int_Tables_number       1
_space_group_crystal_system       triclinic
_cell_length_a                    6.997352
_cell_length_b                    14.505714
_cell_length_c                    16.090168
_cell_angle_alpha                 90.077654
_cell_angle_beta                  90.048661
_cell_angle_gamma                 89.966255
_cell_volume                      1633.17521386

loop_
_atom_site_label
_atom_site_type_symbol
_atom_type_description
_atom_site_fract_x
_atom_site_fract_y
_atom_site_fract_z
_atom_type_partial_charge
O1    O     O_R   0.505700 0.583890 0.413310 -0.517756
O2    O     O_R   0.175960 0.594920 0.586080 -0.541753
O3    O     O_R   0.005660 0.416110 0.586690 -0.541672
C1    C     C_R   0.344692 0.616897 0.614696 0.703473
O4    O     O_R   0.175980 0.594920 0.413930 -0.542202
O5    O     O_R   0.005680 0.416110 0.413310 -0.544045
C2    C     C_R   0.344805 0.617301 0.385620 0.734345
O6    O     O_R   0.505680 0.583890 0.586690 -0.532072
O7    O     O_3   0.339200 0.441330 0.500000 -0.382422
V1    V     V_3+5 0.064350 0.510880 0.500000 1.435102
O8    O     O_R   0.675960 0.405080 0.413920 -0.542791
C3    C     C_R   0.844939 0.382980 0.385431 0.688850
O9    O     O_R   0.675940 0.405080 0.586070 -0.547298
C4    C     C_R   0.844860 0.384188 0.615556 0.682110
V2    V     V_3+5 0.564340 0.489120 0.500000 1.433707
O10   O     O_3   0.839360 0.558670 0.500000 -0.345647
C5    C     C_R   0.021318 0.264650 0.698854 0.096561
C6    C     C_R   0.855077 0.315219 0.683515 -0.097794
C7    C     C_R   0.700546 0.300456 0.737064 -0.201225
H1    H     H_    0.578031 0.344002 0.731398 0.146192
C8    C     C_R   0.710768 0.236013 0.802363 -0.182978
H2    H     H_    0.592632 0.230572 0.845240 0.133522
C9    C     C_R   0.877475 0.183847 0.815920 -0.094510
C10   C     C_R   0.030601 0.197754 0.761444 0.067106
C11   C     C_3   0.229200 0.223804 0.784248 -0.414015
C12   C     C_3   0.215198 0.300571 0.720387 -0.018907
H3    H     H_    0.331308 0.168585 0.766251 0.155078
H4    H     H_    0.241842 0.247463 0.849869 0.179209
H5    H     H_    0.315481 0.292869 0.667335 0.143707
C13   C     C_R   0.732595 0.251938 0.186493 0.102182
C14   C     C_R   0.882633 0.188166 0.180771 -0.136422
C15   C     C_R   0.031799 0.196322 0.239327 -0.168531
H6    H     H_    0.152896 0.150079 0.236634 0.130266
C16   C     C_R   0.020139 0.260153 0.305374 -0.169314
H7    H     H_    0.133473 0.261756 0.351119 0.127185
C17   C     C_R   0.857957 0.316893 0.315352 -0.102932
C18   C     C_R   0.719884 0.313886 0.252421 0.052321
C19   C     C_3   0.507760 0.305508 0.256975 -0.404247
C20   C     C_3   0.521138 0.238657 0.183694 -0.019511
H8    H     H_    0.434658 0.371800 0.242960 0.170519
H9    H     H_    0.461392 0.271717 0.315488 0.153518
H10   H     H_    0.478045 0.166907 0.198965 0.143910
C21   C     C_R   0.509317 0.746714 0.690128 0.147176
C22   C     C_R   0.352772 0.687349 0.681393 -0.111761
C23   C     C_R   0.200301 0.698569 0.737604 -0.181527
H11   H     H_    0.076845 0.654140 0.733485 0.131977
C24   C     C_R   0.211885 0.762532 0.803465 -0.178769
H12   H     H_    0.095839 0.766324 0.847653 0.131632
C25   C     C_R   0.376988 0.816593 0.815448 -0.114161
C26   C     C_R   0.521225 0.809654 0.755492 0.105715
C27   C     C_3   0.729566 0.792561 0.766664 -0.430335
C28   C     C_3   0.716647 0.724315 0.695169 -0.389848
H13   H     H_    0.761698 0.759416 0.827338 0.170004
H14   H     H_    0.816792 0.854405 0.751832 0.183247
H15   H     H_    0.742006 0.651687 0.714279 0.157286
H16   H     H_    0.795809 0.746867 0.638885 0.205509
C29   C     C_R   0.517297 0.690854 0.265853 0.020211
C30   C     C_R   0.354086 0.683613 0.315516 -0.064393
C31   C     C_R   0.200415 0.742028 0.296528 -0.159888
H17   H     H_    0.077246 0.742129 0.336041 0.191684
C32   C     C_R   0.211088 0.805854 0.230865 -0.166323
H18   H     H_    0.093293 0.852847 0.221199 0.138407
C33   C     C_R   0.377164 0.813423 0.181952 -0.075431
C34   C     C_R   0.527744 0.752809 0.199476 0.033290
C35   C     C_3   0.729905 0.776514 0.218749 -0.434808
C36   C     C_3   0.716347 0.711921 0.292653 0.249553
H19   H     H_    0.748095 0.850439 0.235431 0.203839
H20   H     H_    0.828206 0.751069 0.169570 0.136949
H21   H     H_    0.811623 0.650750 0.288528 0.069910
O11   O     O_R   0.229000 0.916070 0.913330 -0.537977
O12   O     O_R   0.558770 0.905070 0.086080 -0.537650
O13   O     O_R   0.729000 0.083900 0.086690 -0.539256
C37   C     C_R   0.389950 0.883327 0.114920 0.693144
O14   O     O_R   0.558720 0.905070 0.913930 -0.538480
O15   O     O_R   0.728960 0.083900 0.913310 -0.540889
C38   C     C_R   0.389717 0.882847 0.885490 0.701236
O16   O     O_R   0.229050 0.916070 0.086710 -0.542284
O17   O     O_3   0.395460 0.058650 0.000020 -0.374883
V3    V     V_3+5 0.670340 0.989120 0.000000 1.393244
O18   O     O_R   0.058670 0.094960 0.913900 -0.539173
C39   C     C_R   0.889594 0.117213 0.885576 0.695514
O19   O     O_R   0.058720 0.094960 0.086050 -0.541151
C40   C     C_R   0.890023 0.117325 0.114368 0.697724
V4    V     V_3+5 0.170330 0.010930 0.999970 1.387746
O20   O     O_3   0.895340 0.941350 0.999980 -0.370088
C41   C     C_3   0.432872 0.275738 0.103302 -0.734083
H22   H     H_    0.475370 0.231413 0.050204 0.218456
H23   H     H_    0.274747 0.275258 0.108381 0.214605
H24   H     H_    0.480996 0.347358 0.090532 0.197407
Cl1   Cl    Cl    0.723185 0.772544 0.390097 -0.661338
C42   C     C_3   0.212000 0.397239 0.760675 -0.757640
H25   H     H_    0.082594 0.407153 0.799714 0.214545
H26   H     H_    0.337831 0.407285 0.801617 0.192648
H27   H     H_    0.215237 0.451212 0.712057 0.208661

loop_
_geom_bond_atom_site_label_1
_geom_bond_atom_site_label_2
_ccdc_geom_bond_type
C4    C6    S    
C7    H1    S    
C29   C36   S    
O18   V4    S    
O12   V3    S    
C36   Cl1   S    
C23   H11   S    
C11   H4    S    
O14   C38   A    
C5    C12   S    
C17   C18   A    
C7    C8    A    
C6    C7    A    
O13   V3    S    
O5    C3    A    
C19   C20   S    
C41   H23   S    
C21   C28   S    
C36   H21   S    
V2    O10   S    
C14   C40   S    
C16   H7    S    
C32   C33   A    
O8    V2    S    
C14   C15   A    
C35   H19   S    
C9    C10   A    
O1    V2    S    
C3    C17   S    
O11   V4    S    
O7    V1    S    
C2    C30   S    
C28   H15   S    
C1    O6    A    
C31   H17   S    
O1    C2    A    
O9    C4    A    
C26   C27   S    
C20   H10   S    
C23   C24   A    
C31   C32   A    
C5    C10   A    
C27   C28   S    
C10   C11   S    
C19   H9    S    
C24   C25   A    
C42   H25   S    
O4    C2    A    
O17   V3    S    
O15   C39   A    
C1    C22   S    
O16   V4    S    
C12   C42   S    
C13   C18   A    
C27   H13   S    
C15   C16   A    
O2    C1    A    
C21   C22   A    
C18   C19   S    
C42   H26   S    
C24   H12   S    
C35   H20   S    
C5    C6    A    
C25   C38   S    
V4    O20   S    
O3    C4    A    
O19   C40   A    
O6    V2    S    
O19   V4    S    
O14   V3    S    
C8    C9    A    
O11   C38   A    
C30   C31   A    
O2    V1    S    
V3    O20   S    
C22   C23   A    
C29   C34   A    
O12   C37   A    
C9    C39   S    
C41   H22   S    
O18   C39   A    
C41   H24   S    
O5    V1    S    
O8    C3    A    
C21   C26   A    
C11   H3    S    
C33   C37   S    
C27   H14   S    
C15   H6    S    
O9    V2    S    
C11   C12   S    
O4    V1    S    
O3    V1    S    
V1    O10   S    
C34   C35   S    
C42   H27   S    
C19   H8    S    
C29   C30   A    
C13   C14   A    
C13   C20   S    
C16   C17   A    
C35   C36   S    
O7    V2    S    
C32   H18   S    
O13   C40   A    
C33   C34   A    
O17   V4    S    
C12   H5    S    
C25   C26   A    
C37   O16   A    
C20   C41   S    
C8    H2    S    
O15   V3    S    
C28   H16   S    
