data_mof_unit_55948.cif
_audit_creation_date              2012-12-10T16:59:12-0500
_audit_creation_method            fapswitch 2.2
_symmetry_space_group_name_H-M    P1
_symmetry_Int_Tables_number       1
_space_group_crystal_system       triclinic
_cell_length_a                    7.834738
_cell_length_b                    8.542835
_cell_length_c                    26.67468
_cell_angle_alpha                 92.364084
_cell_angle_beta                  83.79089
_cell_angle_gamma                 93.617268
_cell_volume                      1770.28371221

loop_
_atom_site_label
_atom_site_type_symbol
_atom_type_description
_atom_site_fract_x
_atom_site_fract_y
_atom_site_fract_z
_atom_type_partial_charge
Br1   Br    Br    0.378631 0.836980 0.627509 -0.343100
Br2   Br    Br    0.895867 0.456608 0.885679 -0.371150
Br3   Br    Br    0.360969 0.225383 0.337905 -0.328368
Br4   Br    Br    0.038517 0.298972 0.442864 -0.288621
Br5   Br    Br    0.959442 0.697889 0.558274 -0.295308
Br6   Br    Br    0.327480 0.894605 0.751388 -0.313771
Br7   Br    Br    0.349037 0.330078 0.219479 -0.290415
Br8   Br    Br    0.787605 0.817081 0.247550 -0.329644
Br9   Br    Br    0.594912 0.299424 0.780041 -0.336575
Br10  Br    Br    0.723031 0.119933 0.143143 -0.359253
C1    C     C_R   0.545550 0.794490 0.498339 0.954168
C2    C     C_R   0.439459 0.874314 0.144453 -0.116675
C3    C     C_R   0.496736 0.531098 0.649395 -0.208347
C4    C     C_R   0.511316 0.540619 0.351863 -0.211287
C5    C     C_R   0.450430 0.860952 0.038240 -0.007527
C6    C     C_R   0.199647 0.672266 0.990681 -0.003572
C7    C     C_R   0.188655 0.684360 0.044190 0.071208
C8    C     C_R   0.475454 0.829033 0.985554 0.071196
C9    C     C_R   0.317381 0.776115 0.067465 0.090548
C10   C     C_R   0.349606 0.734033 0.961920 0.089122
C11   C     C_R   0.558513 0.969942 0.063127 -0.254982
C12   C     C_R   0.454506 0.205431 0.500896 0.996174
C13   C     C_R   0.069054 0.594857 0.964968 -0.261494
C14   C     C_R   0.553182 0.978551 0.115562 0.353521
C15   C     C_R   0.091261 0.562841 0.913145 0.335214
C16   C     C_R   0.499160 0.503594 0.594752 1.008258
C17   C     C_R   0.502514 0.505803 0.405387 0.933040
C18   C     C_R   0.628176 0.880162 0.956267 -0.199395
C19   C     C_R   0.059095 0.600862 0.075468 -0.196765
C20   C     C_2   0.569612 0.957954 0.497034 -0.305134
C21   C     C_2   0.430556 0.041833 0.501087 -0.278811
C22   C     C_R   0.561588 0.705461 0.830446 0.634575
C23   C     C_R   0.376237 0.697244 0.909390 -0.089357
C24   C     C_R   0.224954 0.659273 0.200103 0.623147
C25   C     C_R   0.285323 0.569226 0.832892 0.639113
C26   C     C_R   0.444365 0.856225 0.196382 0.648669
C27   C     C_R   0.533249 0.449144 0.733830 0.244771
C28   C     C_R   0.581995 0.721840 0.283953 0.264559
C29   C     C_R   0.548485 0.417458 0.681185 -0.176622
C30   C     C_R   0.599168 0.679785 0.333258 -0.152064
C31   C     C_R   0.435744 0.674621 0.670115 0.193484
C32   C     C_R   0.429329 0.437121 0.318569 0.229848
C33   C     C_R   0.418741 0.702637 0.722236 0.262302
C34   C     C_R   0.318354 0.777209 0.120365 -0.095609
C35   C     C_R   0.404804 0.487158 0.270463 0.313389
C36   C     C_R   0.465483 0.589746 0.753888 0.115101
C37   C     C_R   0.450321 0.645643 0.257840 0.013561
C38   C     C_2   0.708665 0.785875 0.363603 0.496705
C39   C     C_2   0.613742 0.264741 0.660815 0.561392
C40   C     C_R   0.532205 0.747892 0.881632 -0.014771
C41   C     C_R   0.198106 0.680631 0.149761 -0.019667
C42   C     C_R   0.656150 0.839364 0.905373 -0.067876
C43   C     C_R   0.064398 0.598832 0.127426 -0.064176
C44   C     C_R   0.248969 0.607879 0.884834 -0.114621
H1    H     H_    0.777043 0.878675 0.884773 0.209806
H2    H     H_    0.693193 0.199437 0.682292 0.136851
H3    H     H_    0.968753 0.525925 0.149580 0.216384
H4    H     H_    0.649938 0.049648 0.042499 0.173577
H5    H     H_    0.945806 0.558885 0.984318 0.171462
H6    H     H_    0.732924 0.945296 0.972226 0.157044
H7    H     H_    0.958020 0.527300 0.060742 0.158898
H8    H     H_    0.701067 0.008701 0.493110 0.211732
H9    H     H_    0.299114 0.991037 0.504953 0.211478
H10   H     H_    0.703474 0.911971 0.361143 0.110881
N1    N     N_R   0.438951 0.618273 0.807369 -0.337322
N2    N     N_R   0.373962 0.720655 0.217773 -0.336889
N3    N     N_2   0.950320 0.457960 0.486880 0.088243
N4    N     N_2   0.049680 0.542040 0.513120 0.079647
O1    O     O_R   0.389250 0.738570 0.503220 -0.602013
O2    O     O_2   0.105349 0.578365 0.230640 -0.470506
O3    O     O_2   0.502825 0.975630 0.225517 -0.411082
O4    O     O_2   0.170011 0.483656 0.807590 -0.438233
O5    O     O_2   0.813449 0.735289 0.388472 -0.502223
O6    O     O_2   0.577179 0.207585 0.620386 -0.552026
O7    O     O_R   0.610750 0.261430 0.496780 -0.602378
O8    O     O_R   0.678390 0.711630 0.494810 -0.574863
O9    O     O_R   0.321610 0.288370 0.505190 -0.596705
O10   O     O_R   0.355440 0.513440 0.575450 -0.583248
O11   O     O_R   0.644560 0.486560 0.424550 -0.550692
O12   O     O_R   0.644590 0.486500 0.567040 -0.582023
O13   O     O_R   0.355410 0.513500 0.432960 -0.590975
O14   O     O_2   0.710926 0.751974 0.803595 -0.477317
Zn1   Zn    Zn3+2 0.306940 0.517990 0.505620 1.107787
Zn2   Zn    Zn3+2 0.693060 0.482010 0.494380 1.126595

loop_
_geom_bond_atom_site_label_1
_geom_bond_atom_site_label_2
_ccdc_geom_bond_type
C5    C8    A    
Br3   C32   S    
C7    C19   A    
O12   Zn2   S    
C24   N2    A    
C3    C31   A    
C13   H5    S    
C24   C41   A    
C16   O10   A    
Br7   C35   S    
C17   O11   A    
C1    O8    A    
C20   C21   D    
C26   N2    A    
O7    Zn2   S    
C38   H10   S    
C25   N1    A    
O10   Zn1   S    
C1    C20   S    
C6    C7    A    
C40   C42   A    
C4    C17   S    
C2    C26   A    
C24   O2    S    
C37   N2    S    
C42   H1    S    
C4    C32   A    
C35   C37   A    
N3    Zn2   S    
C25   C44   A    
C31   C33   A    
O8    Zn2   S    
Br8   C28   S    
C12   O7    A    
Br5   N4    S    
O13   Zn1   S    
C18   H6    S    
C19   H7    S    
C12   C21   S    
N3    N4    D    
C21   H9    S    
C17   O13   A    
C8    C18   A    
C15   C44   A    
C26   O3    S    
C43   H3    S    
Br10  C14   S    
C23   C40   A    
C16   O12   A    
C41   C43   A    
C32   C35   A    
C5    C9    A    
O1    Zn1   S    
C6    C10   A    
Br9   C27   S    
C22   C40   A    
C28   C37   A    
C36   N1    S    
C10   C23   A    
C34   C41   A    
Br1   C31   S    
C29   C39   S    
C25   O4    S    
C6    C13   A    
Br6   C33   S    
C20   H8    S    
C3    C16   S    
C9    C34   A    
C23   C44   A    
C30   C38   S    
N4    Zn1   S    
C38   O5    D    
C12   O9    A    
Br4   N3    S    
C1    O1    A    
C39   H2    S    
C22   O14   S    
C2    C14   A    
C11   H4    S    
C2    C34   A    
C28   C30   A    
C18   C42   A    
O11   Zn2   S    
C19   C43   A    
C7    C9    A    
Br2   C15   S    
C8    C10   A    
C13   C15   A    
C33   C36   A    
C3    C29   A    
C4    C30   A    
C5    C11   A    
C27   C29   A    
C11   C14   A    
O9    Zn1   S    
C39   O6    D    
C27   C36   A    
C22   N1    A    
