data_mof_unit_47440.cif
_audit_creation_date              2012-12-11T14:13:08-0500
_audit_creation_method            fapswitch 2.2
_symmetry_space_group_name_H-M    P1
_symmetry_Int_Tables_number       1
_space_group_crystal_system       triclinic
_cell_length_a                    11.510862
_cell_length_b                    18.670674
_cell_length_c                    10.060419
_cell_angle_alpha                 90.274064
_cell_angle_beta                  110.273363
_cell_angle_gamma                 89.918646
_cell_volume                      2028.17289943

loop_
_atom_site_label
_atom_site_type_symbol
_atom_type_description
_atom_site_fract_x
_atom_site_fract_y
_atom_site_fract_z
_atom_type_partial_charge
C1    C     C_R   0.073951 0.646146 0.140249 0.549901
C2    C     C_R   0.925994 0.353892 0.859700 0.550854
C3    C     C_R   0.924422 0.145480 0.858548 0.554707
C4    C     C_R   0.075621 0.854707 0.141160 0.550831
C5    C     C_R   0.392562 0.457179 0.489139 -0.049958
C6    C     C_R   0.604812 0.540950 0.503518 -0.056177
C7    C     C_R   0.608440 0.961563 0.489130 -0.060356
C8    C     C_R   0.396225 0.047243 0.450394 -0.055569
C9    C     C_2   0.367051 0.938274 0.983085 -0.103432
C10   C     C_2   0.587834 0.079662 0.092035 -0.079099
C11   C     C_2   0.589111 0.422335 0.083855 -0.089575
C12   C     C_2   0.403946 0.573288 0.928937 -0.095103
C13   C     C_2   0.455834 0.977555 0.073391 -0.161215
C14   C     C_2   0.476267 0.050502 0.034202 -0.138486
C15   C     C_2   0.491372 0.457536 0.000222 -0.166846
C16   C     C_2   0.474147 0.531334 0.031475 -0.168503
C17   C     C_2   0.008487 0.922248 0.110782 -0.114350
C18   C     C_2   0.986589 0.076633 0.885467 -0.103751
C19   C     C_2   0.992435 0.421364 0.890433 -0.118915
C20   C     C_2   0.007688 0.578643 0.109398 -0.121573
C21   C     C_2   0.017870 0.962146 0.004592 -0.166235
C22   C     C_2   0.956221 0.030725 0.969620 -0.170168
C23   C     C_2   0.972299 0.464826 0.986128 -0.153260
C24   C     C_2   0.029395 0.534785 0.015259 -0.155038
C25   C     C_R   0.469119 0.646812 0.440566 0.558302
C26   C     C_R   0.530152 0.352497 0.557899 0.584728
C27   C     C_R   0.532887 0.146923 0.557777 0.599154
C28   C     C_R   0.469269 0.854638 0.438963 0.558424
C29   C     C_R   0.376120 0.644629 0.965291 0.593681
C30   C     C_R   0.622908 0.354642 0.036438 0.588226
C31   C     C_R   0.622637 0.145322 0.036877 0.580239
C32   C     C_R   0.352504 0.862325 0.007056 0.572961
C33   C     C_R   0.507234 0.424173 0.498808 -0.002525
C34   C     C_R   0.490615 0.574128 0.495483 -0.008245
C35   C     C_R   0.494514 0.929555 0.488437 0.000286
C36   C     C_R   0.511483 0.079227 0.477023 0.031443
C37   C     C_R   0.281316 0.417304 0.471909 0.162567
C38   C     C_R   0.715921 0.580655 0.520252 0.151307
C39   C     C_R   0.719160 0.921332 0.506540 0.154800
C40   C     C_R   0.287352 0.089426 0.410291 0.191162
C41   C     C_R   0.168232 0.449010 0.392451 0.256020
C42   C     C_R   0.828837 0.549191 0.600757 0.259741
C43   C     C_R   0.833016 0.953310 0.583881 0.262656
C44   C     C_R   0.182513 0.064351 0.435133 0.259391
C45   C     C_R   0.159918 0.521220 0.420900 -0.042729
C46   C     C_R   0.837838 0.477038 0.573156 -0.043430
C47   C     C_R   0.842021 0.025583 0.558019 -0.062710
C48   C     C_R   0.185084 0.996926 0.494038 -0.100380
C49   C     C_R   0.267118 0.560861 0.488124 0.149328
C50   C     C_R   0.730905 0.437292 0.505737 0.148178
C51   C     C_R   0.735394 0.065654 0.492726 0.139975
C52   C     C_R   0.287629 0.951951 0.519028 0.138572
C53   C     C_R   0.385549 0.532285 0.495152 -0.036481
C54   C     C_R   0.612002 0.465887 0.497801 -0.039677
C55   C     C_R   0.616840 0.036840 0.482335 -0.037479
C56   C     C_R   0.392615 0.974576 0.485667 -0.039431
Cr1   Cr    Cr6+3 0.187610 0.750000 0.979860 1.012653
Cr2   Cr    Cr6+3 0.812390 0.250000 0.020140 1.024833
Cr3   Cr    Cr6+3 0.245810 0.750000 0.341640 1.141136
Cr4   Cr    Cr6+3 0.754190 0.250000 0.658360 1.146350
Cr5   Cr    Cr6+3 0.485760 0.750000 0.219910 1.117758
Cr6   Cr    Cr6+3 0.514240 0.250000 0.780090 1.108442
H1    H     H_    0.069939 0.544098 0.406626 0.195808
H2    H     H_    0.928130 0.454128 0.589210 0.195054
H3    H     H_    0.932400 0.049135 0.577892 0.178025
H4    H     H_    0.108036 0.980370 0.524960 0.193386
H5    H     H_    0.404972 0.076997 0.947706 0.162972
H6    H     H_    0.519516 0.953958 0.169372 0.190353
H7    H     H_    0.518974 0.551267 0.138857 0.195714
H8    H     H_    0.430760 0.434406 0.901455 0.203456
H9    H     H_    0.659458 0.050751 0.173890 0.146163
H10   H     H_    0.302628 0.962995 0.888384 0.142962
H11   H     H_    0.355056 0.551162 0.824630 0.163800
H12   H     H_    0.653376 0.448744 0.176539 0.167108
H13   H     H_    0.885815 0.044453 0.014855 0.140888
H14   H     H_    0.075710 0.945070 0.944655 0.176579
H15   H     H_    0.092534 0.550081 0.960935 0.185478
H16   H     H_    0.910092 0.449310 0.041505 0.186233
H17   H     H_    0.051732 0.062209 0.833295 0.117277
H18   H     H_    0.958460 0.941142 0.178017 0.135484
H19   H     H_    0.948860 0.562658 0.168338 0.145604
H20   H     H_    0.049875 0.437724 0.830062 0.144063
O1    O     O_R   0.267710 0.668200 0.902110 -0.474113
O2    O     O_R   0.732290 0.331800 0.097890 -0.476284
O3    O     O_R   0.732290 0.168200 0.097890 -0.509735
O4    O     O_R   0.267710 0.831800 0.902110 -0.465231
O5    O     O_R   0.099480 0.674460 0.038850 -0.535128
O6    O     O_R   0.900520 0.325540 0.961150 -0.529066
O7    O     O_R   0.900520 0.174460 0.961150 -0.527763
O8    O     O_R   0.099480 0.825540 0.038850 -0.555363
O9    O     O_R   0.116720 0.669210 0.267660 -0.463707
O10   O     O_R   0.883280 0.330790 0.732340 -0.464347
O11   O     O_R   0.883280 0.169210 0.732340 -0.467979
O12   O     O_R   0.116720 0.830790 0.267660 -0.455431
O13   O     O_R   0.366710 0.675440 0.427590 -0.460144
O14   O     O_R   0.633290 0.324560 0.572410 -0.458992
O15   O     O_R   0.633290 0.175440 0.572410 -0.458852
O16   O     O_R   0.366710 0.824560 0.427590 -0.450800
O17   O     O_R   0.534870 0.669390 0.371760 -0.474979
O18   O     O_R   0.465130 0.330610 0.628240 -0.463989
O19   O     O_R   0.465130 0.169390 0.628240 -0.479549
O20   O     O_R   0.534870 0.830610 0.371760 -0.486978
O21   O     O_R   0.453080 0.674480 0.075160 -0.476293
O22   O     O_R   0.546920 0.325520 0.924840 -0.488900
O23   O     O_R   0.546920 0.174480 0.924840 -0.498559
O24   O     O_R   0.453080 0.825520 0.075160 -0.455107
O25   O     O_3   0.306390 0.750000 0.180470 -0.310582
O26   O     O_3   0.693610 0.250000 0.819530 -0.290291
O27   O     O_3   0.057840 0.410690 0.341982 -0.550623
C57   C     C_3   0.075308 0.343467 0.286923 -0.031603
H21   H     H_    0.128823 0.306658 0.372675 0.199501
H22   H     H_    0.120661 0.349044 0.206107 0.123840
H23   H     H_    0.983488 0.318310 0.235409 0.190571
O28   O     O_3   0.938528 0.587921 0.651515 -0.534504
C58   C     C_3   0.920417 0.652630 0.714545 -0.065890
H24   H     H_    0.882717 0.642721 0.800812 0.108052
H25   H     H_    0.858791 0.689418 0.634633 0.134518
H26   H     H_    0.011042 0.679897 0.760927 0.183755
O29   O     O_3   0.942854 0.914768 0.635233 -0.556217
C59   C     C_3   0.925177 0.850320 0.698287 -0.074636
H27   H     H_    0.869473 0.811878 0.616860 0.150781
H28   H     H_    0.881183 0.859924 0.779415 0.108304
H29   H     H_    0.016810 0.825317 0.751674 0.180183
O30   O     O_3   0.086525 0.110432 0.426355 -0.541624
C60   C     C_3   0.002605 0.110266 0.286346 -0.054969
H30   H     H_    0.048431 0.107560 0.205694 0.143397
H31   H     H_    0.951635 0.161653 0.268354 0.210373
H32   H     H_    0.935777 0.065452 0.271105 0.128496
Br1   Br    Br    0.249731 0.383819 0.639309 -0.479156
Br2   Br    Br    0.746395 0.613811 0.351996 -0.470073
Br3   Br    Br    0.745531 0.881557 0.340238 -0.477803
Br4   Br    Br    0.279762 0.181153 0.318485 -0.527313
Br5   Br    Br    0.240034 0.639959 0.598424 -0.404426
Br6   Br    Br    0.760128 0.356587 0.400677 -0.394552
Br7   Br    Br    0.763021 0.151039 0.400714 -0.427585
Br8   Br    Br    0.288856 0.872412 0.637957 -0.416953

loop_
_geom_bond_atom_site_label_1
_geom_bond_atom_site_label_2
_ccdc_geom_bond_type
C1    O5    A    
C44   C48   A    
C31   O3    A    
C5    C37   A    
C12   C29   S    
C9    H10   S    
C7    C55   A    
C6    C34   A    
C8    C56   A    
O28   C58   S    
Cr6   O23   S    
C21   H14   S    
C50   C54   A    
C38   Br2   S    
C5    C53   A    
Cr5   O21   S    
C38   C42   A    
C42   C46   A    
Cr6   O26   S    
C15   C16   S    
Cr1   O4    S    
C29   O21   A    
C3    C18   S    
C8    C36   A    
C9    C13   D    
C57   H21   S    
C20   H19   S    
C9    C32   S    
C27   O19   A    
C51   Br7   S    
C10   C31   S    
C42   O28   S    
C20   C24   D    
C11   C30   S    
C37   Br1   S    
C18   H17   S    
C58   H25   S    
C5    C33   A    
C60   H32   S    
C14   H5    S    
C6    C38   A    
C2    O6    A    
Cr3   O12   S    
C19   H20   S    
C40   C44   A    
C4    O8    A    
Cr4   O26   S    
C59   H29   S    
C25   C34   S    
Cr6   O19   S    
Cr4   O11   S    
C40   Br4   S    
C1    O9    A    
C32   O24   A    
C12   H11   S    
C30   O2    A    
C31   O23   A    
Cr5   O17   S    
Cr3   O13   S    
C22   H13   S    
C6    C54   A    
C59   H28   S    
Cr6   O22   S    
Cr4   O10   S    
C26   O14   A    
Cr2   O26   S    
Cr1   O8    S    
C12   C16   D    
C28   C35   S    
Cr4   O15   S    
C10   C14   D    
C39   C43   A    
C45   H1    S    
C17   H18   S    
Cr3   O25   S    
Cr1   O5    S    
C46   H2    S    
C19   C23   D    
Cr2   O2    S    
C26   O18   A    
C26   C33   S    
C45   C49   A    
C23   C24   S    
C58   H26   S    
C32   O4    A    
Cr1   O1    S    
C3    O11   A    
Cr3   O9    S    
C2    O10   A    
Cr5   O24   S    
C57   H23   S    
C4    O12   A    
C4    C17   S    
Cr4   O14   S    
Cr1   O25   S    
C25   O13   A    
C11   C15   D    
C50   Br6   S    
C60   H30   S    
C52   Br8   S    
Cr6   O18   S    
Cr2   O3    S    
C59   H27   S    
C28   O16   A    
C33   C54   A    
C15   H8    S    
C49   Br5   S    
C27   O15   A    
C1    C20   S    
C7    C39   A    
C2    C19   S    
C18   C22   D    
C7    C35   A    
C16   H7    S    
C11   H12   S    
Cr2   O6    S    
C35   C56   A    
C47   C51   A    
O29   C59   S    
C29   O1    A    
C27   C36   S    
C46   C50   A    
C3    O7    A    
C21   C22   S    
C25   O17   A    
Cr5   O20   S    
C36   C55   A    
O27   C57   S    
C10   H9    S    
C58   H24   S    
C39   Br3   S    
C49   C53   A    
C44   O30   S    
C51   C55   A    
C23   H16   S    
C37   C41   A    
Cr5   O25   S    
Cr2   O7    S    
C57   H22   S    
C28   O20   A    
C24   H15   S    
C48   C52   A    
C34   C53   A    
C30   O22   A    
C60   H31   S    
Cr3   O16   S    
C41   C45   A    
C41   O27   S    
C8    C40   A    
C48   H4    S    
C13   C14   S    
C43   C47   A    
C47   H3    S    
C52   C56   A    
C43   O29   S    
O30   C60   S    
C13   H6    S    
C17   C21   D    
