data_mof_unit_48873.cif
_audit_creation_date              2012-12-11T17:09:30-0500
_audit_creation_method            fapswitch 2.2
_symmetry_space_group_name_H-M    P1
_symmetry_Int_Tables_number       1
_space_group_crystal_system       triclinic
_cell_length_a                    14.843177
_cell_length_b                    6.942037
_cell_length_c                    13.491613
_cell_angle_alpha                 90.108212
_cell_angle_beta                  99.945481
_cell_angle_gamma                 89.855014
_cell_volume                      1369.30415595

loop_
_atom_site_label
_atom_site_type_symbol
_atom_type_description
_atom_site_fract_x
_atom_site_fract_y
_atom_site_fract_z
_atom_type_partial_charge
O1    O     O_R   0.586930 0.505770 0.416350 -0.536102
O2    O     O_R   0.413070 0.005770 0.583650 -0.536503
O3    O     O_R   0.397900 0.173100 0.389630 -0.535881
O4    O     O_R   0.602100 0.673100 0.610370 -0.536259
C1    C     C_R   0.364103 0.345374 0.363141 0.723530
C2    C     C_R   0.635606 0.845373 0.637230 0.719121
O5    O     O_R   0.585280 0.175870 0.404330 -0.544228
O6    O     O_R   0.414720 0.675870 0.595670 -0.546634
O7    O     O_R   0.601790 0.008380 0.598460 -0.535014
O8    O     O_R   0.398210 0.508380 0.401540 -0.532540
C3    C     C_R   0.612980 0.344730 0.381097 0.699749
C4    C     C_R   0.388825 0.845961 0.621177 0.687914
O9    O     O_3   0.505200 0.340120 0.563670 -0.371561
O10   O     O_3   0.494800 0.840120 0.436330 -0.371702
V1    V     V_3+5 0.499040 0.064180 0.488190 1.396348
V2    V     V_3+5 0.500960 0.564180 0.511810 1.392139
C5    C     C_R   0.271465 0.025211 0.698932 0.085070
C6    C     C_R   0.687913 0.509242 0.249173 0.103114
C7    C     C_R   0.323304 0.859038 0.692912 -0.101119
C8    C     C_R   0.680758 0.352902 0.312630 -0.118769
C9    C     C_R   0.308531 0.705207 0.755054 -0.206979
C10   C     C_R   0.745667 0.203212 0.310748 -0.188193
H1    H     H_    0.354519 0.585054 0.761584 0.143508
H2    H     H_    0.744724 0.077482 0.357940 0.125398
C11   C     C_R   0.239624 0.713217 0.814995 -0.185772
C12   C     C_R   0.813437 0.215246 0.248346 -0.191151
H3    H     H_    0.234040 0.596181 0.866223 0.131170
H4    H     H_    0.861423 0.097442 0.248704 0.128462
C13   C     C_R   0.182656 0.876378 0.813966 -0.093821
C14   C     C_R   0.819574 0.378920 0.187335 -0.099858
C15   C     C_R   0.197887 0.030133 0.751620 0.066967
C16   C     C_R   0.756479 0.524819 0.193962 0.073117
C17   C     C_3   0.217182 0.232588 0.784051 -0.459624
C18   C     C_3   0.722050 0.708856 0.145641 -0.472852
C19   C     C_3   0.304407 0.218578 0.739680 -0.027926
C20   C     C_3   0.642626 0.691477 0.205757 -0.036645
H5    H     H_    0.227317 0.250260 0.867241 0.168955
H6    H     H_    0.702174 0.693699 0.062637 0.165582
C21   C     C_1   0.783346 0.877235 0.783024 -0.192272
C22   C     C_1   0.216529 0.377106 0.217129 -0.191971
C23   C     C_1   0.716038 0.860090 0.716970 -0.187478
C24   C     C_1   0.283738 0.360110 0.283323 -0.186319
O11   O     O_R   0.101720 0.231700 0.098560 -0.536590
O12   O     O_R   0.898280 0.731700 0.901440 -0.535005
O13   O     O_R   0.914700 0.558980 0.095690 -0.539479
O14   O     O_R   0.085300 0.058980 0.904310 -0.540769
C25   C     C_R   0.886209 0.389962 0.117869 0.701832
C26   C     C_R   0.114756 0.889486 0.882859 0.693451
O15   O     O_R   0.102080 0.561590 0.110390 -0.537596
O16   O     O_R   0.897920 0.061590 0.889610 -0.535956
O17   O     O_R   0.086950 0.728940 0.916330 -0.542136
O18   O     O_R   0.913050 0.228940 0.083670 -0.541444
C27   C     C_R   0.136092 0.391907 0.137390 0.725709
C28   C     C_R   0.863893 0.891995 0.862635 0.735645
O19   O     O_3   0.994770 0.394510 0.936380 -0.368243
O20   O     O_3   0.005230 0.894510 0.063620 -0.369236
V3    V     V_3+5 0.000970 0.670520 0.011800 1.412646
V4    V     V_3+5 0.999030 0.170520 0.988200 1.412148
H7    H     H_    0.165780 0.332818 0.742096 0.166363
H8    H     H_    0.769077 0.830182 0.170411 0.170384
C29   C     C_3   0.389055 0.212928 0.825838 -0.357840
C30   C     C_3   0.480168 0.238860 0.790193 -0.710769
H9    H     H_    0.497244 0.110361 0.748592 0.231855
H10   H     H_    0.478660 0.369690 0.743043 0.235563
H11   H     H_    0.535244 0.256870 0.856586 0.190897
H12   H     H_    0.383198 0.331857 0.879715 0.172937
H13   H     H_    0.390858 0.076512 0.869294 0.196047
C31   C     C_3   0.550602 0.660953 0.134705 -0.357489
C32   C     C_3   0.471693 0.627625 0.191092 -0.703056
H14   H     H_    0.480324 0.487340 0.230509 0.207911
H15   H     H_    0.467836 0.745833 0.245602 0.242582
H16   H     H_    0.406354 0.623649 0.136749 0.196012
H17   H     H_    0.535139 0.791942 0.087492 0.184720
H18   H     H_    0.554923 0.536703 0.083452 0.186788
H19   H     H_    0.307460 0.322528 0.677929 0.142736
H20   H     H_    0.642099 0.807381 0.262677 0.146411

loop_
_geom_bond_atom_site_label_1
_geom_bond_atom_site_label_2
_ccdc_geom_bond_type
C1    C24   S    
O1    C3    A    
O2    C4    A    
C2    O7    A    
C21   C23   T    
O5    C3    A    
O13   V3    S    
O16   C28   A    
C7    C9    A    
C21   C28   S    
C31   H18   S    
O15   V3    S    
O20   V3    S    
C32   H15   S    
C30   H10   S    
C20   H20   S    
O11   V4    S    
C5    C7    A    
C29   H12   S    
O11   C27   A    
C26   O17   A    
C31   C32   S    
C2    C23   S    
C15   C17   S    
O17   V3    S    
O10   V2    S    
C6    C8    A    
C22   C24   T    
C17   H7    S    
O14   V4    S    
C18   H8    S    
C32   H14   S    
O13   C25   A    
C9    H1    S    
C11   C13   A    
O14   C26   A    
C3    C8    S    
C13   C26   S    
O16   V4    S    
C14   C25   S    
O4    C2    A    
C31   H17   S    
C17   H5    S    
C16   C18   S    
O4    V2    S    
C32   H16   S    
C30   H9    S    
C29   H13   S    
O12   V3    S    
O6    C4    A    
C19   H19   S    
C19   C29   S    
O1    V2    S    
O2    V1    S    
O18   V4    S    
C8    C10   A    
C12   C14   A    
O19   V3    S    
C5    C15   A    
C10   H2    S    
O9    V2    S    
C6    C16   A    
O3    V1    S    
C9    C11   A    
C30   H11   S    
C18   H6    S    
O3    C1    A    
C20   C31   S    
C25   O18   A    
C11   H3    S    
C12   H4    S    
O9    V1    S    
O7    V1    S    
C1    O8    A    
C13   C15   A    
O8    V2    S    
C14   C16   A    
O15   C27   A    
C4    C7    S    
O5    V1    S    
C17   C19   S    
O20   V4    S    
C18   C20   S    
C29   C30   S    
O12   C28   A    
O6    V2    S    
C22   C27   S    
C10   C12   A    
O19   V4    S    
O10   V1    S    
C5    C19   S    
C6    C20   S    
