data_mof_unit_28912.cif
_audit_creation_date              2012-12-10T17:35:46-0500
_audit_creation_method            fapswitch 2.2
_symmetry_space_group_name_H-M    P1
_symmetry_Int_Tables_number       1
_space_group_crystal_system       triclinic
_cell_length_a                    10.529721
_cell_length_b                    12.236806
_cell_length_c                    12.829249
_cell_angle_alpha                 94.950231
_cell_angle_beta                  93.356353
_cell_angle_gamma                 90.222089
_cell_volume                      1643.99374726

loop_
_atom_site_label
_atom_site_type_symbol
_atom_type_description
_atom_site_fract_x
_atom_site_fract_y
_atom_site_fract_z
_atom_type_partial_charge
C1    C     C_R   0.489026 0.521740 0.699499 0.980991
C2    C     C_R   0.511526 0.478124 0.300675 0.946958
C3    C     C_R   0.447671 0.443812 0.866988 0.439526
C4    C     C_R   0.560258 0.554710 0.134276 0.471593
C5    C     C_R   0.486356 0.447956 0.973389 -0.252345
C6    C     C_R   0.524416 0.550467 0.027289 -0.246617
C7    C     C_R   0.403218 0.936220 0.382737 0.631271
C8    C     C_R   0.596839 0.063908 0.616966 0.654258
C9    C     C_R   0.404304 0.826701 0.400806 0.654782
C10   C     C_R   0.595624 0.173329 0.599157 0.677468
C11   C     C_R   0.546416 0.866295 0.551857 0.464974
C12   C     C_R   0.453188 0.134240 0.448091 0.459629
C13   C     C_R   0.535637 0.982175 0.543483 -0.378482
C14   C     C_R   0.463656 0.018192 0.456477 -0.391767
C15   C     C_R   0.741041 0.502858 0.495606 1.067043
C16   C     C_R   0.258744 0.496950 0.502920 1.081059
C17   C     C_3   0.954917 0.478953 0.588249 0.513165
C18   C     C_3   0.044798 0.520470 0.407459 0.488499
C19   C     C_3   0.048245 0.572688 0.573849 0.189232
C20   C     C_3   0.951009 0.427138 0.421701 0.177142
C21   C     C_3   0.124182 0.490662 0.505057 -0.526172
C22   C     C_3   0.875372 0.508887 0.490789 -0.494236
C23   C     C_3   0.030745 0.396344 0.519111 0.242203
C24   C     C_3   0.968637 0.602944 0.476193 0.248400
C25   C     C_R   0.529390 0.464342 0.189058 -0.264072
C26   C     C_R   0.475057 0.534829 0.811765 -0.246348
C27   C     C_R   0.520882 0.645753 0.973150 0.775078
C28   C     C_R   0.491232 0.352565 0.027326 0.792135
C29   C     C_R   0.500277 0.636570 0.865739 -0.239822
C30   C     C_R   0.507580 0.362001 0.135002 -0.261719
H1    H     H_    0.502308 0.289425 0.176121 0.257225
H2    H     H_    0.504435 0.708948 0.824456 0.256251
N1    N     N_R   0.523490 0.207800 0.519350 -0.257985
N2    N     N_R   0.476510 0.792200 0.480650 -0.257270
O1    O     O_R   0.506270 0.421700 0.658830 -0.536815
O2    O     O_R   0.493730 0.578300 0.341170 -0.536879
O3    O     O_R   0.491200 0.609310 0.646410 -0.593160
O4    O     O_R   0.508800 0.390690 0.353590 -0.594769
O5    O     O_R   0.693580 0.406210 0.506230 -0.561905
O6    O     O_R   0.306420 0.593790 0.493770 -0.569593
O7    O     O_R   0.678510 0.593830 0.493810 -0.549424
O8    O     O_R   0.321490 0.406170 0.506190 -0.524443
Zn1   Zn    Zn3+2 0.510060 0.374730 0.508290 1.173875
Zn2   Zn    Zn3+2 0.489940 0.625270 0.491710 1.163977
S1    S     S_3+6 0.106489 0.666885 0.681158 0.149449
O9    O     O_2   0.160279 0.605959 0.770039 -0.262127
O10   O     O_2   0.208129 0.739821 0.646404 -0.249301
O11   O     O_3   0.984875 0.744050 0.723004 -0.409731
H3    H     H_    0.023680 0.798029 0.777760 0.409395
S2    S     S_3+6 0.888370 0.337805 0.312453 0.169554
O12   O     O_2   0.786345 0.264585 0.346089 -0.215589
O13   O     O_2   0.832578 0.404165 0.228157 -0.242916
O14   O     O_3   0.005689 0.259627 0.263998 -0.403968
H4    H     H_    0.044272 0.303617 0.212601 0.387629
F1    F     F_    0.904851 0.460412 0.682603 -0.526883
F2    F     F_    0.095421 0.538383 0.313186 -0.570822
S3    S     S_3+6 0.055124 0.257982 0.553744 0.185951
O15   O     O_2   0.986772 0.177917 0.474270 -0.157802
O16   O     O_2   0.193972 0.230582 0.559442 -0.210613
O17   O     O_3   0.996524 0.244652 0.671169 -0.429291
H5    H     H_    0.014628 0.167915 0.685833 0.412905
S4    S     S_3+6 0.942683 0.739465 0.437336 0.208999
O18   O     O_2   0.806098 0.771362 0.445322 -0.211838
O19   O     O_2   0.023832 0.821279 0.505704 -0.196163
O20   O     O_3   0.980259 0.745046 0.312258 -0.388135
H6    H     H_    0.073231 0.758815 0.315901 0.420215
S5    S     S_3+6 0.669879 0.656508 0.192541 0.183418
O21   O     O_2   0.744229 0.612100 0.282398 -0.260645
O22   O     O_2   0.761116 0.686454 0.113485 -0.168039
O23   O     O_3   0.591373 0.769098 0.235884 -0.444761
H7    H     H_    0.658510 0.822037 0.264750 0.399203
S6    S     S_3+6 0.337513 0.341345 0.810739 0.162249
O24   O     O_2   0.406808 0.243942 0.763509 -0.162602
O25   O     O_2   0.254534 0.304430 0.892896 -0.211819
O26   O     O_3   0.244897 0.393996 0.717269 -0.544104
H8    H     H_    0.159479 0.399438 0.745470 0.428743
F3    F     F_    0.535004 0.747968 0.022605 -0.538013
F4    F     F_    0.481576 0.250271 0.977347 -0.524032
S7    S     S_3+6 0.342362 0.175894 0.345467 0.170823
O27   O     O_2   0.397884 0.140168 0.242848 -0.219253
O28   O     O_2   0.220048 0.113746 0.352310 -0.123890
O29   O     O_3   0.297517 0.305684 0.338071 -0.518891
H9    H     H_    0.270111 0.311644 0.263623 0.370607
S8    S     S_3+6 0.659505 0.825419 0.652864 0.160523
O30   O     O_2   0.693363 0.707726 0.655038 -0.244649
O31   O     O_2   0.782365 0.885897 0.643203 -0.166651
O32   O     O_3   0.602715 0.865230 0.769854 -0.469074
H10   H     H_    0.675928 0.860336 0.821363 0.421989
F5    F     F_    0.661160 0.247395 0.666770 -0.526295
F6    F     F_    0.339654 0.752504 0.332756 -0.555709
F7    F     F_    0.348608 0.955001 0.288166 -0.496948
F8    F     F_    0.653770 0.044769 0.710545 -0.514011

loop_
_geom_bond_atom_site_label_1
_geom_bond_atom_site_label_2
_ccdc_geom_bond_type
O32   H10   S    
C16   C21   S    
C27   C29   A    
C18   C21   S    
C1    C26   S    
S8    O32   S    
C4    C25   A    
O14   H4    S    
C17   C23   S    
C18   C24   S    
C19   C21   S    
S8    O31   D    
C29   H2    S    
C30   H1    S    
C8    C10   A    
S3    O16   D    
C12   S7    S    
C7    C9    A    
C3    C26   A    
S4    O19   D    
C15   C22   S    
C10   F5    S    
S2    O13   D    
O23   H7    S    
C8    F8    S    
C7    C14   A    
O1    Zn1   S    
C17   F1    S    
C18   F2    S    
C13   C14   A    
S6    O26   S    
S1    O10   D    
S2    O14   S    
S5    O21   D    
N1    Zn1   S    
N2    Zn2   S    
S8    O30   D    
C15   O7    A    
C4    C6    A    
S7    O28   D    
S3    O17   S    
O5    Zn1   S    
C27   F3    S    
S1    O9    D    
O17   H5    S    
S5    O22   D    
O26   H8    S    
S4    O18   D    
C4    S5    S    
C5    C28   A    
C2    O4    A    
C6    C27   A    
C20   C23   S    
C7    F7    S    
S2    O12   D    
C15   O5    A    
C16   O6    A    
S6    O25   D    
O11   H3    S    
C20   C22   S    
O20   H6    S    
C21   C23   S    
C9    N2    A    
O7    Zn2   S    
C22   C24   S    
O2    Zn2   S    
O8    Zn1   S    
C16   O8    A    
C28   F4    S    
C1    O1    A    
C10   N1    A    
S1    O11   S    
C2    O2    A    
C25   C30   A    
C23   S3    S    
C24   S4    S    
S4    O20   S    
C11   N2    A    
C12   C14   A    
S6    O24   D    
C3    C5    A    
C9    F6    S    
S7    O29   S    
C19   S1    S    
C1    O3    A    
C11   S8    S    
C17   C22   S    
S5    O23   S    
O3    Zn2   S    
C28   C30   A    
C3    S6    S    
O4    Zn1   S    
C11   C13   A    
S3    O15   D    
C5    C6    A    
C17   C19   S    
C19   C24   S    
C2    C25   S    
C18   C20   S    
S7    O27   D    
C8    C13   A    
O6    Zn2   S    
C26   C29   A    
C20   S2    S    
O29   H9    S    
C12   N1    A    
