data_mof_unit_7423.cif
_audit_creation_date              2012-12-11T17:17:08-0500
_audit_creation_method            fapswitch 2.2
_symmetry_space_group_name_H-M    P1
_symmetry_Int_Tables_number       1
_space_group_crystal_system       triclinic
_cell_length_a                    6.986832
_cell_length_b                    13.361235
_cell_length_c                    14.682969
_cell_angle_alpha                 98.998667
_cell_angle_beta                  90.465526
_cell_angle_gamma                 89.74584
_cell_volume                      1353.77268505

loop_
_atom_site_label
_atom_site_type_symbol
_atom_type_description
_atom_site_fract_x
_atom_site_fract_y
_atom_site_fract_z
_atom_type_partial_charge
O1    O     O_R   0.354890 0.151580 0.148210 -0.535635
O2    O     O_R   0.645110 0.848420 0.851790 -0.535635
O3    O     O_R   0.682370 0.152980 0.336770 -0.526091
O4    O     O_R   0.317630 0.847020 0.663230 -0.526091
O5    O     O_R   0.854980 0.348430 0.351800 -0.540745
O6    O     O_R   0.145020 0.651570 0.648200 -0.540745
C1    C     C_R   0.515204 0.134185 0.368600 0.773660
C2    C     C_R   0.484796 0.865815 0.631400 0.773660
O7    O     O_R   0.684450 0.139580 0.148000 -0.527741
O8    O     O_R   0.315550 0.860420 0.852000 -0.527741
O9    O     O_R   0.857080 0.334940 0.161680 -0.535376
O10   O     O_R   0.142920 0.665060 0.838320 -0.535376
C3    C     C_R   0.515419 0.112750 0.114172 0.771551
C4    C     C_R   0.484581 0.887250 0.885828 0.771551
O11   O     O_R   0.352790 0.165070 0.338330 -0.527131
O12   O     O_R   0.647210 0.834930 0.661670 -0.527131
O13   O     O_3   0.522170 0.314120 0.254710 -0.384385
O14   O     O_3   0.477830 0.685880 0.745290 -0.384385
V1    V     V_3+5 0.796120 0.238110 0.249130 1.549526
V2    V     V_3+5 0.203880 0.761890 0.750870 1.549526
O15   O     O_R   0.186930 0.347040 0.163240 -0.545040
O16   O     O_R   0.813070 0.652960 0.836760 -0.545040
C5    C     C_R   0.017757 0.368554 0.133741 0.738654
C6    C     C_R   0.982243 0.631446 0.866259 0.738654
O17   O     O_R   0.184850 0.360440 0.352010 -0.539982
O18   O     O_R   0.815150 0.639560 0.647990 -0.539982
C7    C     C_R   0.016032 0.387314 0.385779 0.744804
C8    C     C_R   0.983967 0.612686 0.614221 0.744804
V3    V     V_3+5 0.296410 0.261900 0.250880 1.516997
V4    V     V_3+5 0.703590 0.738100 0.749120 1.516997
O19   O     O_3   0.020490 0.185890 0.245290 -0.353261
O20   O     O_3   0.979510 0.814110 0.754710 -0.353261
C9    C     C_1   0.005399 0.466911 0.466283 -0.153113
C10   C     C_1   0.994601 0.533089 0.533717 -0.153113
C11   C     C_3   0.082596 0.587645 0.033442 0.317484
C12   C     C_3   0.917404 0.412355 0.966558 0.317484
C13   C     C_3   0.907681 0.542859 0.076611 -0.190741
C14   C     C_3   0.092319 0.457141 0.923389 -0.190741
H1    H     H_    0.832587 0.578353 0.139934 0.167745
H2    H     H_    0.167413 0.421647 0.860066 0.167745
C15   C     C_3   0.008187 0.438611 0.062919 -0.116238
C16   C     C_3   0.991813 0.561388 0.937081 -0.116239
C17   C     C_3   0.184260 0.483518 0.020861 -0.173583
C18   C     C_3   0.815740 0.516482 0.979139 -0.173583
H3    H     H_    0.336317 0.470593 0.038429 0.156436
H4    H     H_    0.663683 0.529406 0.961571 0.156436
C19   C     C_3   0.328217 0.042625 0.492200 0.202122
C20   C     C_3   0.671782 0.957375 0.507800 0.202123
C21   C     C_3   0.371507 0.927182 0.469665 -0.208012
C22   C     C_3   0.628493 0.072818 0.530335 -0.208011
H5    H     H_    0.283621 0.862422 0.437697 0.191974
H6    H     H_    0.716379 0.137578 0.562303 0.191974
C23   C     C_3   0.491123 0.934907 0.559557 -0.171289
C24   C     C_3   0.508877 0.065093 0.440443 -0.171289
C25   C     C_3   0.447208 0.048907 0.581937 0.147774
C26   C     C_3   0.552792 0.951093 0.418063 0.147774
C27   C     C_1   0.504801 0.033127 0.033711 -0.096539
C28   C     C_1   0.495199 0.966873 0.966289 -0.096538
Br1   Br    Br    0.204108 0.714880 0.082667 -0.521141
Br2   Br    Br    0.795892 0.285120 0.917332 -0.521140
I1    I     I_    0.079032 0.133568 0.488547 -0.344753
I2    I     I_    0.920968 0.866432 0.511452 -0.344754
I3    I     I_    0.371373 0.126445 0.715796 -0.287933
I4    I     I_    0.628627 0.873555 0.284204 -0.287933

loop_
_geom_bond_atom_site_label_1
_geom_bond_atom_site_label_2
_ccdc_geom_bond_type
V4    O20   S    
C6    C16   S    
O4    C2    A    
V1    O19   S    
C19   C21   S    
C7    C9    S    
O9    V1    S    
C22   C24   S    
C11   C13   S    
C14   C16   S    
O3    C1    A    
C3    C27   S    
O12   V4    S    
O13   V3    S    
C11   Br1   S    
O9    C5    A    
C11   C16   S    
O7    C3    A    
O5    C7    A    
O7    V1    S    
O6    C8    A    
O8    V2    S    
C21   H5    S    
C25   I3    S    
C22   H6    S    
C26   I4    S    
O3    V1    S    
O14   V4    S    
C11   C17   S    
C20   C22   S    
C8    C10   S    
C2    O12   A    
C15   C17   S    
C12   C15   S    
C16   C18   S    
C18   H4    S    
O11   V3    S    
C23   C25   S    
O17   V3    S    
C20   C23   S    
C4    C28   S    
C24   C26   S    
O8    C4    A    
O15   V3    S    
C20   I2    S    
O10   V2    S    
O1    V3    S    
C9    C10   T    
C17   H3    S    
C19   C24   S    
O18   V4    S    
O15   C5    A    
O16   C6    A    
C12   C18   S    
O1    C3    A    
C19   C25   S    
V2    O20   S    
C20   C26   S    
O16   V4    S    
C12   Br2   S    
C2    C23   S    
C19   I1    S    
O5    V1    S    
O17   C7    A    
C21   C26   S    
O6    V2    S    
O10   C6    A    
O18   C8    A    
C22   C25   S    
C5    C15   S    
O2    V4    S    
C13   C18   S    
C12   C14   S    
C14   C17   S    
V3    O19   S    
C14   H2    S    
C27   C28   T    
C21   C23   S    
C1    O11   A    
O13   V1    S    
O14   V2    S    
C13   C15   S    
O2    C4    A    
O4    V2    S    
C13   H1    S    
C1    C24   S    
