data_mof_unit_59354.cif
_audit_creation_date              2012-12-10T19:33:11-0500
_audit_creation_method            fapswitch 2.2
_symmetry_space_group_name_H-M    P1
_symmetry_Int_Tables_number       1
_space_group_crystal_system       triclinic
_cell_length_a                    8.815609
_cell_length_b                    15.946648
_cell_length_c                    17.070989
_cell_angle_alpha                 94.161989
_cell_angle_beta                  97.077306
_cell_angle_gamma                 84.158497
_cell_volume                      2364.79310324

loop_
_atom_site_label
_atom_site_type_symbol
_atom_type_description
_atom_site_fract_x
_atom_site_fract_y
_atom_site_fract_z
_atom_type_partial_charge
C1    C     C_R   0.507362 0.490318 0.348682 0.912183
C2    C     C_R   0.490611 0.510066 0.651057 0.908904
C3    C     C_R   0.462759 0.757532 0.443874 0.404429
C4    C     C_R   0.554338 0.238948 0.549185 0.386107
C5    C     C_R   0.503047 0.841778 0.440641 0.074452
C6    C     C_R   0.511583 0.156030 0.552944 0.195434
C7    C     C_R   0.542659 0.888943 0.511711 0.135403
C8    C     C_R   0.465858 0.111346 0.481391 0.133440
C9    C     C_R   0.587563 0.843782 0.579078 0.130931
C10   C     C_R   0.413341 0.159889 0.416525 0.106123
C11   C     C_R   0.596569 0.753864 0.574264 0.431774
C12   C     C_R   0.392951 0.249400 0.427674 0.437389
C13   C     C_R   0.206781 0.521995 0.503050 0.866545
C14   C     C_R   0.795065 0.479130 0.503398 0.867024
C15   C     C_2   0.042226 0.535172 0.500004 0.047801
C16   C     C_2   0.961745 0.472525 0.518411 0.078263
C17   C     C_R   0.512681 0.489883 0.261602 -0.302869
C18   C     C_R   0.474729 0.517087 0.737391 -0.272738
C19   C     C_R   0.564960 0.559682 0.230070 0.199612
C20   C     C_R   0.522831 0.448937 0.786159 0.183788
C21   C     C_R   0.525315 0.576143 0.150203 0.236300
C22   C     C_R   0.547748 0.463610 0.868228 0.209850
C23   C     C_R   0.449275 0.516233 0.098608 0.135705
C24   C     C_R   0.504759 0.543098 0.903208 0.147150
C25   C     C_R   0.415089 0.441301 0.128122 0.208784
C26   C     C_R   0.436240 0.608409 0.856487 0.229538
C27   C     C_R   0.454189 0.425816 0.208337 0.199680
C28   C     C_R   0.418486 0.595361 0.773564 0.201700
Cu1   Cu    Cu3+1 0.492520 0.415770 0.496210 1.157343
Cu2   Cu    Cu3+1 0.507480 0.584230 0.503790 1.153396
N1    N     N_2   0.421464 0.522463 0.015404 -0.119146
N2    N     N_2   0.523486 0.554329 0.986375 -0.111554
N3    N     N_R   0.518730 0.710760 0.509500 -0.307397
N4    N     N_R   0.481270 0.289240 0.490500 -0.310146
N5    N     N_2   0.554962 0.978907 0.516919 -0.054106
N6    N     N_2   0.452905 0.021562 0.474860 -0.092139
O1    O     O_R   0.493000 0.421040 0.382520 -0.534740
O2    O     O_R   0.507000 0.578960 0.617480 -0.524921
O3    O     O_R   0.505640 0.563310 0.388930 -0.523771
O4    O     O_R   0.494360 0.436690 0.611070 -0.529934
O5    O     O_R   0.269980 0.445280 0.497530 -0.531622
O6    O     O_R   0.730020 0.554720 0.502470 -0.543415
O7    O     O_R   0.282610 0.587550 0.503940 -0.508417
O8    O     O_R   0.717390 0.412450 0.496060 -0.510339
Br1   Br    Br    0.957089 0.645740 0.466022 -0.265359
Br2   Br    Br    0.057921 0.389742 0.591005 -0.280714
Br3   Br    Br    0.529297 0.333510 0.746828 -0.219698
Br4   Br    Br    0.718302 0.622339 0.291348 -0.280863
Br5   Br    Br    0.644363 0.375260 0.934404 -0.227908
Br6   Br    Br    0.566103 0.683641 0.115675 -0.148337
Br7   Br    Br    0.318141 0.358235 0.056257 -0.197843
Br8   Br    Br    0.365941 0.714573 0.907148 -0.187000
Br9   Br    Br    0.459226 0.311584 0.238224 -0.233632
Br10  Br    Br    0.297525 0.680876 0.711739 -0.310319
S1    S     S_3+6 0.745776 0.252619 0.588436 0.137190
O9    O     O_2   0.808296 0.182842 0.641503 -0.196992
O10   O     O_2   0.840338 0.247492 0.520531 -0.193361
O11   O     O_3   0.761564 0.345915 0.639479 -0.486232
H1    H     H_    0.834332 0.333772 0.687210 0.402836
S2    S     S_3+6 0.316312 0.727369 0.366386 0.128572
O12   O     O_2   0.186685 0.796302 0.366437 -0.224341
O13   O     O_2   0.377395 0.723820 0.287846 -0.201485
O14   O     O_3   0.238477 0.636714 0.370275 -0.489107
H2    H     H_    0.169908 0.630576 0.320068 0.385249
S3    S     S_3+6 0.446089 0.128773 0.641084 0.146092
O15   O     O_2   0.577970 0.117602 0.705252 -0.139262
O16   O     O_2   0.332801 0.199148 0.666690 -0.194307
O17   O     O_3   0.355278 0.040172 0.626983 -0.471839
H3    H     H_    0.318160 0.033038 0.678332 0.410177
S4    S     S_3+6 0.533994 0.880416 0.348815 0.186006
O18   O     O_2   0.627674 0.954897 0.361030 -0.191034
O19   O     O_2   0.621622 0.812448 0.302658 -0.116691
O20   O     O_3   0.365245 0.907199 0.295185 -0.362845
H4    H     H_    0.297132 0.932982 0.334137 0.376304
Br11  Br    Br    0.647216 0.907817 0.676795 -0.154346
Br12  Br    Br    0.370975 0.103129 0.314316 -0.148229
S5    S     S_3+6 0.726010 0.705875 0.651965 0.114159
O21   O     O_2   0.651368 0.717267 0.727022 -0.233676
O22   O     O_2   0.780114 0.614611 0.638753 -0.269123
O23   O     O_3   0.884637 0.758149 0.665298 -0.446137
H5    H     H_    0.935851 0.744004 0.718289 0.409938
S6    S     S_3+6 0.215261 0.298217 0.379346 0.110190
O24   O     O_2   0.096854 0.298321 0.435225 -0.234382
O25   O     O_2   0.221168 0.386821 0.357009 -0.277680
O26   O     O_3   0.149569 0.243912 0.296127 -0.420990
H6    H     H_    0.044281 0.270346 0.281236 0.395227

loop_
_geom_bond_atom_site_label_1
_geom_bond_atom_site_label_2
_ccdc_geom_bond_type
S1    O9    D    
C2    C18   S    
O20   H4    S    
N5    N6    D    
C13   O5    A    
S5    O21   D    
C5    S4    S    
S2    O14   S    
C19   C21   A    
C24   C26   A    
C3    N3    A    
C15   C16   D    
Cu2   O2    S    
S2    O13   D    
C8    N6    S    
C11   S5    S    
C10   Br12  S    
C6    S3    S    
O17   H3    S    
S3    O16   D    
S4    O18   D    
C18   C20   A    
C1    O1    A    
C14   O6    A    
C3    S2    S    
C21   Br6   S    
S5    O22   D    
C21   C23   A    
C4    N4    A    
C17   C27   A    
C11   N3    A    
C18   C28   A    
C4    C6    A    
C16   Br2   S    
C5    C7    A    
C28   Br10  S    
C19   Br4   S    
C6    C8    A    
O11   H1    S    
O26   H6    S    
Cu1   N4    S    
S2    O12   D    
C23   N1    S    
C24   N2    S    
Cu1   Cu2   S    
C26   Br8   S    
C2    O2    A    
N1    N2    D    
S3    O17   S    
S4    O20   S    
C12   S6    S    
C9    C11   A    
C10   C12   A    
C22   Br5   S    
C20   C22   A    
S6    O24   D    
S6    O25   D    
C13   C15   S    
Cu1   O8    S    
C14   C16   S    
Cu2   O7    S    
C15   Br1   S    
C12   N4    A    
C13   O7    A    
C14   O8    A    
S5    O23   S    
C7    C9    A    
Cu2   N3    S    
Cu1   O5    S    
C7    N5    S    
O23   H5    S    
C3    C5    A    
C27   Br9   S    
C25   C27   A    
S6    O26   S    
C26   C28   A    
C25   Br7   S    
S1    O10   D    
C4    S1    S    
Cu1   O4    S    
C17   C19   A    
Cu2   O3    S    
C22   C24   A    
C23   C25   A    
C20   Br3   S    
C1    O3    A    
O14   H2    S    
C2    O4    A    
C1    C17   S    
C8    C10   A    
S3    O15   D    
S1    O11   S    
Cu1   O1    S    
Cu2   O6    S    
S4    O19   D    
C9    Br11  S    
