data_mof_unit_6699.cif
_audit_creation_date              2012-12-11T15:30:34-0500
_audit_creation_method            fapswitch 2.2
_symmetry_space_group_name_H-M    P1
_symmetry_Int_Tables_number       1
_space_group_crystal_system       triclinic
_cell_length_a                    6.954235
_cell_length_b                    20.455988
_cell_length_c                    24.410815
_cell_angle_alpha                 89.790397
_cell_angle_beta                  90.235601
_cell_angle_gamma                 90.388709
_cell_volume                      3472.44658393

loop_
_atom_site_label
_atom_site_type_symbol
_atom_type_description
_atom_site_fract_x
_atom_site_fract_y
_atom_site_fract_z
_atom_type_partial_charge
O1    O     O_R   0.507310 0.423620 0.460450 -0.531968
O2    O     O_R   0.170760 0.556060 0.437190 -0.530494
O3    O     O_R   0.004040 0.576380 0.539550 -0.527204
C1    C     C_R   0.340522 0.575945 0.421204 0.763692
O4    O     O_R   0.177350 0.422870 0.454070 -0.552213
O5    O     O_R   0.010680 0.442240 0.556560 -0.539760
C2    C     C_R   0.344976 0.398715 0.443485 0.764400
O6    O     O_R   0.500670 0.557760 0.443440 -0.526486
O7    O     O_3   0.340380 0.506510 0.533610 -0.373777
V1    V     V_3+5 0.064130 0.498790 0.493770 1.451593
O8    O     O_R   0.681170 0.443940 0.562810 -0.544467
C3    C     C_R   0.849826 0.423797 0.578660 0.702212
O9    O     O_R   0.674570 0.577130 0.545930 -0.532882
C4    C     C_R   0.844092 0.601077 0.556582 0.807546
V2    V     V_3+5 0.564560 0.501210 0.506230 1.469555
O10   O     O_3   0.838170 0.493490 0.466390 -0.371084
C5    C     C_R   0.968413 0.837804 0.911595 -0.128915
C6    C     C_R   0.856238 0.662942 0.587470 -0.187817
C7    C     C_R   0.953400 0.719708 0.908427 -0.179860
C8    C     C_R   0.969133 0.777231 0.938593 0.378607
C9    C     C_R   0.952258 0.840073 0.854139 -0.273112
C10   C     C_R   0.936477 0.781872 0.822454 0.096357
C11   C     C_R   0.936713 0.721449 0.851098 0.067020
C12   C     C_R   0.920253 0.781353 0.763665 0.068644
C13   C     C_R   0.902630 0.720519 0.734834 0.094959
C14   C     C_R   0.903088 0.662111 0.765884 -0.176956
C15   C     C_R   0.920093 0.662791 0.822560 -0.171561
C16   C     C_R   0.922152 0.839597 0.732760 -0.190491
C17   C     C_R   0.908639 0.839047 0.676071 -0.099372
C18   C     C_R   0.891690 0.780466 0.646829 -0.019423
C19   C     C_R   0.886755 0.720097 0.675954 0.050952
C20   C     C_R   0.880652 0.781455 0.588793 0.358806
C21   C     C_R   0.864075 0.722776 0.559451 0.338894
C22   C     C_R   0.867233 0.661698 0.644862 -0.289338
H1    H     H_    0.920181 0.616526 0.844389 0.134686
H2    H     H_    0.861188 0.614073 0.663705 0.120451
H3    H     H_    0.912138 0.885895 0.655413 0.194374
H4    H     H_    0.953683 0.673282 0.929998 0.157170
H5    H     H_    0.951284 0.888021 0.835776 0.119802
H6    H     H_    0.891649 0.614404 0.747729 0.123161
H7    H     H_    0.935408 0.887169 0.751122 0.138626
C23   C     C_3   0.782619 0.261290 0.804940 -0.252449
C24   C     C_3   0.127380 0.240889 0.777753 0.207690
C25   C     C_3   0.104333 0.291061 0.729872 -0.365158
H8    H     H_    0.796964 0.360720 0.771199 0.165362
H9    H     H_    0.827937 0.287952 0.842493 0.197131
H10   H     H_    0.231482 0.202816 0.764992 0.139762
H11   H     H_    0.146657 0.341040 0.743374 0.199726
H12   H     H_    0.203190 0.277736 0.696006 0.128443
C26   C     C_1   0.860529 0.378213 0.624345 -0.185963
C27   C     C_3   0.930671 0.207199 0.790984 0.083388
C28   C     C_3   0.760974 0.310596 0.756660 -0.311679
C29   C     C_3   0.893963 0.292089 0.708356 0.152963
C30   C     C_3   0.839074 0.221994 0.689626 -0.356816
C31   C     C_3   0.861850 0.171958 0.737646 0.217855
C32   C     C_1   0.873906 0.339644 0.662208 -0.050801
C33   C     C_1   0.950467 0.159722 0.837356 0.079171
C34   C     C_1   0.963705 0.121381 0.875381 -0.110593
H13   H     H_    0.971620 0.135301 0.725858 0.110801
H14   H     H_    0.688781 0.221806 0.673792 0.195563
H15   H     H_    0.640367 0.238876 0.814204 0.225501
H16   H     H_    0.608479 0.311138 0.742614 0.174299
H17   H     H_    0.932805 0.207227 0.655018 0.131825
C35   C     C_3   0.626166 0.717717 0.276866 -0.375801
C36   C     C_3   0.310736 0.683041 0.239804 -0.435409
C37   C     C_3   0.333661 0.734166 0.193087 -0.381301
H18   H     H_    0.730328 0.747969 0.196560 0.086337
H19   H     H_    0.683037 0.670531 0.261384 0.121303
H20   H     H_    0.155185 0.673228 0.247106 0.160432
H21   H     H_    0.374825 0.635775 0.227030 0.176744
H22   H     H_    0.406657 0.710715 0.157812 0.177052
H23   H     H_    0.188446 0.748199 0.178509 0.189638
C38   C     C_1   0.470389 0.879072 0.124860 -0.158523
C39   C     C_3   0.409260 0.708263 0.292640 0.108167
C40   C     C_3   0.655695 0.771691 0.231379 0.345745
C41   C     C_3   0.451666 0.795787 0.211541 0.127769
C42   C     C_3   0.352287 0.827633 0.261749 -0.394633
C43   C     C_3   0.310330 0.775078 0.306497 0.344953
C44   C     C_1   0.459690 0.841634 0.163681 -0.065516
C45   C     C_1   0.380579 0.659895 0.337947 -0.015723
C46   C     C_1   0.356991 0.621335 0.375466 -0.135709
H24   H     H_    0.152988 0.765171 0.302852 0.139521
H25   H     H_    0.441960 0.868086 0.278185 0.162989
H26   H     H_    0.716042 0.728211 0.313400 0.166606
H27   H     H_    0.215751 0.850860 0.249553 0.144062
C47   C     C_R   0.475709 0.161927 0.088927 -0.042290
C48   C     C_R   0.343963 0.337610 0.411246 -0.189641
C49   C     C_R   0.543877 0.277669 0.094660 -0.107420
C50   C     C_R   0.534099 0.220305 0.064325 -0.175883
C51   C     C_R   0.428615 0.161111 0.144854 -0.189949
C52   C     C_R   0.438622 0.219067 0.177146 0.023124
C53   C     C_R   0.497581 0.277947 0.150786 0.048077
C54   C     C_R   0.392619 0.220503 0.234427 0.061336
C55   C     C_R   0.417051 0.279644 0.265071 0.030248
C56   C     C_R   0.462660 0.337245 0.236046 -0.273446
C57   C     C_R   0.508901 0.336689 0.180270 0.368022
C58   C     C_R   0.314483 0.165539 0.261524 -0.186395
C59   C     C_R   0.256827 0.168649 0.315746 -0.149702
C60   C     C_R   0.284399 0.225372 0.346654 0.001445
C61   C     C_R   0.378243 0.280540 0.322997 -0.047713
C62   C     C_R   0.217961 0.227326 0.401103 0.413023
C63   C     C_R   0.237629 0.284736 0.431362 -0.340565
C64   C     C_R   0.427144 0.334000 0.358673 0.313478
H28   H     H_    0.171310 0.287656 0.471387 0.145393
H29   H     H_    0.189899 0.125602 0.333552 0.161555
H30   H     H_    0.590086 0.321904 0.073885 0.169688
H31   H     H_    0.573448 0.221382 0.021419 0.128664
H32   H     H_    0.391243 0.114172 0.162051 0.087154
H33   H     H_    0.450710 0.384429 0.255016 0.190965
H34   H     H_    0.286436 0.119824 0.241215 0.115143
O11   O     O_R   0.323590 0.942280 0.056590 -0.529789
O12   O     O_R   0.647030 0.077140 0.045940 -0.544093
O13   O     O_R   0.813570 0.057750 0.943430 -0.533603
C65   C     C_R   0.479165 0.101128 0.056645 0.682327
O14   O     O_R   0.653510 0.943950 0.062820 -0.537418
O15   O     O_R   0.820100 0.923600 0.960440 -0.529428
C66   C     C_R   0.483954 0.923887 0.078681 0.746045
O16   O     O_R   0.317060 0.076430 0.039590 -0.538110
O17   O     O_3   0.483830 0.993520 0.966410 -0.363500
V3    V     V_3+5 0.760140 0.001200 0.006230 1.467611
O18   O     O_R   0.149560 0.922820 0.954030 -0.531319
C67   C     C_R   0.980081 0.898937 0.943367 0.785923
O19   O     O_R   0.143080 0.056020 0.937150 -0.535296
C68   C     C_R   0.974403 0.076067 0.921240 0.708591
V4    V     V_3+5 0.259690 0.998730 0.993720 1.492877
O20   O     O_3   0.986120 0.006480 0.033580 -0.375836
Cl1   Cl    Cl    0.890069 0.855945 0.551606 -0.616979
Cl2   Cl    Cl    0.231608 0.279935 0.836694 -0.687804
Cl3   Cl    Cl    0.641697 0.127082 0.747619 -0.678176
O21   O     O_3   0.329138 0.798597 0.361144 -0.542416
C69   C     C_3   0.520677 0.807283 0.379112 0.096656
H35   H     H_    0.614687 0.829300 0.347419 0.151797
H36   H     H_    0.579824 0.759745 0.392986 0.180178
C70   C     C_3   0.522273 0.853109 0.428012 -0.539231
H37   H     H_    0.436707 0.831635 0.462024 0.258041
H38   H     H_    0.672357 0.860964 0.442314 0.238844
H39   H     H_    0.460091 0.901028 0.416188 0.196898
Cl4   Cl    Cl    0.854746 0.724020 0.486996 -0.633352
O22   O     O_3   0.780386 0.820339 0.254501 -0.572415
C71   C     C_3   0.816907 0.877001 0.222282 0.061643
H40   H     H_    0.918512 0.908106 0.245957 0.140874
H41   H     H_    0.688073 0.908133 0.218609 0.119520
C72   C     C_3   0.911523 0.864442 0.166552 -0.714541
H42   H     H_    0.830845 0.829138 0.140939 0.238295
H43   H     H_    0.921794 0.911306 0.143654 0.199671
H44   H     H_    0.058455 0.846115 0.171718 0.211506
O23   O     O_3   0.548168 0.394667 0.152578 -0.553094
C73   C     C_3   0.710252 0.426275 0.175840 0.075650
H45   H     H_    0.826321 0.391051 0.186767 0.121696
H46   H     H_    0.667270 0.454000 0.212841 0.131698
C74   C     C_3   0.792044 0.474752 0.134559 -0.664718
H47   H     H_    0.681688 0.511566 0.123479 0.227748
H48   H     H_    0.918705 0.500291 0.152533 0.178606
H49   H     H_    0.837492 0.448651 0.097000 0.228276
O24   O     O_3   0.556051 0.382487 0.343533 -0.571370
C75   C     C_3   0.744474 0.358607 0.351337 0.107687
H50   H     H_    0.770503 0.314519 0.325799 0.125978
H51   H     H_    0.770441 0.346231 0.395247 0.134844
C76   C     C_3   0.888892 0.411026 0.334522 -0.680029
H52   H     H_    0.867807 0.455865 0.359185 0.232294
H53   H     H_    0.037284 0.392992 0.341150 0.178179
H54   H     H_    0.870665 0.423172 0.290522 0.190395
O25   O     O_3   0.114290 0.175390 0.422696 -0.556306
C77   C     C_3   0.230887 0.142280 0.461136 0.056161
H55   H     H_    0.261033 0.173666 0.497389 0.127664
H56   H     H_    0.369424 0.127010 0.442369 0.126266
C78   C     C_3   0.125847 0.081108 0.480690 -0.630336
H57   H     H_    0.095780 0.048310 0.445468 0.223210
H58   H     H_    0.216073 0.054636 0.511031 0.196898
H59   H     H_    0.987907 0.094611 0.500293 0.225393
Cl5   Cl    Cl    0.988269 0.771898 0.010498 -0.680140

loop_
_geom_bond_atom_site_label_1
_geom_bond_atom_site_label_2
_ccdc_geom_bond_type
C25   H12   S    
C13   C19   A    
C72   H44   S    
C62   C63   A    
C31   H13   S    
C4    C6    S    
O2    C1    A    
C56   C57   A    
C41   C44   S    
C1    O6    A    
C69   C70   S    
C24   C27   S    
C70   H39   S    
O12   C65   A    
C58   C59   A    
C51   C52   A    
O19   C68   A    
C78   H58   S    
C30   H14   S    
C42   C43   S    
C14   C15   A    
C54   C55   A    
C59   H29   S    
O15   C67   A    
C40   O22   S    
C35   H19   S    
C20   Cl1   S    
C16   C17   A    
C73   H46   S    
C76   H52   S    
O5    C3    A    
C18   C19   A    
C59   C60   A    
V3    O20   S    
O19   V4    S    
C30   H17   S    
C42   H25   S    
C72   H42   S    
C48   C63   A    
C16   H7    S    
C53   C57   A    
C5    C8    A    
C23   H9    S    
C74   H49   S    
C35   H26   S    
O23   C73   S    
O8    V2    S    
C25   C29   S    
C2    C48   S    
C1    C46   S    
C7    C8    A    
C31   Cl3   S    
O11   V4    S    
C74   H47   S    
C76   H53   S    
O1    V2    S    
O16   V4    S    
C11   C15   A    
O7    V1    S    
C27   C31   S    
C23   C27   S    
C10   C12   A    
C42   H27   S    
C39   C45   S    
O9    C4    A    
C77   H55   S    
C78   H59   S    
C77   C78   S    
C71   H40   S    
C37   H23   S    
C19   C22   A    
C38   C66   S    
C49   C53   A    
C62   O25   S    
C73   C74   S    
C12   C13   A    
C56   H33   S    
C52   C53   A    
O4    C2    A    
C70   H38   S    
H8    C28   S    
O14   C66   A    
C13   C14   A    
C29   C30   S    
C61   C64   A    
C26   C32   T    
C36   C39   S    
O15   V3    S    
C7    C11   A    
C40   C41   S    
O18   V4    S    
C17   C18   A    
C7    H4    S    
C52   C54   A    
O13   V3    S    
C49   H30   S    
C43   H24   S    
C37   H22   S    
C9    H5    S    
C55   C61   A    
C21   Cl4   S    
O22   C71   S    
C37   C41   S    
C50   H31   S    
C38   C44   T    
C76   H54   S    
C41   C42   S    
C71   C72   S    
C63   H28   S    
C6    C22   A    
C23   H15   S    
O18   C67   A    
C65   O16   A    
O3    C4    A    
C27   C33   S    
O17   V4    S    
C64   O24   S    
C60   C62   A    
O14   V3    S    
O6    V2    S    
O9    V2    S    
C24   C25   S    
C47   C51   A    
V4    O20   S    
C48   C64   A    
H18   C40   S    
C69   H35   S    
O2    V1    S    
C54   C58   A    
C78   H57   S    
C28   C29   S    
O12   V3    S    
C29   C32   S    
C72   H43   S    
C57   O23   S    
C30   C31   S    
C75   H50   S    
O1    C2    A    
C75   C76   S    
C12   C16   A    
C71   H41   S    
C45   C46   T    
C69   H36   S    
C47   C50   A    
C24   Cl2   S    
O5    V1    S    
C3    C26   S    
O17   V3    S    
C70   H37   S    
C34   C68   S    
C60   C61   A    
C47   C65   S    
O11   C66   A    
C15   H1    S    
C20   C21   A    
C75   H51   S    
O21   C69   S    
C43   O21   S    
C51   H32   S    
O4    V1    S    
O3    V1    S    
V1    O10   S    
C18   C20   A    
C58   H34   S    
C14   H6    S    
C33   C34   T    
O13   C68   A    
C36   H20   S    
C77   H56   S    
C35   C40   S    
C22   H2    S    
C73   H45   S    
C74   H48   S    
O7    V2    S    
C55   C56   A    
C6    C21   A    
C5    C9    A    
O25   C77   S    
C25   H11   S    
C5    C67   S    
C8    Cl5   S    
C49   C50   A    
C36   C37   S    
C39   C43   S    
C17   H3    S    
O24   C75   S    
C35   C39   S    
C10   C11   A    
C28   H16   S    
C36   H21   S    
C9    C10   A    
C24   H10   S    
V2    O10   S    
O8    C3    A    
C23   C28   S    
