data_mof_unit_64825.cif
_audit_creation_date              2013-03-05T15:47:57-0500
_audit_creation_method            fapswitch 2.2
_symmetry_space_group_name_H-M    P1
_symmetry_Int_Tables_number       1
_space_group_crystal_system       monoclinic
_cell_length_a                    21.793627
_cell_length_b                    21.793627
_cell_length_c                    23.528393
_cell_angle_alpha                 90.0
_cell_angle_beta                  90.0
_cell_angle_gamma                 90.000246
_cell_volume                      11175.0967797

loop_
_atom_site_label
_atom_site_type_symbol
_atom_site_description
_atom_site_fract_x
_atom_site_fract_y
_atom_site_fract_z
_atom_type_partial_charge
O1    O     O_R   0.408370 0.051730 0.500010 -0.607616
O2    O     O_R   0.948270 0.408370 0.500010 -0.607612
O3    O     O_R   0.591630 0.948270 0.500010 -0.607615
O4    O     O_R   0.051730 0.591630 0.500010 -0.607611
O5    O     O_R   0.591630 0.051730 0.499990 -0.607612
O6    O     O_R   0.051730 0.408370 0.499990 -0.607615
O7    O     O_R   0.408370 0.948270 0.499990 -0.607611
O8    O     O_R   0.948270 0.591630 0.499990 -0.607617
O9    O     O_R   0.908370 0.551730 0.000010 -0.607617
O10   O     O_R   0.448270 0.908370 0.000010 -0.607612
O11   O     O_R   0.091630 0.448270 0.000010 -0.607615
O12   O     O_R   0.551730 0.091630 0.000010 -0.607611
O13   O     O_R   0.091630 0.551730 0.999990 -0.607612
O14   O     O_R   0.551730 0.908370 0.999990 -0.607615
O15   O     O_R   0.908370 0.448270 0.999990 -0.607611
O16   O     O_R   0.448270 0.091630 0.999990 -0.607617
C1    C     C_R   0.379743 1.000000 0.500000 0.941461
C2    C     C_R   1.000000 0.379743 0.500000 0.941464
C3    C     C_R   0.620257 0.000000 0.500000 0.941463
C4    C     C_R   0.000000 0.620257 0.500000 0.941461
C5    C     C_R   0.879743 0.500000 1.000000 0.941461
C6    C     C_R   0.500000 0.879743 0.000000 0.941464
C7    C     C_R   0.120257 0.500000 1.000000 0.941463
C8    C     C_R   0.500000 0.120257 0.000000 0.941461
O17   O     O_R   0.499980 0.051730 0.417240 -0.581105
O18   O     O_R   0.948270 0.499980 0.417240 -0.581103
O19   O     O_R   0.500020 0.948270 0.417240 -0.581100
O20   O     O_R   0.051730 0.500020 0.417240 -0.581104
O21   O     O_R   0.500020 0.051730 0.582760 -0.581104
O22   O     O_R   0.051730 0.499980 0.582760 -0.581101
O23   O     O_R   0.499980 0.948270 0.582760 -0.581104
O24   O     O_R   0.948270 0.500020 0.582760 -0.581104
O25   O     O_R   0.999980 0.551730 0.917240 -0.581105
O26   O     O_R   0.448270 0.999980 0.917240 -0.581103
O27   O     O_R   0.000020 0.448270 0.917240 -0.581100
O28   O     O_R   0.551730 0.000020 0.917240 -0.581104
O29   O     O_R   0.000020 0.551730 0.082760 -0.581104
O30   O     O_R   0.551730 0.999980 0.082760 -0.581101
O31   O     O_R   0.999980 0.448270 0.082760 -0.581104
O32   O     O_R   0.448270 0.000020 0.082760 -0.581104
C9    C     C_R   0.500000 1.000000 0.390763 0.996739
C10   C     C_R   0.000000 0.500000 0.390763 0.996741
C11   C     C_R   0.500000 0.000000 0.609237 0.996741
C12   C     C_R   0.000000 0.500000 0.609237 0.996739
C13   C     C_R   1.000000 0.500000 0.890763 0.996739
C14   C     C_R   0.500000 1.000000 0.890763 0.996741
C15   C     C_R   1.000000 0.500000 0.109237 0.996741
C16   C     C_R   0.500000 0.000000 0.109237 0.996739
Zn1   Zn    Zn3+2 0.500000 0.069080 0.500000 1.175037
Zn2   Zn    Zn3+2 0.930920 0.500000 0.500000 1.175037
Zn3   Zn    Zn3+2 0.500000 0.930920 0.500000 1.175040
Zn4   Zn    Zn3+2 0.069080 0.500000 0.500000 1.175039
Zn5   Zn    Zn3+2 1.000000 0.569080 0.000000 1.175037
Zn6   Zn    Zn3+2 0.430920 0.000000 0.000000 1.175037
Zn7   Zn    Zn3+2 1.000000 0.430920 0.000000 1.175040
Zn8   Zn    Zn3+2 0.569080 0.000000 0.000000 1.175039
C17   C     C_1   0.500000 1.000000 0.330447 0.056909
C18   C     C_1   0.000000 0.500000 0.330447 0.056911
C19   C     C_1   0.500000 1.000000 0.669553 0.056911
C20   C     C_1   0.000000 0.500000 0.669553 0.056909
C21   C     C_1   1.000000 0.500000 0.830447 0.056909
C22   C     C_1   0.500000 0.000000 0.830447 0.056911
C23   C     C_1   1.000000 0.500000 0.169553 0.056911
C24   C     C_1   0.500000 1.000000 0.169553 0.056909
C25   C     C_1   0.500000 1.000000 0.279648 0.125351
C26   C     C_1   0.000000 0.500000 0.279648 0.125354
C27   C     C_1   0.500000 1.000000 0.720352 0.125355
C28   C     C_1   0.000000 0.500000 0.720352 0.125351
C29   C     C_1   1.000000 0.500000 0.779648 0.125351
C30   C     C_1   0.500000 1.000000 0.779648 0.125354
C31   C     C_1   1.000000 0.500000 0.220352 0.125355
C32   C     C_1   0.500000 1.000000 0.220352 0.125351
C33   C     C_R   0.308468 0.921680 0.420577 0.110577
C34   C     C_R   0.078317 0.308469 0.420575 0.110575
C35   C     C_R   0.691532 0.078318 0.420576 0.110575
C36   C     C_R   0.921683 0.691531 0.420576 0.110576
C37   C     C_R   0.691531 0.921683 0.579425 0.110575
C38   C     C_R   0.921681 0.308468 0.579424 0.110576
C39   C     C_R   0.308469 0.078317 0.579424 0.110576
C40   C     C_R   0.078320 0.691532 0.579423 0.110577
C41   C     C_R   0.808468 0.421680 0.920577 0.110577
C42   C     C_R   0.578317 0.808469 0.920575 0.110575
C43   C     C_R   0.191532 0.578318 0.920576 0.110575
C44   C     C_R   0.421683 0.191531 0.920575 0.110576
C45   C     C_R   0.191531 0.421683 0.079425 0.110574
C46   C     C_R   0.421681 0.808468 0.079424 0.110576
C47   C     C_R   0.808469 0.578317 0.079424 0.110576
C48   C     C_R   0.578320 0.191532 0.079423 0.110577
C49   C     C_R   0.277176 0.869881 0.399504 0.582010
C50   C     C_R   0.130116 0.277178 0.399502 0.582010
C51   C     C_R   0.722824 0.130117 0.399503 0.582011
C52   C     C_R   0.869884 0.722822 0.399503 0.582008
C53   C     C_R   0.722822 0.869884 0.600498 0.582010
C54   C     C_R   0.869883 0.277176 0.600497 0.582011
C55   C     C_R   0.277178 0.130116 0.600497 0.582008
C56   C     C_R   0.130118 0.722824 0.600496 0.582010
C57   C     C_R   0.777176 0.369881 0.899504 0.582010
C58   C     C_R   0.630116 0.777178 0.899502 0.582010
C59   C     C_R   0.222824 0.630117 0.899503 0.582011
C60   C     C_R   0.369884 0.222822 0.899503 0.582008
C61   C     C_R   0.222822 0.369884 0.100498 0.582011
C62   C     C_R   0.369883 0.777176 0.100497 0.582011
C63   C     C_R   0.777178 0.630116 0.100497 0.582008
C64   C     C_R   0.630119 0.222824 0.100496 0.582010
C65   C     C_R   0.216741 0.859065 0.415033 0.598140
C66   C     C_R   0.140934 0.216743 0.415032 0.598141
C67   C     C_R   0.783258 0.140934 0.415033 0.598139
C68   C     C_R   0.859066 0.783256 0.415033 0.598141
C69   C     C_R   0.783256 0.859066 0.584968 0.598141
C70   C     C_R   0.859065 0.216742 0.584967 0.598139
C71   C     C_R   0.216744 0.140934 0.584967 0.598141
C72   C     C_R   0.140935 0.783259 0.584967 0.598140
C73   C     C_R   0.716741 0.359065 0.915033 0.598140
C74   C     C_R   0.640934 0.716743 0.915032 0.598141
C75   C     C_R   0.283258 0.640934 0.915033 0.598139
C76   C     C_R   0.359066 0.283256 0.915033 0.598141
C77   C     C_R   0.283256 0.359066 0.084968 0.598140
C78   C     C_R   0.359065 0.716742 0.084967 0.598139
C79   C     C_R   0.716744 0.640934 0.084967 0.598141
C80   C     C_R   0.640935 0.283259 0.084967 0.598140
C81   C     C_R   0.185875 0.901701 0.448134 -0.365716
C82   C     C_R   0.098299 0.185876 0.448134 -0.365714
C83   C     C_R   0.814125 0.098299 0.448134 -0.365714
C84   C     C_R   0.901701 0.814123 0.448134 -0.365714
C85   C     C_R   0.814123 0.901701 0.551866 -0.365714
C86   C     C_R   0.901701 0.185875 0.551866 -0.365714
C87   C     C_R   0.185876 0.098299 0.551866 -0.365714
C88   C     C_R   0.098299 0.814125 0.551866 -0.365716
C89   C     C_R   0.685875 0.401701 0.948134 -0.365716
C90   C     C_R   0.598299 0.685876 0.948134 -0.365714
C91   C     C_R   0.314125 0.598299 0.948134 -0.365715
C92   C     C_R   0.401701 0.314123 0.948134 -0.365714
C93   C     C_R   0.314123 0.401701 0.051866 -0.365713
C94   C     C_R   0.401701 0.685875 0.051866 -0.365714
C95   C     C_R   0.685876 0.598299 0.051866 -0.365714
C96   C     C_R   0.598299 0.314125 0.051866 -0.365716
C97   C     C_R   0.216971 0.952919 0.471310 -0.025749
C98   C     C_R   0.047080 0.216971 0.471310 -0.025752
C99   C     C_R   0.783029 0.047081 0.471310 -0.025750
C100  C     C_R   0.952920 0.783028 0.471310 -0.025753
C101  C     C_R   0.783029 0.952920 0.528690 -0.025752
C102  C     C_R   0.952919 0.216971 0.528690 -0.025750
C103  C     C_R   0.216971 0.047080 0.528690 -0.025753
C104  C     C_R   0.047081 0.783029 0.528690 -0.025749
C105  C     C_R   0.716971 0.452919 0.971310 -0.025749
C106  C     C_R   0.547080 0.716971 0.971310 -0.025752
C107  C     C_R   0.283029 0.547081 0.971310 -0.025750
C108  C     C_R   0.452920 0.283029 0.971310 -0.025753
C109  C     C_R   0.283029 0.452920 0.028690 -0.025752
C110  C     C_R   0.452919 0.716971 0.028690 -0.025750
C111  C     C_R   0.716971 0.547080 0.028690 -0.025753
C112  C     C_R   0.547081 0.283029 0.028690 -0.025749
C113  C     C_R   0.280564 0.958371 0.463886 -0.094974
C114  C     C_R   0.041627 0.280565 0.463886 -0.094973
C115  C     C_R   0.719436 0.041628 0.463886 -0.094975
C116  C     C_R   0.958373 0.719435 0.463886 -0.094973
C117  C     C_R   0.719435 0.958373 0.536114 -0.094973
C118  C     C_R   0.958372 0.280564 0.536114 -0.094975
C119  C     C_R   0.280565 0.041627 0.536114 -0.094973
C120  C     C_R   0.041628 0.719436 0.536114 -0.094974
C121  C     C_R   0.780564 0.458371 0.963886 -0.094974
C122  C     C_R   0.541627 0.780565 0.963886 -0.094973
C123  C     C_R   0.219436 0.541628 0.963886 -0.094975
C124  C     C_R   0.458373 0.219435 0.963886 -0.094973
C125  C     C_R   0.219435 0.458373 0.036114 -0.094973
C126  C     C_R   0.458372 0.780564 0.036114 -0.094975
C127  C     C_R   0.780565 0.541627 0.036114 -0.094973
C128  C     C_R   0.541628 0.219436 0.036114 -0.094974
C129  C     C_R   0.185639 1.000000 0.500000 0.028128
C130  C     C_R   1.000000 0.185639 0.500000 0.028127
C131  C     C_R   0.814361 0.000000 0.500000 0.028127
C132  C     C_R   0.000000 0.814361 0.500000 0.028128
C133  C     C_R   0.685639 0.500000 1.000000 0.028128
C134  C     C_R   0.500000 0.685638 0.000000 0.028127
C135  C     C_R   0.314361 0.500000 1.000000 0.028127
C136  C     C_R   0.500000 0.314361 0.000000 0.028128
C137  C     C_R   0.312996 0.999999 0.500000 -0.002152
C138  C     C_R   0.999999 0.312996 0.500000 -0.002150
C139  C     C_R   0.687004 0.000000 0.500000 -0.002150
C140  C     C_R   0.000000 0.687004 0.500000 -0.002152
C141  C     C_R   0.812996 0.499999 1.000000 -0.002152
C142  C     C_R   0.500000 0.812996 1.000000 -0.002150
C143  C     C_R   0.187004 0.500000 0.000000 -0.002150
C144  C     C_R   0.500000 0.187004 0.000000 -0.002152
H1    H     H_    0.137498 0.894078 0.455144 0.193089
H2    H     H_    0.105922 0.137500 0.455144 0.193087
H3    H     H_    0.862501 0.105922 0.455143 0.193088
H4    H     H_    0.894077 0.862500 0.455144 0.193087
H5    H     H_    0.862500 0.894078 0.544856 0.193087
H6    H     H_    0.894078 0.137498 0.544856 0.193088
H7    H     H_    0.137500 0.105922 0.544856 0.193087
H8    H     H_    0.105922 0.862502 0.544856 0.193089
H9    H     H_    0.637498 0.394078 0.955144 0.193089
H10   H     H_    0.605922 0.637500 0.955144 0.193087
H11   H     H_    0.362501 0.605922 0.955144 0.193088
H12   H     H_    0.394078 0.362500 0.955144 0.193087
H13   H     H_    0.362500 0.394078 0.044856 0.193087
H14   H     H_    0.394078 0.637498 0.044856 0.193088
H15   H     H_    0.637500 0.605922 0.044856 0.193087
H16   H     H_    0.605922 0.362502 0.044856 0.193089
O33   O     O_R   0.999980 0.091600 0.546760 -0.605991
O34   O     O_R   0.908400 0.999980 0.546760 -0.605990
O35   O     O_R   0.000020 0.908400 0.546760 -0.605991
O36   O     O_R   0.091600 0.000020 0.546760 -0.605990
O37   O     O_R   0.000020 0.091600 0.453240 -0.605991
O38   O     O_R   0.091600 0.999980 0.453240 -0.605991
O39   O     O_R   0.999980 0.908400 0.453240 -0.605990
O40   O     O_R   0.908400 0.000020 0.453240 -0.605990
O41   O     O_R   0.499980 0.591600 0.046760 -0.605991
O42   O     O_R   0.408400 0.499980 0.046760 -0.605990
O43   O     O_R   0.500020 0.408400 0.046760 -0.605991
O44   O     O_R   0.591600 0.500020 0.046760 -0.605990
O45   O     O_R   0.500020 0.591600 0.953240 -0.605991
O46   O     O_R   0.591600 0.499980 0.953240 -0.605991
O47   O     O_R   0.499980 0.408400 0.953240 -0.605990
O48   O     O_R   0.408400 0.500020 0.953240 -0.605990
C145  C     C_R   1.000000 0.119988 0.500000 0.822422
C146  C     C_R   0.880011 1.000000 0.500000 0.822422
C147  C     C_R   1.000000 0.880011 0.500000 0.822422
C148  C     C_R   0.119988 0.000000 0.500000 0.822422
C149  C     C_R   0.500000 0.619989 0.000000 0.822422
C150  C     C_R   0.380011 0.500000 0.000000 0.822422
C151  C     C_R   0.500000 0.380011 0.000000 0.822422
C152  C     C_R   0.619988 0.500000 1.000000 0.822422
Zn9   Zn    Zn3+2 0.000000 0.000000 0.562420 1.090637
Zn10  Zn    Zn3+2 0.000000 0.000000 0.437580 1.090637
Zn11  Zn    Zn3+2 0.500000 0.500000 0.062420 1.090637
Zn12  Zn    Zn3+2 0.500000 0.500000 0.937580 1.090637
F1    F     F_    0.303448 0.167697 0.639541 -0.512134
F2    F     F_    0.832302 0.303446 0.639541 -0.512135
F3    F     F_    0.696552 0.832304 0.639542 -0.512134
F4    F     F_    0.167699 0.696554 0.639540 -0.512134
F5    F     F_    0.696554 0.167698 0.360459 -0.512135
F6    F     F_    0.167696 0.303448 0.360458 -0.512134
F7    F     F_    0.303446 0.832301 0.360460 -0.512134
F8    F     F_    0.832303 0.696552 0.360459 -0.512134
F9    F     F_    0.803448 0.667697 0.139541 -0.512134
F10   F     F_    0.332302 0.803446 0.139541 -0.512135
F11   F     F_    0.196552 0.332304 0.139542 -0.512134
F12   F     F_    0.667699 0.196554 0.139540 -0.512134
F13   F     F_    0.196554 0.667698 0.860459 -0.512135
F14   F     F_    0.667696 0.803448 0.860458 -0.512134
F15   F     F_    0.803446 0.332301 0.860460 -0.512134
F16   F     F_    0.332303 0.196552 0.860459 -0.512134
N1    N     N_R   0.361172 0.943190 0.389978 0.213501
O49   O     O_R   0.364360 0.000978 0.376331 -0.404162
O50   O     O_R   0.396844 0.904387 0.363977 -0.283366
N2    N     N_R   0.056805 0.361172 0.389976 0.213499
O51   O     O_R   0.999015 0.364360 0.376333 -0.404159
O52   O     O_R   0.095605 0.396841 0.363970 -0.283370
N3    N     N_R   0.638828 0.056808 0.389977 0.213500
O53   O     O_R   0.635640 0.999019 0.376332 -0.404161
O54   O     O_R   0.603158 0.095609 0.363974 -0.283368
N4    N     N_R   0.943194 0.638828 0.389976 0.213500
O55   O     O_R   0.000984 0.635640 0.376333 -0.404159
O56   O     O_R   0.904394 0.603159 0.363970 -0.283369
N5    N     N_R   0.638828 0.943195 0.610024 0.213499
O57   O     O_R   0.635640 0.000984 0.623667 -0.404159
O58   O     O_R   0.603159 0.904394 0.636030 -0.283370
N6    N     N_R   0.943192 0.361172 0.610023 0.213500
O59   O     O_R   0.000981 0.364360 0.623668 -0.404161
O60   O     O_R   0.904390 0.396842 0.636026 -0.283368
N7    N     N_R   0.361172 0.056805 0.610024 0.213500
O61   O     O_R   0.364359 0.999016 0.623667 -0.404159
O62   O     O_R   0.396841 0.095606 0.636029 -0.283369
N8    N     N_R   0.056810 0.638827 0.610022 0.213500
O63   O     O_R   0.999022 0.635640 0.623669 -0.404162
O64   O     O_R   0.095613 0.603156 0.636023 -0.283366
N9    N     N_R   0.861172 0.443190 0.889978 0.213501
O65   O     O_R   0.864360 0.500978 0.876331 -0.404162
O66   O     O_R   0.896844 0.404387 0.863977 -0.283366
N10   N     N_R   0.556805 0.861172 0.889976 0.213499
O67   O     O_R   0.499015 0.864360 0.876333 -0.404159
O68   O     O_R   0.595605 0.896841 0.863970 -0.283370
N11   N     N_R   0.138828 0.556808 0.889977 0.213500
O69   O     O_R   0.135640 0.499019 0.876332 -0.404161
O70   O     O_R   0.103158 0.595609 0.863974 -0.283368
N12   N     N_R   0.443194 0.138828 0.889976 0.213500
O71   O     O_R   0.500984 0.135640 0.876333 -0.404159
O72   O     O_R   0.404394 0.103159 0.863970 -0.283369
N13   N     N_R   0.138828 0.443195 0.110024 0.213499
O73   O     O_R   0.135640 0.500985 0.123666 -0.404159
O74   O     O_R   0.103158 0.404394 0.136030 -0.283370
N14   N     N_R   0.443192 0.861172 0.110023 0.213500
O75   O     O_R   0.500981 0.864360 0.123668 -0.404161
O76   O     O_R   0.404390 0.896842 0.136026 -0.283368
N15   N     N_R   0.861172 0.556805 0.110024 0.213500
O77   O     O_R   0.864359 0.499016 0.123666 -0.404159
O78   O     O_R   0.896841 0.595606 0.136029 -0.283369
N16   N     N_R   0.556810 0.138827 0.110022 0.213500
O79   O     O_R   0.499022 0.135640 0.123669 -0.404162
O80   O     O_R   0.595613 0.103156 0.136022 -0.283366
F17   F     F_    0.186198 0.809939 0.393744 -0.561115
F18   F     F_    0.190060 0.186202 0.393742 -0.561115
F19   F     F_    0.813801 0.190060 0.393743 -0.561114
F20   F     F_    0.809939 0.813798 0.393743 -0.561114
F21   F     F_    0.813798 0.809940 0.606258 -0.561115
F22   F     F_    0.809940 0.186199 0.606257 -0.561114
F23   F     F_    0.186202 0.190061 0.606257 -0.561114
F24   F     F_    0.190061 0.813802 0.606256 -0.561115
F25   F     F_    0.686198 0.309939 0.893744 -0.561115
F26   F     F_    0.690060 0.686202 0.893742 -0.561115
F27   F     F_    0.313801 0.690060 0.893743 -0.561114
F28   F     F_    0.309939 0.313798 0.893743 -0.561114
F29   F     F_    0.313798 0.309940 0.106258 -0.561114
F30   F     F_    0.309939 0.686199 0.106257 -0.561114
F31   F     F_    0.686202 0.690060 0.106257 -0.561114
F32   F     F_    0.690061 0.313802 0.106256 -0.561115

loop_
_geom_bond_atom_site_label_1
_geom_bond_atom_site_label_2
_geom_bond_distance
_ccdc_geom_bond_type
C136  C151  1.430752 S    
O8    Zn2   2.032429 S    
C8    C144  1.454659 S    
O25   C13   1.288051 A    
C78   C94   1.386532 A    
C77   C93   1.386531 A    
C10   C18   1.419141 S    
O33   Zn9   2.030014 S    
C14   C22   1.419141 S    
C48   N16   1.434353 S    
N14   O75   1.301557 A    
C47   N15   1.434354 S    
O18   Zn2   1.983583 S    
C95   H15   1.079972 S    
C58   C74   1.387013 A    
C90   C106  1.415127 A    
C74   F26   1.356552 S    
O41   C149  1.262214 A    
C22   C30   1.195219 T    
N7    O62   1.301428 A    
O47   Zn12  2.030014 S    
C117  C139  1.429901 A    
N4    O56   1.301428 A    
C47   C127  1.430949 A    
N10   O67   1.301559 A    
C48   C128  1.430951 A    
C60   C76   1.387010 A    
O38   Zn10  2.030014 S    
N15   O78   1.301428 A    
C99   C131  1.405251 A    
C104  C120  1.401940 A    
C89   C105  1.415127 A    
C102  C130  1.405251 A    
C98   C114  1.401939 A    
C45   N13   1.434356 S    
N1    O49   1.301561 A    
C74   C90   1.386532 A    
O5    Zn1   2.032432 S    
C62   C78   1.387010 A    
C102  C118  1.401939 A    
C96   C112  1.415127 A    
N2    O52   1.301432 A    
O34   Zn9   2.030014 S    
C123  C143  1.429903 A    
C125  C143  1.429901 A    
C51   C67   1.387010 A    
N3    O53   1.301557 A    
O17   C9    1.288051 A    
C52   F8    1.357377 S    
C109  C135  1.405252 A    
O43   C151  1.262215 A    
C97   C113  1.401940 A    
O37   Zn10  2.030014 S    
C87   C103  1.415127 A    
C88   C104  1.415127 A    
C100  C116  1.401939 A    
C47   C63   1.409002 A    
C101  C117  1.401939 A    
C23   C31   1.195219 T    
O26   Zn6   1.983583 S    
N9    O66   1.301435 A    
O27   C13   1.288053 A    
C3    C139  1.454657 S    
O35   Zn9   2.030014 S    
O31   C15   1.288053 A    
C1    C137  1.454659 S    
C64   F12   1.357375 S    
C93   H13   1.079974 S    
C91   H11   1.079975 S    
C45   C125  1.430950 A    
C34   C50   1.409002 A    
C118  C138  1.429903 A    
C13   C21   1.419141 S    
O45   Zn12  2.030014 S    
C15   C23   1.419141 S    
C116  C140  1.429900 A    
O9    C5    1.288499 A    
C105  C121  1.401940 A    
C38   C54   1.409001 A    
C111  C127  1.401939 A    
C70   F22   1.356554 S    
O11   C7    1.288499 A    
C67   F19   1.356554 S    
O16   Zn6   2.032429 S    
C58   F14   1.357373 S    
C131  C146  1.430752 S    
C16   C24   1.419141 S    
C9    C17   1.419141 S    
O4    C4    1.288498 A    
C35   C115  1.430950 A    
C129  C148  1.430752 S    
C33   N1    1.434353 S    
C46   N14   1.434354 S    
O6    Zn4   2.032431 S    
O36   Zn9   2.030014 S    
C133  C152  1.430752 S    
O42   C150  1.262215 A    
C126  C142  1.429903 A    
O21   Zn1   1.983580 S    
O37   C145  1.262216 A    
O48   Zn12  2.030014 S    
O23   C11   1.288053 A    
C40   N8    1.434353 S    
C82   H2    1.079974 S    
C76   F28   1.356553 S    
C110  C126  1.401939 A    
C83   C99   1.415127 A    
C101  C131  1.405252 A    
O13   C7    1.288498 A    
N5    O57   1.301559 A    
C81   C97   1.415127 A    
C86   H6    1.079975 S    
C120  C140  1.429903 A    
O2    Zn2   2.032435 S    
C19   C27   1.195219 T    
O44   Zn11  2.030014 S    
C52   C68   1.387010 A    
C85   C101  1.415127 A    
O7    C1    1.288498 A    
C44   N12   1.434354 S    
C91   C107  1.415127 A    
O26   C14   1.288053 A    
O29   C15   1.288051 A    
C36   N4    1.434354 S    
O30   C16   1.288051 A    
C60   F16   1.357377 S    
C11   C19   1.419141 S    
O29   Zn5   1.983580 S    
C37   N5    1.434356 S    
C43   N11   1.434354 S    
C48   C64   1.409001 A    
O19   Zn3   1.983583 S    
O24   C12   1.288053 A    
C113  C137  1.429903 A    
C96   H16   1.079973 S    
C42   C58   1.409002 A    
C108  C124  1.401939 A    
C109  C125  1.401939 A    
C84   H4    1.079972 S    
C42   C122  1.430950 A    
C87   H7    1.079972 S    
C88   H8    1.079973 S    
O15   Zn7   2.032435 S    
C7    C143  1.454657 S    
C34   N2    1.434356 S    
O39   Zn10  2.030014 S    
C76   C92   1.386534 A    
C99   C115  1.401939 A    
C66   C82   1.386532 A    
O3    C3    1.288499 A    
N8    O64   1.301435 A    
C70   C86   1.386532 A    
O32   Zn6   1.983580 S    
C49   F7    1.357375 S    
C46   C62   1.409001 A    
C54   F2    1.357375 S    
O44   C152  1.262216 A    
O22   Zn4   1.983580 S    
O23   Zn3   1.983580 S    
N6    O59   1.301557 A    
N13   O74   1.301432 A    
C25   C32   1.395137 S    
O12   C8    1.288498 A    
O1    C1    1.288499 A    
C27   C30   1.395137 S    
O34   C146  1.262215 A    
N14   O76   1.301432 A    
C6    C142  1.454657 S    
C107  C123  1.401939 A    
C53   F3    1.357373 S    
C121  C141  1.429903 A    
O30   Zn8   1.983580 S    
C2    C138  1.454657 S    
N10   O68   1.301432 A    
C49   C65   1.387011 A    
C38   N6    1.434354 S    
N12   O71   1.301555 A    
C53   C69   1.387013 A    
C61   F11   1.357373 S    
C39   N7    1.434354 S    
N11   O69   1.301557 A    
C46   C126  1.430950 A    
C67   C83   1.386532 A    
N7    O61   1.301555 A    
O10   C6    1.288498 A    
C106  C122  1.401939 A    
O18   C10   1.288053 A    
C72   F24   1.356552 S    
O36   C148  1.262216 A    
C65   F17   1.356552 S    
C59   C75   1.387010 A    
C107  C135  1.405251 A    
C40   C120  1.430951 A    
C98   C130  1.405252 A    
N16   O79   1.301561 A    
O45   C149  1.262216 A    
O31   Zn7   1.983580 S    
C28   C29   1.395137 S    
C130  C145  1.430752 S    
C36   C116  1.430949 A    
C43   C59   1.409001 A    
N9    O65   1.301561 A    
O21   C11   1.288051 A    
O22   C12   1.288051 A    
C134  C149  1.430752 S    
C35   N3    1.434354 S    
C112  C128  1.401940 A    
C115  C139  1.429903 A    
O13   Zn5   2.032432 S    
O40   C146  1.262217 A    
C82   C98   1.415127 A    
O3    Zn3   2.032429 S    
O38   C148  1.262214 A    
C86   C102  1.415127 A    
C79   C95   1.386534 A    
C80   C96   1.386534 A    
C44   C60   1.409002 A    
C39   C55   1.409002 A    
N4    O55   1.301555 A    
O28   Zn8   1.983583 S    
O7    Zn3   2.032435 S    
N15   O77   1.301555 A    
C41   N9    1.434353 S    
C108  C136  1.405250 A    
C106  C134  1.405252 A    
C50   C66   1.387013 A    
C79   F31   1.356554 S    
C77   F29   1.356554 S    
C71   F23   1.356553 S    
C114  C138  1.429901 A    
O9    Zn5   2.032431 S    
O11   Zn7   2.032429 S    
N2    O51   1.301559 A    
C43   C123  1.430950 A    
C41   C121  1.430951 A    
C84   C100  1.415127 A    
C55   F1    1.357377 S    
C17   C25   1.195219 T    
C90   H10   1.079974 S    
C103  C119  1.401939 A    
O5    C3    1.288498 A    
C104  C132  1.405251 A    
C61   C77   1.387013 A    
C33   C49   1.409001 A    
O14   C6    1.288499 A    
C12   C20   1.419141 S    
C95   C111  1.415127 A    
C37   C53   1.409002 A    
C54   C70   1.387010 A    
C68   C84   1.386534 A    
O17   Zn1   1.983583 S    
C72   C88   1.386534 A    
C20   C28   1.195219 T    
C73   F25   1.356552 S    
C69   F21   1.356552 S    
C75   F27   1.356554 S    
O41   Zn11  2.030014 S    
C64   C80   1.387011 A    
O14   Zn8   2.032431 S    
C111  C133  1.405250 A    
O2    C2    1.288498 A    
O42   Zn11  2.030014 S    
C68   F20   1.356553 S    
C4    C140  1.454659 S    
C75   C91   1.386532 A    
C5    C141  1.454659 S    
C56   C72   1.387011 A    
C34   C114  1.430950 A    
O8    C4    1.288499 A    
C73   C89   1.386534 A    
O4    Zn4   2.032432 S    
N11   O70   1.301432 A    
C122  C142  1.429901 A    
N3    O54   1.301432 A    
C94   C110  1.415127 A    
C50   F6    1.357373 S    
C42   N10   1.434356 S    
O32   C16   1.288053 A    
C18   C26   1.195219 T    
C26   C31   1.395137 S    
C128  C144  1.429903 A    
C40   C56   1.409001 A    
O46   Zn12  2.030014 S    
C97   C129  1.405251 A    
C44   C124  1.430949 A    
O40   Zn10  2.030014 S    
C24   C32   1.195219 T    
O16   C8    1.288499 A    
O43   Zn11  2.030014 S    
C119  C137  1.429900 A    
C66   F18   1.356552 S    
C38   C118  1.430950 A    
O25   Zn5   1.983583 S    
O6    C2    1.288499 A    
C62   F10   1.357375 S    
O27   Zn7   1.983583 S    
C92   C108  1.415127 A    
C93   C109  1.415127 A    
C103  C129  1.405250 A    
N6    O60   1.301432 A    
N13   O73   1.301559 A    
N5    O58   1.301432 A    
C59   F13   1.357375 S    
C124  C144  1.429900 A    
C57   F15   1.357375 S    
O19   C9    1.288053 A    
C63   F9    1.357377 S    
C80   F32   1.356552 S    
C65   C81   1.386534 A    
O28   C14   1.288051 A    
O24   Zn2   1.983580 S    
O12   Zn8   2.032432 S    
C132  C147  1.430752 S    
O46   C152  1.262214 A    
C36   C52   1.409002 A    
C69   C85   1.386532 A    
C110  C134  1.405251 A    
C105  C133  1.405251 A    
C71   C87   1.386534 A    
N12   O72   1.301428 A    
C57   C73   1.387011 A    
C45   C61   1.409002 A    
C21   C29   1.195219 T    
C94   H14   1.079975 S    
C63   C79   1.387010 A    
O47   C151  1.262217 A    
C89   H9    1.079973 S    
C35   C51   1.409001 A    
O39   C147  1.262217 A    
O35   C147  1.262215 A    
N1    O50   1.301435 A    
C51   F5    1.357375 S    
O33   C145  1.262214 A    
C55   C71   1.387010 A    
O20   Zn4   1.983583 S    
C127  C141  1.429900 A    
C41   C57   1.409001 A    
C78   F30   1.356554 S    
C39   C119  1.430949 A    
O20   C10   1.288051 A    
C135  C150  1.430752 S    
N16   O80   1.301435 A    
C56   F4    1.357375 S    
C83   H3    1.079975 S    
O10   Zn6   2.032435 S    
O48   C150  1.262217 A    
N8    O63   1.301561 A    
C81   H1    1.079973 S    
C112  C136  1.405251 A    
O15   C5    1.288498 A    
C100  C132  1.405250 A    
C33   C113  1.430951 A    
C92   H12   1.079972 S    
C85   H5    1.079974 S    
O1    Zn1   2.032431 S    
C37   C117  1.430950 A    
