data_mof_unit_46523.cif
_audit_creation_date              2012-12-10T19:00:45-0500
_audit_creation_method            fapswitch 2.2
_symmetry_space_group_name_H-M    P1
_symmetry_Int_Tables_number       1
_space_group_crystal_system       triclinic
_cell_length_a                    15.082391
_cell_length_b                    10.855912
_cell_length_c                    9.555575
_cell_angle_alpha                 90.816838
_cell_angle_beta                  89.637999
_cell_angle_gamma                 90.789876
_cell_volume                      1564.22703507

loop_
_atom_site_label
_atom_site_type_symbol
_atom_type_description
_atom_site_fract_x
_atom_site_fract_y
_atom_site_fract_z
_atom_type_partial_charge
C1    C     C_R   0.496469 0.262270 0.498590 0.795696
C2    C     C_R   0.907650 0.498694 0.371400 0.109579
C3    C     C_R   0.952545 0.500061 0.754837 -0.211851
C4    C     C_R   0.044983 0.500470 0.755081 -0.198662
C5    C     C_R   0.092284 0.500120 0.628316 0.099269
C6    C     C_R   0.046452 0.499382 0.499974 0.062190
C7    C     C_R   0.093470 0.498849 0.371882 0.107996
C8    C     C_R   0.047397 0.498238 0.244874 -0.202795
C9    C     C_R   0.954950 0.498213 0.244634 -0.210762
C10   C     C_R   0.184687 0.500507 0.627648 -0.229056
C11   C     C_R   0.231678 0.499761 0.500465 -0.077286
C12   C     C_R   0.328611 0.499863 0.500293 0.815748
C13   C     C_R   0.185827 0.498933 0.373029 -0.238571
C14   C     C_R   0.484761 0.065890 0.621739 0.115160
C15   C     C_R   0.484790 0.128773 0.495457 -0.153628
C16   C     C_R   0.470383 0.059304 0.370137 -0.037892
C17   C     C_R   0.471886 0.930692 0.374200 -0.258090
C18   C     C_R   0.486708 0.870178 0.500809 -0.114267
C19   C     C_R   0.485012 0.939272 0.624916 0.138625
C20   C     C_3   0.544671 0.939383 0.749040 -0.484195
C21   C     C_3   0.544632 0.078972 0.744783 -0.435787
C22   C     C_R   0.574550 0.533094 0.073370 0.238074
C23   C     C_R   0.497801 0.737602 0.500763 0.809089
C24   C     C_R   0.430136 0.454028 0.075520 -0.048148
C25   C     C_R   0.430684 0.450106 0.927528 0.451080
C26   C     C_R   0.574704 0.532653 0.926205 0.190679
C27   C     C_3   0.623939 0.652178 0.921698 -0.493662
C28   C     C_3   0.623062 0.653469 0.080681 -0.478295
C29   C     C_R   0.671375 0.499828 0.499674 0.815369
C30   C     C_R   0.815236 0.498717 0.372120 -0.246380
C31   C     C_R   0.768291 0.499287 0.499361 -0.074650
C32   C     C_R   0.814167 0.499209 0.626710 -0.249441
C33   C     C_R   0.906496 0.499476 0.627825 0.109864
C34   C     C_R   0.953501 0.499211 0.499728 0.064383
Cu1   Cu    Cu3+1 0.500000 0.499980 0.640670 0.950216
Cu2   Cu    Cu3+1 0.500000 0.500020 0.359330 0.950274
H1    H     H_    0.780044 0.498112 0.273553 0.149749
H2    H     H_    0.465385 0.878460 0.277095 0.166367
H3    H     H_    0.510162 0.903561 0.843462 0.201918
H4    H     H_    0.610640 0.899339 0.725200 0.196045
H5    H     H_    0.510870 0.122154 0.836444 0.220540
H6    H     H_    0.610363 0.119941 0.717368 0.198361
H7    H     H_    0.373666 0.416699 0.131727 0.167160
H8    H     H_    0.691453 0.642592 0.876061 0.191152
H9    H     H_    0.583668 0.725338 0.876131 0.212844
H10   H     H_    0.690182 0.644764 0.126457 0.189479
H11   H     H_    0.778200 0.498805 0.725241 0.150210
H12   H     H_    0.582308 0.728495 0.126878 0.211723
H13   H     H_    0.917083 0.500324 0.853844 0.135782
H14   H     H_    0.079457 0.501003 0.854265 0.144783
H15   H     H_    0.219817 0.501496 0.726252 0.196638
H16   H     H_    0.221850 0.498399 0.274466 0.156958
H17   H     H_    0.082847 0.497835 0.145861 0.142829
H18   H     H_    0.920466 0.497830 0.145458 0.136390
N1    N     N_R   0.500570 0.500930 0.147930 -0.225617
N2    N     N_R   0.500570 0.500890 0.852020 -0.236161
O1    O     O_R   0.500000 0.319640 0.618810 -0.604156
O2    O     O_R   0.500010 0.319680 0.381230 -0.567647
O3    O     O_R   0.370250 0.499950 0.618800 -0.567698
O4    O     O_R   0.370260 0.499990 0.381220 -0.599441
O5    O     O_R   0.499990 0.680320 0.618770 -0.577393
O6    O     O_R   0.500000 0.680360 0.381190 -0.585827
O7    O     O_R   0.629740 0.500010 0.618780 -0.585254
O8    O     O_R   0.629750 0.500050 0.381200 -0.582155
O9    O     O_3   0.360025 0.392109 0.863963 -0.747751
H19   H     H_    0.384193 0.342396 0.785849 0.360643
C35   C     C_1   0.457983 0.114501 0.235069 0.280566
N3    N     N_1   0.448000 0.157883 0.126472 -0.310911

loop_
_geom_bond_atom_site_label_1
_geom_bond_atom_site_label_2
_ccdc_geom_bond_type
C8    H17   S    
Cu1   N2    S    
C11   C12   S    
C29   O7    A    
C6    C7    A    
C1    C15   S    
C1    O1    A    
C13   H16   S    
C31   C32   A    
C19   C20   S    
C25   N2    A    
C2    C30   A    
C30   C31   A    
Cu1   O1    S    
C32   C33   A    
C27   H9    S    
C17   C18   A    
C3    H13   S    
C29   O8    A    
C5    C10   A    
Cu1   O5    S    
C16   C35   S    
C22   C28   S    
C1    O2    A    
C20   C21   S    
C24   N1    A    
C4    C5    A    
C11   C13   A    
C28   H10   S    
C26   C27   S    
C22   N1    A    
C24   H7    S    
C35   N3    T    
Cu2   O6    S    
C10   H15   S    
C14   C19   A    
C14   C21   S    
Cu1   O3    S    
C9    H18   S    
C33   C34   A    
Cu2   O2    S    
C17   H2    S    
C5    C6    A    
C20   H4    S    
C32   H11   S    
C21   H5    S    
C7    C8    A    
C10   C11   A    
C3    C33   A    
C15   C16   A    
C12   O4    A    
C6    C34   A    
C7    C13   A    
C2    C9    A    
C25   O9    S    
C24   C25   A    
C30   H1    S    
C29   C31   S    
O9    H19   S    
C22   C26   A    
C23   O5    A    
C27   C28   S    
Cu2   N1    S    
C20   H3    S    
C14   C15   A    
C18   C19   A    
Cu1   O7    S    
C21   H6    S    
C2    C34   A    
Cu2   O8    S    
C12   O3    A    
C27   H8    S    
C23   O6    A    
C28   H12   S    
C3    C4    A    
C18   C23   S    
C16   C17   A    
C4    H14   S    
C8    C9    A    
Cu2   O4    S    
Cu1   Cu2   S    
C26   N2    A    
