data_mof_unit_14221.cif
_audit_creation_date              2013-03-05T16:36:37-0500
_audit_creation_method            fapswitch 2.2
_symmetry_space_group_name_H-M    P1
_symmetry_Int_Tables_number       1
_space_group_crystal_system       triclinic
_cell_length_a                    17.70479
_cell_length_b                    9.090892
_cell_length_c                    7.788269
_cell_angle_alpha                 90.077905
_cell_angle_beta                  89.999962
_cell_angle_gamma                 90.0
_cell_volume                      1253.53891284

loop_
_atom_site_label
_atom_site_type_symbol
_atom_site_description
_atom_site_fract_x
_atom_site_fract_y
_atom_site_fract_z
_atom_type_partial_charge
O1    O     O_R   0.500000 0.288390 0.642760 -0.575913
O2    O     O_R   0.500000 0.711610 0.357240 -0.575913
O3    O     O_R   0.500000 0.711610 0.642760 -0.574301
O4    O     O_R   0.500000 0.288390 0.357240 -0.574301
C1    C     C_R   0.499999 0.220030 0.499935 0.839363
C2    C     C_R   0.499999 0.779969 0.500065 0.839364
O5    O     O_R   0.391250 0.500000 0.642840 -0.579465
O6    O     O_R   0.608750 0.500000 0.357160 -0.579505
O7    O     O_R   0.608750 0.500000 0.642840 -0.579504
O8    O     O_R   0.391250 0.500000 0.357160 -0.579465
C3    C     C_1   0.499998 0.065379 0.499911 -0.181712
C4    C     C_1   0.499998 0.934621 0.500089 -0.181712
C5    C     C_R   0.355426 0.500000 0.500000 0.808581
C6    C     C_R   0.644579 0.500000 0.500000 0.808462
Cu1   Cu    Cu3+1 0.500000 0.500000 0.669080 0.993494
Cu2   Cu    Cu3+1 0.500000 0.500000 0.330920 0.993495
C7    C     C_R   0.846403 0.385538 0.579391 -0.149463
C8    C     C_R   0.153618 0.614867 0.421409 -0.149402
C9    C     C_R   0.153618 0.385127 0.578587 -0.149402
C10   C     C_R   0.846404 0.614455 0.420604 -0.149461
H1    H     H_    0.877775 0.297313 0.640062 0.140194
H2    H     H_    0.122248 0.703407 0.361360 0.140176
H3    H     H_    0.122249 0.296586 0.638636 0.140176
H4    H     H_    0.877777 0.702680 0.359931 0.140193
C11   C     C_R   0.767349 0.384062 0.580552 0.119114
C12   C     C_R   0.232672 0.616347 0.420265 0.119186
C13   C     C_R   0.232673 0.383650 0.579735 0.119185
C14   C     C_R   0.767350 0.615934 0.419446 0.119114
C15   C     C_R   0.727402 0.499999 0.499999 -0.041965
C16   C     C_R   0.272612 0.499999 0.500000 -0.041701
C17   C     C_R   0.885434 0.499996 0.499997 0.051282
C18   C     C_R   0.114587 0.499996 0.499997 0.051265
C19   C     C_1   0.966144 0.499995 0.499996 -0.039808
C20   C     C_1   0.033877 0.499995 0.499997 -0.039789
N1    N     N_1   0.500000 0.500000 0.076820 -0.049587
N2    N     N_1   0.500000 0.500000 0.923180 -0.049587
C21   C     C_3   0.726784 0.256813 0.663844 -0.842911
H5    H     H_    0.766862 0.171866 0.710746 0.225939
H6    H     H_    0.693540 0.296378 0.775516 0.252621
H7    H     H_    0.688323 0.203789 0.569619 0.219395
C22   C     C_3   0.273254 0.744000 0.337864 -0.843430
H8    H     H_    0.311658 0.796617 0.432517 0.219414
H9    H     H_    0.306567 0.704957 0.226049 0.252548
H10   H     H_    0.233183 0.829130 0.291384 0.226083
C23   C     C_3   0.273255 0.255999 0.662138 -0.843429
H11   H     H_    0.233185 0.170869 0.708622 0.226083
H12   H     H_    0.311659 0.203380 0.567486 0.219414
H13   H     H_    0.306569 0.295044 0.773953 0.252548
C24   C     C_3   0.726786 0.743185 0.336156 -0.842915
H14   H     H_    0.766864 0.828130 0.289251 0.225940
H15   H     H_    0.693539 0.703622 0.224487 0.252621
H16   H     H_    0.688327 0.796212 0.430384 0.219395

loop_
_geom_bond_atom_site_label_1
_geom_bond_atom_site_label_2
_geom_bond_distance
_ccdc_geom_bond_type
O4    Cu2   1.934892 S    
C9    H3    1.084484 S    
O7    C6    1.280628 A    
C17   C19   1.428962 S    
C12   C16   1.416398 A    
C21   H5    1.110881 S    
O1    Cu1   1.934338 S    
O2    Cu2   1.934337 S    
C14   C24   1.508926 S    
C5    C16   1.466201 S    
N1    N2    1.196590 T    
C8    C12   1.399731 A    
C3    C4    1.188701 T    
C24   H16   1.110680 S    
C7    C11   1.399740 A    
C13   C23   1.508912 S    
O5    Cu1   1.936211 S    
C19   C20   1.199195 T    
O7    Cu1   1.936211 S    
O3    Cu1   1.934892 S    
C21   H6    1.109677 S    
O8    Cu2   1.936211 S    
C23   H11   1.110879 S    
C13   C16   1.416399 A    
C2    C4    1.405923 S    
C22   H9    1.109681 S    
O2    C2    1.273443 A    
O1    C1    1.273443 A    
C9    C18   1.394416 A    
C14   C15   1.416481 A    
C1    C3    1.405923 S    
C21   H7    1.110682 S    
C23   H12   1.110685 S    
Cu2   N1    1.978998 S    
C11   C15   1.416480 A    
C7    C17   1.394380 A    
C22   H10   1.110881 S    
C8    C18   1.394416 A    
C6    C15   1.466366 S    
Cu1   Cu2   2.633682 S    
Cu1   N2    1.978998 S    
O5    C5    1.280584 A    
C9    C13   1.399733 A    
O6    Cu2   1.936211 S    
C24   H14   1.110883 S    
C22   H8    1.110683 S    
C23   H13   1.109683 S    
O6    C6    1.280628 A    
C10   C14   1.399739 A    
C11   C21   1.508926 S    
C8    H2    1.084487 S    
C10   C17   1.394381 A    
O3    C2    1.274038 A    
C7    H1    1.084482 S    
C10   H4    1.084485 S    
C12   C22   1.508912 S    
O4    C1    1.274038 A    
C24   H15   1.109673 S    
O8    C5    1.280584 A    
C18   C20   1.428959 S    
