data_mof_unit_42648.cif
_audit_creation_date              2012-12-10T17:38:07-0500
_audit_creation_method            fapswitch 2.2
_symmetry_space_group_name_H-M    P1
_symmetry_Int_Tables_number       1
_space_group_crystal_system       triclinic
_cell_length_a                    12.034066
_cell_length_b                    12.78971
_cell_length_c                    19.223277
_cell_angle_alpha                 90.485254
_cell_angle_beta                  86.304689
_cell_angle_gamma                 95.310884
_cell_volume                      2939.86147263

loop_
_atom_site_label
_atom_site_type_symbol
_atom_type_description
_atom_site_fract_x
_atom_site_fract_y
_atom_site_fract_z
_atom_type_partial_charge
C1    C     C_R   0.523971 0.700101 0.497894 0.902717
C2    C     C_R   0.513586 0.129417 0.455615 -0.086983
C3    C     C_R   0.470058 0.975446 0.530022 0.039152
C4    C     C_R   0.529943 0.024555 0.469990 0.039157
C5    C     C_R   0.945898 0.385486 0.446465 0.392043
C6    C     C_R   0.054103 0.614514 0.553537 0.392044
C7    C     C_R   0.832321 0.401879 0.448618 -0.105613
C8    C     C_R   0.167679 0.598115 0.551387 -0.105679
C9    C     C_R   0.860506 0.548821 0.523719 0.029287
C10   C     C_R   0.139494 0.451183 0.476278 0.029291
C11   C     C_R   0.978273 0.541656 0.519849 -0.127041
C12   C     C_R   0.476029 0.299899 0.502107 0.902723
C13   C     C_R   0.021728 0.458346 0.480151 -0.127130
C14   C     C_R   0.500114 0.499809 0.634308 0.913226
C15   C     C_R   0.499886 0.500190 0.365692 0.913229
C16   C     C_R   0.397962 0.486947 0.749772 -0.200487
C17   C     C_R   0.602038 0.513027 0.250227 -0.200489
C18   C     C_R   0.396458 0.486226 0.821969 -0.050401
C19   C     C_R   0.603540 0.513742 0.178030 -0.050397
C20   C     C_R   0.498423 0.496274 0.854706 -0.069168
C21   C     C_R   0.501574 0.503707 0.145293 -0.069176
C22   C     C_R   0.601184 0.504575 0.814879 0.492165
C23   C     C_R   0.457390 0.187652 0.505820 -0.149095
C24   C     C_R   0.398812 0.495425 0.185121 0.492167
C25   C     C_R   0.600941 0.507550 0.742388 -0.294166
C26   C     C_R   0.399056 0.492456 0.257612 -0.294157
C27   C     C_R   0.499802 0.498063 0.709880 -0.105193
C28   C     C_R   0.500197 0.501930 0.290120 -0.105200
C29   C     C_R   0.501053 0.502010 0.069826 0.348618
C30   C     C_R   0.498943 0.497969 0.930172 0.348625
C31   C     C_3   0.947242 0.207558 0.448431 0.088877
C32   C     C_3   0.001749 0.115403 0.414720 -0.766146
C33   C     C_3   0.052867 0.792459 0.551634 0.088881
C34   C     C_R   0.542609 0.812349 0.494187 -0.149085
C35   C     C_3   0.998287 0.884600 0.585309 -0.766307
C36   C     C_1   0.289380 0.472086 0.861037 0.213708
C37   C     C_1   0.710619 0.527862 0.138961 0.213716
C38   C     C_3   0.766155 0.436881 0.833722 0.084219
C39   C     C_3   0.861893 0.444490 0.882017 -0.720916
C40   C     C_3   0.233859 0.563152 0.166273 0.084197
C41   C     C_3   0.138119 0.555555 0.117982 -0.720961
C42   C     C_1   0.546098 0.178680 0.388423 0.178651
C43   C     C_1   0.453883 0.821308 0.611581 0.178629
C44   C     C_1   0.331301 0.202648 0.611922 0.194332
C45   C     C_R   0.605090 0.967500 0.427452 -0.044835
C46   C     C_1   0.668718 0.797364 0.388093 0.194340
C47   C     C_1   0.685698 0.017003 0.375456 0.168032
C48   C     C_1   0.314321 0.983013 0.624570 0.167981
C49   C     C_1   0.191379 0.375627 0.431911 0.356918
C50   C     C_1   0.808622 0.624386 0.568080 0.356978
C51   C     C_R   0.394919 0.032507 0.572565 -0.044830
C52   C     C_R   0.605594 0.859795 0.437353 -0.086275
C53   C     C_R   0.394416 0.140211 0.562660 -0.086265
C54   C     C_R   0.486408 0.870580 0.544393 -0.086980
H1    H     H_    0.319345 0.478487 0.724771 0.181306
H2    H     H_    0.969589 0.041584 0.442149 0.197018
H3    H     H_    0.982301 0.108214 0.359096 0.277922
H4    H     H_    0.027690 0.785156 0.496823 0.132579
H5    H     H_    0.145187 0.810319 0.551409 0.149281
H6    H     H_    0.017537 0.891723 0.640961 0.277953
H7    H     H_    0.030554 0.958438 0.557951 0.197047
H8    H     H_    0.906228 0.873048 0.581882 0.251743
H9    H     H_    0.802631 0.439888 0.779046 0.142084
H10   H     H_    0.716207 0.359818 0.843165 0.142512
H11   H     H_    0.828306 0.440786 0.937233 0.267037
H12   H     H_    0.680655 0.521476 0.275227 0.181305
H13   H     H_    0.914308 0.378346 0.871599 0.205914
H14   H     H_    0.914752 0.519683 0.873199 0.262805
H15   H     H_    0.283823 0.640205 0.156822 0.142520
H16   H     H_    0.197385 0.560166 0.220947 0.142093
H17   H     H_    0.085250 0.480372 0.126803 0.262821
H18   H     H_    0.085716 0.621710 0.128396 0.205914
H19   H     H_    0.171706 0.559246 0.062768 0.267044
H20   H     H_    0.679708 0.519361 0.711701 0.172522
H21   H     H_    0.320289 0.480661 0.288299 0.172530
H22   H     H_    0.225130 0.650704 0.579152 0.166180
H23   H     H_    0.774871 0.349278 0.420861 0.166219
H24   H     H_    0.854904 0.189679 0.448767 0.149203
H25   H     H_    0.972587 0.214912 0.503210 0.132572
H26   H     H_    0.093845 0.126992 0.418019 0.251772
N1    N     N_R   0.565559 0.437192 0.962953 -0.143667
N2    N     N_1   0.428992 0.781152 0.664790 -0.178796
N3    N     N_1   0.281139 0.252345 0.651092 -0.201817
N4    N     N_1   0.718887 0.747672 0.348924 -0.201799
N5    N     N_1   0.750395 0.055477 0.333966 -0.183159
N6    N     N_1   0.249631 0.944548 0.666068 -0.183140
N7    N     N_1   0.232832 0.315226 0.395980 -0.193578
N8    N     N_1   0.767171 0.684794 0.604006 -0.193550
N9    N     N_R   0.434437 0.562786 0.037045 -0.143663
N10   N     N_R   0.566495 0.439081 0.031884 -0.160923
N11   N     N_R   0.433501 0.560898 0.968115 -0.160923
N12   N     N_R   0.207800 0.519350 0.512860 -0.153362
N13   N     N_R   0.792200 0.480650 0.487140 -0.153387
N14   N     N_1   0.203640 0.460756 0.892251 -0.191153
N15   N     N_1   0.796360 0.539176 0.107748 -0.191157
N16   N     N_1   0.570978 0.218827 0.335209 -0.178788
O1    O     O_R   0.421690 0.658830 0.503430 -0.624744
O2    O     O_3   0.018108 0.700109 0.590119 -0.609883
O3    O     O_3   0.700640 0.521726 0.847586 -0.594310
O4    O     O_3   0.299353 0.478289 0.152416 -0.594299
O5    O     O_R   0.578310 0.341170 0.496570 -0.624744
O6    O     O_R   0.609320 0.646410 0.495180 -0.618141
O7    O     O_R   0.390680 0.353590 0.504820 -0.618141
O8    O     O_R   0.406160 0.506220 0.605990 -0.614013
O9    O     O_R   0.593840 0.493780 0.394010 -0.614013
O10   O     O_R   0.593780 0.493810 0.597740 -0.632158
O11   O     O_R   0.406220 0.506190 0.402260 -0.632150
O12   O     O_3   0.981884 0.299886 0.409888 -0.609850
Zn1   Zn    Zn3+2 0.374720 0.508290 0.505510 0.955242
Zn2   Zn    Zn3+2 0.625280 0.491710 0.494490 0.955244

loop_
_geom_bond_atom_site_label_1
_geom_bond_atom_site_label_2
_ccdc_geom_bond_type
O9    Zn2   S    
C33   H4    S    
C39   H11   S    
C39   H14   S    
C49   N7    T    
C44   N3    T    
C29   N9    A    
C20   C30   S    
C12   C23   S    
C17   H12   S    
C40   H16   S    
C42   N16   T    
C47   N5    T    
C19   C21   A    
C24   C26   A    
C25   H20   S    
C38   C39   S    
C3    C54   A    
N12   Zn1   S    
C46   C52   S    
C8    H22   S    
C37   N15   T    
C33   O2    S    
C31   O12   S    
C15   O11   A    
C34   C52   A    
C19   C37   S    
C17   C19   A    
C44   C53   S    
C48   C51   S    
C22   C25   A    
C8    N12   A    
C14   C27   S    
N9    N11   A    
C5    C13   A    
C50   N8    T    
N13   Zn2   S    
C7    H23   S    
C16   C27   A    
C10   N12   A    
C33   H5    S    
O11   Zn1   S    
C32   H3    S    
C29   N10   A    
C1    C34   S    
C23   C53   A    
C38   H10   S    
C4    C45   A    
C45   C47   S    
C7    N13   A    
C40   H15   S    
C6    O2    S    
C12   O7    A    
C1    O1    A    
C6    C11   A    
C5    C7    A    
C3    C51   A    
C38   O3    S    
C6    C8    A    
C45   C52   A    
O5    Zn2   S    
C21   C29   S    
C35   H6    S    
C51   C53   A    
C2    C4    A    
C32   H26   S    
O1    Zn1   S    
C43   C54   S    
C14   O8    A    
C31   C32   S    
C26   H21   S    
C35   H7    S    
C9    C11   A    
C41   H18   S    
C46   N4    T    
N1    N10   A    
C40   C41   S    
C20   C22   A    
C34   C54   A    
C48   N6    T    
O6    Zn2   S    
C3    C4    A    
C9    N13   A    
C31   H24   S    
C38   H9    S    
O10   Zn2   S    
C22   O3    S    
C24   O4    S    
C17   C28   A    
C39   H13   S    
C9    C50   S    
C30   N11   A    
C10   C13   A    
C40   O4    S    
C31   H25   S    
C25   C27   A    
C26   C28   A    
C41   H17   S    
O7    Zn1   S    
C15   O9    A    
C30   N1    A    
C16   H1    S    
C12   O5    A    
C11   C13   A    
C15   C28   S    
O8    Zn1   S    
C2    C42   S    
C33   C35   S    
C35   H8    S    
C18   C20   A    
C41   H19   S    
C36   N14   T    
C14   O10   A    
C16   C18   A    
C21   C24   A    
C2    C23   A    
C43   N2    T    
C10   C49   S    
C18   C36   S    
C1    O6    A    
C32   H2    S    
C5    O12   S    
