data_mof_unit_46216.cif
_audit_creation_date              2012-12-11T17:01:13-0500
_audit_creation_method            fapswitch 2.2
_symmetry_space_group_name_H-M    P1
_symmetry_Int_Tables_number       1
_space_group_crystal_system       triclinic
_cell_length_a                    14.968327
_cell_length_b                    14.828508
_cell_length_c                    14.921782
_cell_angle_alpha                 109.766544
_cell_angle_beta                  109.137389
_cell_angle_gamma                 109.496931
_cell_volume                      2549.92971843

loop_
_atom_site_label
_atom_site_type_symbol
_atom_type_description
_atom_site_fract_x
_atom_site_fract_y
_atom_site_fract_z
_atom_type_partial_charge
C1    C     C_R   0.937405 0.754589 0.030544 0.439109
C2    C     C_R   0.210928 0.805159 0.301506 -0.112248
C3    C     C_R   0.972194 0.407877 0.223067 -0.098814
C4    C     C_R   0.779680 0.252195 0.686011 -0.192681
C5    C     C_R   0.304389 0.594195 0.004022 0.401936
C6    C     C_R   0.047542 0.501264 0.326058 0.065546
C7    C     C_R   0.311822 0.504323 0.949207 -0.121635
C8    C     C_R   0.304483 0.866943 0.302502 0.028482
C9    C     C_R   0.929562 0.127601 0.929640 -0.004585
C10   C     C_3   0.505753 0.387279 0.018306 -0.469757
C11   C     C_3   0.397810 0.389041 0.981107 0.337206
C12   C     C_R   0.675311 0.217831 0.671183 -0.127285
C13   C     C_3   0.611784 0.596769 0.139278 0.357777
C14   C     C_3   0.567079 0.508942 0.940368 0.128360
C15   C     C_3   0.598845 0.496553 0.045333 0.021756
C16   C     C_R   0.097097 0.591962 0.792950 -0.058487
C17   C     C_3   0.416051 0.501840 0.985301 -0.034535
C18   C     C_3   0.503507 0.597473 0.105798 -0.578653
C19   C     C_3   0.459701 0.512887 0.906167 0.271789
C20   C     C_R   0.579761 0.113555 0.467920 0.113047
C21   C     C_R   0.577647 0.164078 0.564814 0.021216
C22   C     C_R   0.475708 0.145961 0.555809 -0.178038
C23   C     C_R   0.070790 0.501113 0.700930 0.086067
C24   C     C_R   0.380075 0.052595 0.462850 -0.167309
C25   C     C_R   0.387926 0.982803 0.378175 0.061102
C26   C     C_R   0.485702 0.023129 0.376077 0.089855
C27   C     C_3   0.544857 0.965619 0.344266 -0.544842
C28   C     C_R   0.705269 0.407149 0.011751 -0.003102
C29   C     C_3   0.648538 0.065278 0.443987 0.311388
C30   C     C_R   0.133087 0.603760 0.524955 0.086650
C31   C     C_R   0.090810 0.504991 0.430406 0.048445
C32   C     C_R   0.071336 0.408387 0.435923 -0.327852
C33   C     C_R   0.082487 0.408396 0.533177 0.566753
C34   C     C_R   0.703282 0.496159 0.076877 0.001425
C35   C     C_R   0.108643 0.505729 0.622955 -0.010064
C36   C     C_R   0.142195 0.604878 0.620764 -0.085517
C37   C     C_3   0.255061 0.704889 0.686467 0.858015
C38   C     C_3   0.243276 0.702655 0.581373 -0.654482
C39   C     C_R   0.839029 0.870421 0.943296 0.164153
C40   C     C_R   0.006130 0.408905 0.700622 -0.026731
C41   C     C_R   0.892054 0.825360 0.896799 -0.100972
C42   C     C_R   0.907378 0.848807 0.817230 0.462928
C43   C     C_R   0.902345 0.940049 0.813679 -0.198423
C44   C     C_R   0.885869 0.008574 0.890966 -0.085811
C45   C     C_R   0.063304 0.593212 0.314586 -0.021510
C46   C     C_R   0.838373 0.964627 0.943561 0.055360
C47   C     C_3   0.718244 0.912696 0.904184 0.343719
C48   C     C_3   0.718741 0.810897 0.901516 -0.472469
C49   C     C_R   0.797808 0.588066 0.109603 0.451916
C50   C     C_R   0.684873 0.241472 0.774265 0.563675
C51   C     C_R   0.023957 0.748679 0.933643 -0.113935
C52   C     C_R   0.947144 0.775952 0.948968 -0.015315
C53   C     C_R   0.211241 0.412409 0.903529 0.574362
C54   C     C_R   0.299779 0.802831 0.208192 -0.093205
C55   C     C_R   0.903007 0.194097 0.993245 -0.214487
C56   C     C_R   0.996970 0.194023 0.905742 0.503067
Cl1   Cl    Cl    0.888053 0.810531 0.113576 -0.630488
Cl2   Cl    Cl    0.054777 0.153653 0.826276 -0.553629
Cl3   Cl    Cl    0.369964 0.722167 0.012868 -0.592749
Cl4   Cl    Cl    0.736606 0.141494 0.407526 -0.560736
Cl5   Cl    Cl    0.264020 0.825951 0.779178 -0.516689
Cl6   Cl    Cl    0.361841 0.681005 0.749726 -0.512948
Cl7   Cl    Cl    0.929662 0.766912 0.719644 -0.577789
Cl8   Cl    Cl    0.689665 0.980906 0.006023 -0.502642
Cl9   Cl    Cl    0.877600 0.693103 0.248772 -0.521842
H1    H     H_    0.346683 0.832969 0.173283 0.183981
H2    H     H_    0.634533 0.587477 0.960324 0.092771
H3    H     H_    0.397388 0.441348 0.822256 0.135847
H4    H     H_    0.672309 0.674381 0.151089 0.165636
H5    H     H_    0.520345 0.679813 0.115488 0.232109
H6    H     H_    0.470122 0.194167 0.624551 0.182822
H7    H     H_    0.158006 0.676358 0.827084 0.192153
H8    H     H_    0.303578 0.029477 0.463132 0.156500
H9    H     H_    0.523905 0.889626 0.350876 0.179168
H10   H     H_    0.540070 0.954550 0.264996 0.278131
H11   H     H_    0.688882 0.045902 0.506157 0.092662
H12   H     H_    0.841249 0.166407 0.015141 0.190530
H13   H     H_    0.042975 0.332195 0.363891 0.154570
H14   H     H_    0.238217 0.773885 0.575906 0.228343
H15   H     H_    0.655282 0.322092 0.987365 0.180865
H16   H     H_    0.299706 0.682973 0.556217 0.215694
H17   H     H_    0.914686 0.957593 0.753093 0.235591
H18   H     H_    0.668799 0.899611 0.821972 0.094708
H19   H     H_    0.699159 0.792129 0.960962 0.261628
H20   H     H_    0.672367 0.738471 0.816999 0.178324
H21   H     H_    0.979846 0.323716 0.648044 0.212027
H22   H     H_    0.056765 0.759039 0.881321 0.202219
H23   H     H_    0.180758 0.835785 0.354715 0.139446
H24   H     H_    0.115118 0.679168 0.377813 0.119499
H25   H     H_    0.212499 0.333062 0.771212 0.318916
H26   H     H_    0.400610 0.414336 0.120477 0.322939
H27   H     H_    0.594154 0.538502 0.236388 0.326327
H28   H     H_    0.558153 0.443978 0.798387 0.337267
H29   H     H_    0.536951 0.674156 0.969409 0.352056
H30   H     H_    0.047620 0.254561 0.470547 0.351812
H31   H     H_    0.541712 0.134172 0.732208 0.321968
H32   H     H_    0.939671 0.322197 0.201910 0.136206
H33   H     H_    0.526758 0.373877 0.089565 0.198128
H34   H     H_    0.493745 0.314660 0.950208 0.219768
H35   H     H_    0.342135 0.320823 0.894479 0.149223
H36   H     H_    0.804325 0.250992 0.625947 0.179899
H37   H     H_    0.473007 0.590898 0.163179 0.200897
N1    N     N_R   0.995640 0.706130 0.053910 -0.084008
N2    N     N_R   0.054010 0.556790 0.847890 -0.066366
N3    N     N_R   0.789940 0.443190 0.997130 -0.084574
N4    N     N_R   0.997630 0.443170 0.791110 -0.069721
N5    N     N_R   0.846320 0.556810 0.053910 -0.105775
N6    N     N_R   0.791080 0.293860 0.847890 -0.083780
N7    N     N_R   0.052880 0.706130 0.997130 -0.078159
N8    N     N_R   0.002370 0.556830 0.208890 -0.044274
N9    N     N_R   0.153680 0.443190 0.946090 -0.105015
N10   N     N_R   0.208920 0.706140 0.152110 -0.051549
N11   N     N_R   0.947120 0.293870 0.002870 -0.082261
N12   N     N_R   0.004360 0.293870 0.946090 -0.093014
N13   N     N_R   0.151690 0.706140 0.208890 -0.051840
N14   N     N_R   0.945990 0.443210 0.152110 -0.058641
N15   N     N_R   0.210060 0.556810 0.002870 -0.133438
N16   N     N_R   0.848310 0.293860 0.791110 -0.075493
Ni1   Ni    Ni4+2 0.999010 0.630300 0.130220 0.298475
Ni2   Ni    Ni4+2 0.000990 0.369700 0.869780 0.287082
Ni3   Ni    Ni4+2 0.130280 0.630280 0.000000 0.258998
Ni4   Ni    Ni4+2 0.869720 0.369720 0.000000 0.241792
O1    O     O_3   0.160622 0.324056 0.799449 -0.677907
O2    O     O_3   0.347107 0.364686 0.041131 -0.697813
O3    O     O_3   0.652061 0.599649 0.240456 -0.643977
O4    O     O_3   0.554082 0.420307 0.852413 -0.733087
O5    O     O_3   0.473429 0.608640 0.899595 -0.628960
O6    O     O_3   0.065140 0.314338 0.540494 -0.731792
O7    O     O_3   0.603452 0.204557 0.798207 -0.758382

loop_
_geom_bond_atom_site_label_1
_geom_bond_atom_site_label_2
_ccdc_geom_bond_type
C18   H5    S    
C6    C45   A    
C27   C29   S    
C41   C42   A    
C11   O2    S    
C16   H7    S    
C3    C6    A    
H27   O3    S    
N2    N4    A    
C37   Cl6   S    
C39   C41   A    
C29   H11   S    
H29   O5    S    
N3    N5    A    
C26   C27   S    
C49   Cl9   S    
C13   C18   S    
C36   C37   S    
C3    N14   A    
C30   C31   A    
C55   H12   S    
C24   H8    S    
C38   H14   S    
C23   C40   A    
C30   C38   S    
C18   H37   S    
C40   H21   S    
C10   H33   S    
N15   Ni3   S    
H28   O4    S    
C17   C19   S    
H30   O6    S    
C16   N2    A    
N11   Ni4   S    
C35   C36   A    
C7    C17   S    
C14   H2    S    
C2    H23   S    
C9    C55   A    
C47   H18   S    
C4    C12   A    
C27   H9    S    
C45   H24   S    
C1    N1    A    
C15   C34   S    
C13   O3    S    
C53   N9    A    
C6    C31   S    
C28   C34   A    
C51   N7    A    
N1    N7    A    
C21   C22   A    
C50   N6    A    
C8    C25   S    
C4    N16   A    
C27   H10   S    
N5    Ni1   S    
C44   C46   A    
C20   C29   S    
N1    Ni1   S    
C5    Cl3   S    
C51   C52   A    
C47   C48   S    
N6    N16   A    
C24   C25   A    
C49   N5    A    
C53   O1    S    
C8    C54   A    
C47   Cl8   S    
C5    C7    A    
C45   N8    A    
N2    Ni3   S    
C55   N11   A    
C25   C26   A    
C12   C21   S    
C33   O6    S    
C48   H19   S    
C5    N15   A    
C11   H35   S    
C43   C44   A    
C37   C38   S    
C50   O7    S    
C1    Cl1   S    
C2    N13   A    
C3    H32   S    
C37   Cl5   S    
C31   C32   A    
C29   Cl4   S    
C28   N3    A    
C4    H36   S    
H31   O7    S    
C17   C18   S    
C54   N10   A    
C19   H3    S    
C9    C56   A    
N14   Ni4   S    
C39   C46   A    
C16   C23   A    
C23   C35   S    
H26   O2    S    
C13   C15   S    
C38   H16   S    
C22   C24   A    
C42   C43   A    
C7    C53   A    
C51   H22   S    
N8    N14   A    
C22   H6    S    
C40   N4    A    
N11   N12   A    
C46   C47   S    
C11   C17   S    
C9    C44   S    
C41   C52   S    
N4    Ni2   S    
C10   C15   S    
C14   C15   S    
C14   C19   S    
C2    C8    A    
N6    Ni4   S    
C20   C26   A    
N8    Ni1   S    
C12   C50   A    
C54   H1    S    
N13   Ni1   S    
C14   O4    S    
C30   C36   A    
N9    N15   A    
C32   C33   A    
N10   Ni3   S    
N7    Ni3   S    
C13   H4    S    
C19   O5    S    
C33   C35   A    
C56   Cl2   S    
N3    Ni4   S    
N10   N13   A    
C10   H34   S    
C28   H15   S    
C1    C52   A    
N16   Ni2   S    
C10   C11   S    
C32   H13   S    
C20   C21   A    
C34   C49   A    
C43   H17   S    
C56   N12   A    
C48   H20   S    
N9    Ni2   S    
C42   Cl7   S    
H25   O1    S    
N12   Ni2   S    
C39   C48   S    
