data_mof_unit_62109.cif
_audit_creation_date              2012-12-10T20:16:56-0500
_audit_creation_method            fapswitch 2.2
_symmetry_space_group_name_H-M    P1
_symmetry_Int_Tables_number       1
_space_group_crystal_system       triclinic
_cell_length_a                    19.306778
_cell_length_b                    18.402766
_cell_length_c                    19.14148
_cell_angle_alpha                 89.987894
_cell_angle_beta                  90.38377
_cell_angle_gamma                 89.874427
_cell_volume                      6800.7627504

loop_
_atom_site_label
_atom_site_type_symbol
_atom_type_description
_atom_site_fract_x
_atom_site_fract_y
_atom_site_fract_z
_atom_type_partial_charge
C1    C     C_R   0.365515 0.500056 0.499965 1.012518
C2    C     C_R   0.963921 0.460978 0.447838 -0.077458
C3    C     C_R   0.071365 0.499939 0.499513 0.228064
C4    C     C_R   0.928518 0.500170 0.498993 0.229078
C5    C     C_R   0.543150 0.725915 0.544272 0.644867
C6    C     C_R   0.456991 0.274096 0.455580 0.641461
C7    C     C_R   0.457313 0.726157 0.455302 0.648019
C8    C     C_R   0.542721 0.273834 0.544659 0.649190
C9    C     C_R   0.544095 0.802295 0.545311 0.266769
C10   C     C_R   0.456042 0.197714 0.454535 0.266482
C11   C     C_R   0.456329 0.802536 0.454325 0.260575
C12   C     C_R   0.634466 0.499945 0.499978 1.002648
C13   C     C_R   0.543695 0.197459 0.545634 0.259728
C14   C     C_R   0.500128 0.841686 0.499906 -0.103091
C15   C     C_R   0.499922 0.158314 0.500023 -0.104231
C16   C     C_R   0.529747 0.961819 0.444404 0.575206
C17   C     C_R   0.470306 0.038180 0.555522 0.574928
C18   C     C_R   0.470381 0.961836 0.555504 0.567243
C19   C     C_R   0.529675 0.038162 0.444423 0.566650
C20   C     C_R   0.499955 0.077085 0.499983 -0.242987
C21   C     C_R   0.500095 0.922914 0.499942 -0.243526
C22   C     C_R   0.501212 0.500001 0.364991 0.954273
C23   C     C_R   0.853698 0.500010 0.498968 -0.338971
C24   C     C_R   0.501232 0.499952 0.635071 0.945054
C25   C     C_R   0.529589 0.564174 0.254345 0.641106
C26   C     C_R   0.513781 0.433127 0.747556 0.651512
C27   C     C_R   0.522446 0.565030 0.747340 0.632208
C28   C     C_R   0.507094 0.434128 0.251733 0.624120
C29   C     C_R   0.544403 0.562522 0.183556 -0.198078
C30   C     C_R   0.528910 0.432410 0.818436 -0.196823
C31   C     C_R   0.537504 0.563749 0.818292 -0.201476
C32   C     C_R   0.522192 0.432972 0.181046 -0.204091
C33   C     C_R   0.540807 0.497045 0.146472 -0.129717
C34   C     C_R   0.146200 0.499968 0.499699 -0.339085
C35   C     C_R   0.540814 0.497560 0.854294 -0.131482
C36   C     C_R   0.510996 0.499780 0.289269 -0.359975
C37   C     C_R   0.510859 0.499548 0.711030 -0.364811
C38   C     C_R   0.550903 0.496772 0.929968 0.386627
C39   C     C_R   0.550904 0.496482 0.070960 0.385045
C40   C     C_R   0.746482 0.439981 0.526454 0.570128
C41   C     C_R   0.253583 0.560450 0.473789 0.574088
C42   C     C_R   0.254192 0.439683 0.526089 0.574935
C43   C     C_R   0.745568 0.559870 0.472314 0.572554
C44   C     C_R   0.818375 0.439932 0.526191 0.295346
C45   C     C_R   0.709791 0.499907 0.499584 -0.481392
C46   C     C_R   0.181687 0.560477 0.473598 0.296199
C47   C     C_R   0.182280 0.439526 0.525977 0.303569
C48   C     C_R   0.817473 0.560018 0.471985 0.302011
C49   C     C_R   0.290149 0.500103 0.499986 -0.481928
C50   C     C_R   0.964192 0.539265 0.550389 -0.069925
C51   C     C_R   0.035686 0.460872 0.448091 -0.068750
C52   C     C_R   0.035950 0.539145 0.550654 -0.076933
Cl1   Cl    Cl    0.863188 0.364569 0.561510 -0.369750
Cl2   Cl    Cl    0.137090 0.636395 0.439108 -0.366843
Cl3   Cl    Cl    0.138416 0.363529 0.560236 -0.371034
Cl4   Cl    Cl    0.861150 0.635474 0.436420 -0.372808
Cl5   Cl    Cl    0.601738 0.847028 0.602557 -0.319301
Cl6   Cl    Cl    0.398528 0.152989 0.397150 -0.315755
Cl7   Cl    Cl    0.398999 0.847562 0.396760 -0.303741
Cl8   Cl    Cl    0.601020 0.152431 0.603205 -0.304727
F1    F     F_    0.534776 0.628695 0.288382 -0.560491
F2    F     F_    0.414434 0.312095 0.412316 -0.519453
F3    F     F_    0.415552 0.688423 0.411251 -0.498184
F4    F     F_    0.584632 0.311555 0.588570 -0.492356
F5    F     F_    0.559286 0.925688 0.390391 -0.514155
F6    F     F_    0.440769 0.074309 0.609537 -0.514498
F7    F     F_    0.440917 0.925724 0.609502 -0.521564
F8    F     F_    0.559150 0.074273 0.390431 -0.522639
F9    F     F_    0.502167 0.368558 0.715253 -0.553536
F10   F     F_    0.519876 0.630488 0.714691 -0.558905
F11   F     F_    0.488543 0.370857 0.282885 -0.559158
F12   F     F_    0.712749 0.382294 0.554428 -0.517290
F13   F     F_    0.287432 0.618632 0.446923 -0.515527
F14   F     F_    0.288697 0.381544 0.553078 -0.546015
F15   F     F_    0.710870 0.617529 0.444623 -0.544411
F16   F     F_    0.585958 0.687932 0.587288 -0.523170
H1    H     H_    0.558354 0.612776 0.157830 0.220216
H2    H     H_    0.530418 0.380605 0.845262 0.221076
H3    H     H_    0.545818 0.614873 0.845042 0.220362
H4    H     H_    0.518158 0.381857 0.153304 0.220099
H5    H     H_    0.936420 0.569463 0.589944 0.178411
H6    H     H_    0.063457 0.430655 0.408550 0.179515
H7    H     H_    0.063924 0.569303 0.590379 0.176266
H8    H     H_    0.935937 0.430787 0.408144 0.175456
N1    N     N_R   0.547768 0.433164 0.034981 -0.135641
N2    N     N_R   0.556500 0.559929 0.965956 -0.135110
N3    N     N_R   0.547786 0.433308 0.965708 -0.134639
N4    N     N_R   0.556517 0.559785 0.035265 -0.133895
N5    N     N_R   0.500000 0.689440 0.500000 -0.266747
N6    N     N_R   0.500000 0.310560 0.500000 -0.269442
O1    O     O_R   0.398180 0.560840 0.499980 -0.559048
O2    O     O_R   0.601820 0.439160 0.500020 -0.561959
O3    O     O_R   0.601820 0.560840 0.500020 -0.538852
O4    O     O_R   0.398180 0.439160 0.499980 -0.538641
O5    O     O_R   0.499990 0.560830 0.398130 -0.528717
O6    O     O_R   0.500010 0.439170 0.601870 -0.531447
O7    O     O_R   0.500010 0.560830 0.601870 -0.552736
O8    O     O_R   0.499990 0.439170 0.398130 -0.554763
Zn1   Zn    Zn3+2 0.500000 0.581210 0.500000 1.175961
Zn2   Zn    Zn3+2 0.500000 0.418790 0.500000 1.172117

loop_
_geom_bond_atom_site_label_1
_geom_bond_atom_site_label_2
_ccdc_geom_bond_type
C8    C13   A    
C22   O8    A    
C18   C21   A    
C22   O5    A    
C2    H8    S    
C19   C20   A    
C13   Cl8   S    
C7    C11   A    
C17   F6    S    
C33   C39   S    
C30   C35   A    
C38   N2    A    
C14   C21   S    
C10   Cl6   S    
C10   C15   A    
C24   O6    A    
C11   C14   A    
O5    Zn1   S    
C7    N5    A    
C29   C33   A    
C17   C20   A    
C41   C49   A    
C44   Cl1   S    
C1    O4    A    
C50   C52   A    
C41   C46   A    
C34   C46   A    
C43   C48   A    
O3    Zn1   S    
C9    Cl5   S    
C1    O1    A    
C25   C29   A    
C40   C45   A    
C39   N4    A    
C11   Cl7   S    
N6    Zn2   S    
O7    Zn1   S    
C24   C37   S    
N1    N3    A    
C43   F15   S    
C15   C20   S    
C42   F14   S    
C27   C31   A    
C24   O7    A    
C28   C32   A    
C35   C38   S    
C4    C23   S    
C3    C51   A    
C42   C49   A    
C3    C34   S    
C18   F7    S    
C6    N6    A    
C23   C44   A    
C4    C50   A    
C52   H7    S    
C2    C4    A    
C9    C14   A    
C5    C9    A    
C32   H4    S    
O4    Zn2   S    
C46   Cl2   S    
C17   C18   A    
C19   F8    S    
C26   C37   A    
C25   F1    S    
C43   C45   A    
C51   H6    S    
C7    F3    S    
C27   F10   S    
C8    F4    S    
N5    Zn1   S    
C26   C30   A    
O8    Zn2   S    
C13   C15   A    
C31   C35   A    
C12   O3    A    
C28   F11   S    
C8    N6    A    
C39   N1    A    
O2    Zn2   S    
C47   Cl3   S    
C48   Cl4   S    
C23   C48   A    
C40   F12   S    
C12   O2    A    
C12   C45   S    
C6    C10   A    
C3    C52   A    
C16   C21   A    
C31   H3    S    
C34   C47   A    
C22   C36   S    
C38   N3    A    
C32   C33   A    
C6    F2    S    
C5    F16   S    
C27   C37   A    
C16   C19   A    
O6    Zn2   S    
N2    N4    A    
C42   C47   A    
C2    C51   A    
C25   C36   A    
C41   F13   S    
C30   H2    S    
C40   C44   A    
C29   H1    S    
C28   C36   A    
C26   F9    S    
C16   F5    S    
O1    Zn1   S    
C1    C49   S    
C5    N5    A    
C50   H5    S    
