data_mof_unit_45730.cif
_audit_creation_date              2012-12-10T18:32:01-0500
_audit_creation_method            fapswitch 2.2
_symmetry_space_group_name_H-M    P1
_symmetry_Int_Tables_number       1
_space_group_crystal_system       triclinic
_cell_length_a                    10.732454
_cell_length_b                    14.947586
_cell_length_c                    15.216954
_cell_angle_alpha                 81.445652
_cell_angle_beta                  90.852528
_cell_angle_gamma                 103.78043
_cell_volume                      2343.98883517

loop_
_atom_site_label
_atom_site_type_symbol
_atom_type_description
_atom_site_fract_x
_atom_site_fract_y
_atom_site_fract_z
_atom_type_partial_charge
C1    C     C_R   0.482893 0.441295 0.663546 0.856901
C2    C     C_R   0.561074 0.422176 0.907917 0.055898
C3    C     C_R   0.508264 0.326561 0.938163 0.007975
C4    C     C_R   0.741802 0.500784 0.498621 0.897828
C5    C     C_R   0.625194 0.479770 0.967624 0.003228
C6    C     C_R   0.588032 0.457896 0.056833 0.000923
C7    C     C_R   0.523567 0.364900 0.089066 -0.226117
C8    C     C_R   0.486622 0.298197 0.031443 -0.012027
C9    C     C_R   0.730566 0.554942 0.940839 0.402291
C10   C     C_R   0.770662 0.624055 0.996684 -0.167078
C11   C     C_R   0.697548 0.618110 0.075955 -0.038130
C12   C     C_3   0.120270 0.497277 0.503198 -0.162685
C13   C     C_R   0.612072 0.531397 0.108312 0.089655
C14   C     C_R   0.703785 0.695188 0.122888 -0.044350
C15   C     C_R   0.640958 0.681278 0.207315 -0.069220
C16   C     C_R   0.523847 0.558684 0.336456 0.874570
C17   C     C_R   0.545302 0.521725 0.188097 -0.189728
C18   C     C_R   0.719657 0.840019 0.630209 -0.283125
C19   C     C_R   0.673141 0.750361 0.608599 -0.051308
C20   C     C_R   0.516907 0.800162 0.514653 0.086789
C21   C     C_R   0.543425 0.886220 0.547564 -0.127897
C22   C     C_R   0.658120 0.911300 0.594580 0.068418
C23   C     C_3   0.098944 0.584961 0.438901 0.165923
C24   C     C_R   0.466406 0.951160 0.526190 0.128071
C25   C     C_R   0.520081 0.046864 0.526543 0.066429
C26   C     C_R   0.647047 0.073471 0.556076 -0.328906
C27   C     C_R   0.712834 0.007215 0.595571 0.475262
C28   C     C_R   0.257685 0.498693 0.501838 0.930724
C29   C     C_R   0.337290 0.922139 0.502631 -0.154330
C30   C     C_R   0.274078 0.985455 0.457934 -0.079930
C31   C     C_R   0.333150 0.080819 0.444220 0.054956
C32   C     C_R   0.448373 0.112367 0.489967 -0.100268
C33   C     C_R   0.275935 0.146018 0.391401 -0.118835
C34   C     C_3   0.070333 0.496058 0.600571 -0.332674
C35   C     C_R   0.327243 0.240709 0.393552 -0.100837
C36   C     C_R   0.484125 0.208213 0.497700 0.532300
C37   C     C_3   0.894730 0.404323 0.478101 -0.561703
C38   C     C_3   0.038754 0.405109 0.470581 0.742276
C39   C     C_3   0.954230 0.575595 0.424791 -0.368111
C40   C     C_3   0.930673 0.510685 0.597162 0.762511
C41   C     C_3   0.877832 0.500264 0.500362 -0.154614
C42   C     C_2   0.159265 0.552731 0.662228 1.020466
C43   C     C_2   0.918359 0.669007 0.402161 1.027414
C44   C     C_2   0.404826 0.206602 0.070659 0.955348
C45   C     C_R   0.488861 0.402770 0.758522 -0.154133
C46   C     C_2   0.643623 0.763854 0.251597 0.997211
C47   C     C_2   0.890574 0.697465 0.974639 0.927110
C48   C     C_2   0.466643 0.164872 0.892093 0.957680
C49   C     C_2   0.510559 0.557184 0.811435 0.956294
C50   C     C_2   0.766401 0.791893 0.081926 0.980557
C51   C     C_2   0.824884 0.853480 0.694993 1.126899
C52   C     C_2   0.456555 0.795335 0.426040 0.934634
C53   C     C_2   0.166473 0.118624 0.332186 0.936179
C54   C     C_R   0.567618 0.591071 0.242350 -0.168148
C55   C     C_R   0.475235 0.266491 0.872946 -0.013130
C56   C     C_R   0.466755 0.305797 0.783905 -0.191285
C57   C     C_R   0.531381 0.461387 0.822617 -0.007020
H1    H     H_    0.846620 0.387884 0.415085 0.206119
H2    H     H_    0.287593 0.849211 0.513136 0.175611
H3    H     H_    0.932091 0.545496 0.362052 0.115271
H4    H     H_    0.146253 0.588033 0.373240 0.129831
H5    H     H_    0.061744 0.423427 0.634476 0.210092
H6    H     H_    0.269081 0.676094 0.686467 0.358640
H7    H     H_    0.890815 0.786132 0.441687 0.359871
H8    H     H_    0.163279 0.719760 0.422856 0.356433
H9    H     H_    0.242312 0.107068 0.063968 0.369685
H10   H     H_    0.627047 0.896969 0.234481 0.381047
H11   H     H_    0.061820 0.764599 0.016478 0.371525
H12   H     H_    0.472998 0.458769 0.209492 0.166913
H13   H     H_    0.533120 0.060437 0.961209 0.376683
H14   H     H_    0.585672 0.695312 0.786123 0.344134
H15   H     H_    0.885578 0.589653 0.864801 0.377781
H16   H     H_    0.897677 0.911061 0.092610 0.361723
H17   H     H_    0.859086 0.104700 0.622104 0.353913
H18   H     H_    0.546792 0.194738 0.616994 0.322279
H19   H     H_    0.937889 0.794537 0.628391 0.328470
H20   H     H_    0.417916 0.866202 0.309317 0.369830
H21   H     H_    0.016391 0.270202 0.499150 0.371506
H22   H     H_    0.079751 0.031637 0.248148 0.363948
H23   H     H_    0.442891 0.260038 0.734086 0.199502
H24   H     H_    0.039332 0.442814 0.339810 0.313757
H25   H     H_    0.994335 0.646269 0.590986 0.407929
H26   H     H_    0.774973 0.457964 0.671910 0.365559
H27   H     H_    0.846160 0.347041 0.530703 0.259281
H28   H     H_    0.502229 0.342314 0.159170 0.162583
H29   H     H_    0.284123 0.292816 0.356466 0.205874
H30   H     H_    0.178040 0.958931 0.435679 0.177883
H31   H     H_    0.718802 0.695016 0.634420 0.231675
H32   H     H_    0.698970 0.145569 0.546379 0.188935
N1    N     N_R   0.573860 0.731700 0.552730 -0.117176
N2    N     N_R   0.426060 0.268290 0.447230 -0.120610
O1    O     O_R   0.462770 0.383110 0.605620 -0.566581
O2    O     O_R   0.210894 0.648416 0.639313 -0.726779
O3    O     O_2   0.900258 0.697140 0.324502 -0.589240
O4    O     O_R   0.912368 0.725079 0.466916 -0.785466
O5    O     O_3   0.153750 0.667543 0.472852 -0.679750
O6    O     O_2   0.434652 0.165919 0.140651 -0.575702
O7    O     O_R   0.290409 0.169049 0.030135 -0.774328
O8    O     O_2   0.690885 0.769885 0.324578 -0.584369
O9    O     O_R   0.602119 0.838986 0.204960 -0.786270
O10   O     O_2   0.906305 0.745165 0.901228 -0.512065
O11   O     O_R   0.984960 0.712350 0.038728 -0.764612
O12   O     O_R   0.510160 0.531900 0.639510 -0.613993
O13   O     O_2   0.392529 0.111341 0.850918 -0.576965
O14   O     O_R   0.547210 0.130650 0.954612 -0.769709
O15   O     O_2   0.405247 0.568064 0.829727 -0.573123
O16   O     O_R   0.611240 0.634404 0.785053 -0.763401
O17   O     O_3   0.795698 0.553810 0.863210 -0.683337
O18   O     O_2   0.731616 0.823920 0.009597 -0.556037
O19   O     O_R   0.863124 0.846495 0.126987 -0.741139
O20   O     O_3   0.836019 0.035933 0.625599 -0.733677
O21   O     O_3   0.563523 0.242358 0.563001 -0.747177
O22   O     O_2   0.813985 0.891426 0.759233 -0.463379
O23   O     O_R   0.661510 0.425600 0.483070 -0.578290
O24   O     O_R   0.934868 0.820657 0.685799 -0.706650
O25   O     O_2   0.393002 0.722594 0.406674 -0.585362
O26   O     O_R   0.471738 0.876366 0.363908 -0.800693
O27   O     O_3   0.059959 0.325825 0.526028 -0.733925
O28   O     O_2   0.086337 0.165042 0.320050 -0.589161
O29   O     O_R   0.157616 0.042299 0.287265 -0.775594
O30   O     O_3   0.075250 0.399695 0.382787 -0.740871
O31   O     O_3   0.924224 0.597062 0.621534 -0.718182
O32   O     O_3   0.855196 0.439570 0.659457 -0.732114
O33   O     O_R   0.708900 0.574390 0.516960 -0.581298
O34   O     O_R   0.489840 0.468100 0.360490 -0.631220
O35   O     O_R   0.537230 0.616890 0.394380 -0.551311
O36   O     O_R   0.291100 0.425610 0.483040 -0.554186
O37   O     O_R   0.338490 0.574400 0.516930 -0.536520
O38   O     O_2   0.185440 0.513045 0.733808 -0.565436
Zn1   Zn    Zn3+2 0.468350 0.400660 0.477370 1.028471
Zn2   Zn    Zn3+2 0.531650 0.599340 0.522630 1.055813

loop_
_geom_bond_atom_site_label_1
_geom_bond_atom_site_label_2
_ccdc_geom_bond_type
C48   C55   S    
C55   C56   A    
C17   H12   S    
C47   O10   D    
H14   O16   S    
C42   O2    S    
C34   C42   S    
C50   O19   S    
C46   O8    D    
C43   O3    D    
C53   O29   S    
C7    C8    A    
C39   C41   S    
N2    Zn1   S    
C7    H28   S    
C26   H32   S    
C12   C23   S    
C45   C57   A    
C26   C27   A    
C51   O22   D    
C12   C28   S    
C34   C40   S    
C5    C6    A    
C32   C36   A    
C4    O23   A    
H21   O27   S    
H11   O11   S    
H20   O26   S    
C30   C31   A    
C35   H29   S    
C4    C41   S    
C48   O13   D    
C34   H5    S    
H19   O24   S    
C49   C57   S    
C23   O5    S    
C4    O33   A    
C18   C19   A    
C24   C29   A    
C33   C35   A    
C3    C55   A    
O34   Zn1   S    
H8    O5    S    
C29   H2    S    
C45   C56   A    
C36   O21   S    
C43   O4    S    
C31   C33   A    
C37   H27   S    
C29   C30   A    
C16   O34   A    
C1    O12   A    
C37   H1    S    
C28   O36   A    
C52   O26   S    
C25   C32   A    
C27   O20   S    
C47   O11   S    
C21   C22   A    
C12   C38   S    
O23   Zn1   S    
C44   O7    S    
C18   C51   S    
C52   O25   D    
C33   C53   S    
C2    C57   A    
C15   C54   A    
H15   O17   S    
H16   O19   S    
C24   C25   A    
C49   O16   S    
C19   H31   S    
H17   O20   S    
C39   C43   S    
C25   C26   A    
C20   N1    A    
C50   O18   D    
C51   O24   S    
O33   Zn2   S    
H24   O30   S    
C9    O17   S    
O1    Zn1   S    
C5    C9    A    
C37   C38   S    
C44   O6    D    
C48   O14   S    
H22   O29   S    
H18   O21   S    
C49   O15   D    
H10   O9    S    
N1    Zn2   S    
C36   N2    A    
C40   C41   S    
C3    C8    A    
C1    O1    A    
C22   C27   A    
C2    C5    A    
C12   C34   S    
O37   Zn2   S    
C9    C10   A    
C40   O32   S    
C46   O9    S    
C18   C22   A    
C31   C32   A    
C8    C44   S    
H7    O4    S    
H13   O14   S    
C53   O28   D    
C6    C7    A    
C40   O31   S    
H6    O2    S    
C56   H23   S    
C13   C17   A    
H9    O7    S    
C2    C3    A    
O36   Zn1   S    
C20   C52   S    
C19   N1    A    
C6    C13   A    
C11   C13   A    
C1    C45   S    
C14   C50   S    
O12   Zn2   S    
O35   Zn2   S    
C23   C39   S    
C39   H3    S    
C11   C14   A    
C42   O38   D    
C37   C41   S    
C16   C54   S    
C38   O30   S    
C10   C11   A    
C38   O27   S    
C23   H4    S    
C20   C21   A    
C21   C24   A    
C10   C47   S    
C14   C15   A    
C15   C46   S    
H26   O32   S    
C30   H30   S    
C16   O35   A    
C17   C54   A    
H25   O31   S    
C28   O37   A    
C35   N2    A    
