data_mof_unit_12204.cif
_audit_creation_date              2012-12-10T17:33:44-0500
_audit_creation_method            fapswitch 2.2
_symmetry_space_group_name_H-M    P1
_symmetry_Int_Tables_number       1
_space_group_crystal_system       triclinic
_cell_length_a                    11.700004
_cell_length_b                    12.356988
_cell_length_c                    13.303601
_cell_angle_alpha                 116.318386
_cell_angle_beta                  77.409028
_cell_angle_gamma                 101.391539
_cell_volume                      1671.33874235

loop_
_atom_site_label
_atom_site_type_symbol
_atom_type_description
_atom_site_fract_x
_atom_site_fract_y
_atom_site_fract_z
_atom_type_partial_charge
C1    C     C_R   0.510407 0.854670 0.287252 0.768538
C2    C     C_R   0.444464 0.230561 0.833558 -0.186378
C3    C     C_R   0.592361 0.811591 0.087912 -0.183396
C4    C     C_R   0.626705 0.729830 0.977605 -0.154481
C5    C     C_R   0.587858 0.606729 0.943158 -0.189735
C6    C     C_R   0.505654 0.563561 0.015931 0.103889
C7    C     C_R   0.471990 0.646148 0.129286 0.070340
C8    C     C_R   0.460502 0.438592 0.980150 0.058782
C9    C     C_R   0.404618 0.394734 0.062388 0.052301
C10   C     C_R   0.368441 0.476671 0.172514 -0.194357
C11   C     C_R   0.392409 0.600582 0.202067 -0.200486
C12   C     C_R   0.715782 0.999869 0.499759 0.815900
C13   C     C_R   0.460897 0.357908 0.865011 0.062398
C14   C     C_R   0.389832 0.188101 0.917176 0.436235
C15   C     C_R   0.520017 0.770756 0.166200 -0.107153
C16   C     C_R   0.690076 0.355086 0.335773 -0.293631
C17   C     C_R   0.339079 0.756989 0.641402 -0.019527
C18   C     C_R   0.303538 0.660830 0.674561 0.406745
C19   C     C_R   0.362620 0.557431 0.618792 -0.269220
C20   C     C_R   0.460067 0.551007 0.533749 -0.066510
C21   C     C_R   0.494873 0.653824 0.506408 0.258435
C22   C     C_R   0.524693 0.447182 0.475004 -0.004312
C23   C     C_R   0.474062 0.145425 0.712819 0.830646
C24   C     C_R   0.622826 0.451198 0.392776 0.131694
C25   C     C_R   0.654290 0.551041 0.366573 -0.267702
C26   C     C_R   0.591333 0.649769 0.421719 -0.142516
C27   C     C_R   0.497451 0.339372 0.493788 -0.035508
C28   C     C_R   0.662157 0.252932 0.358474 0.395817
C29   C     C_R   0.284205 0.000151 0.500283 0.800900
C30   C     C_1   0.837576 0.999835 0.499652 -0.179778
C31   C     C_1   0.940098 0.999833 0.499723 -0.000975
C32   C     C_1   0.059928 0.999902 0.499955 -0.003102
C33   C     C_1   0.162437 0.000007 0.500158 -0.186091
C34   C     C_R   0.373060 0.270406 0.031089 -0.279357
Cu1   Cu    Cu3+1 0.526510 0.098270 0.475420 0.936408
Cu2   Cu    Cu3+1 0.473490 0.901730 0.524580 0.936561
H1    H     H_    0.728834 0.553046 0.302313 0.150216
H2    H     H_    0.765409 0.359418 0.272829 0.146956
H3    H     H_    0.421534 0.327503 0.551646 0.134875
H4    H     H_    0.289496 0.833533 0.678095 0.139107
H5    H     H_    0.330172 0.483641 0.643703 0.160281
H6    H     H_    0.621847 0.721035 0.394784 0.202137
H7    H     H_    0.314762 0.445061 0.233876 0.146475
H8    H     H_    0.330286 0.237390 0.094677 0.152758
H9    H     H_    0.629096 0.905911 0.113845 0.155952
H10   H     H_    0.625249 0.545578 0.859986 0.157314
H11   H     H_    0.687810 0.761390 0.919729 0.149087
H12   H     H_    0.347209 0.658406 0.282635 0.180651
N1    N     N_R   0.566700 0.246290 0.438210 -0.177124
N2    N     N_R   0.434010 0.754320 0.561170 -0.231061
O1    O     O_R   0.533340 0.972510 0.318140 -0.584685
O2    O     O_R   0.488570 0.806530 0.359650 -0.607166
O3    O     O_R   0.685190 0.083000 0.479260 -0.572498
O4    O     O_R   0.640410 0.917020 0.520770 -0.588439
O5    O     O_R   0.511430 0.193470 0.640350 -0.578015
O6    O     O_R   0.466660 0.027490 0.681860 -0.541933
O7    O     O_R   0.359590 0.082980 0.479230 -0.577419
O8    O     O_R   0.314810 0.917000 0.520740 -0.588931
O9    O     O_3   0.336459 0.069945 0.886997 -0.612965
C35   C     C_3   0.215961 0.066008 0.879668 0.045830
H13   H     H_    0.191008 0.979685 0.808470 0.155644
H14   H     H_    0.198220 0.138890 0.858888 0.121256
C36   C     C_3   0.135624 0.069281 0.988745 -0.372578
H15   H     H_    0.164587 0.009681 0.018687 0.226354
H16   H     H_    0.140844 0.163357 0.056132 0.210557
C37   C     C_3   0.007077 0.027774 0.970155 -0.921332
H17   H     H_    0.975903 0.087008 0.941195 0.261093
H18   H     H_    0.951356 0.033324 0.051018 0.255314
H19   H     H_    0.997157 0.932166 0.905865 0.254857
O10   O     O_3   0.202655 0.659472 0.751343 -0.613137
C38   C     C_3   0.215316 0.753455 0.860310 0.024529
H20   H     H_    0.125742 0.778129 0.904159 0.177894
H21   H     H_    0.268788 0.837862 0.858810 0.167164
C39   C     C_3   0.268480 0.709610 0.929198 -0.348757
H22   H     H_    0.218334 0.622441 0.927045 0.231930
H23   H     H_    0.361598 0.694530 0.891266 0.218662
C40   C     C_3   0.265307 0.803130 0.052254 -0.886874
H24   H     H_    0.320551 0.888863 0.056682 0.265840
H25   H     H_    0.299964 0.766998 0.101066 0.258760
H26   H     H_    0.173396 0.822548 0.091773 0.248033
C41   C     C_3   0.435528 0.405789 0.785794 -0.835802
H27   H     H_    0.363630 0.344946 0.738261 0.222027
H28   H     H_    0.401834 0.495459 0.832773 0.218627
H29   H     H_    0.515659 0.414161 0.726189 0.247673
C42   C     C_3   0.742758 0.155257 0.290276 -0.817756
H30   H     H_    0.716704 0.069919 0.298994 0.269401
H31   H     H_    0.748225 0.131691 0.198591 0.188825
H32   H     H_    0.832597 0.190285 0.313799 0.209019

loop_
_geom_bond_atom_site_label_1
_geom_bond_atom_site_label_2
_ccdc_geom_bond_type
C16   C28   A    
C37   H18   S    
C21   C26   A    
C36   H16   S    
C18   O10   S    
C8    C13   A    
C13   C41   S    
Cu1   O3    S    
C19   C20   A    
C41   H27   S    
Cu2   N2    S    
C23   O6    A    
C40   H24   S    
C7    C11   A    
C14   O9    S    
C39   H23   S    
C35   C36   S    
Cu2   O8    S    
C30   C31   T    
C42   H32   S    
C37   H19   S    
C29   C33   S    
C35   H14   S    
C18   C19   A    
C2    C13   A    
C25   H1    S    
Cu1   Cu2   S    
C27   H3    S    
C8    C9    A    
C39   C40   S    
Cu1   N1    S    
O10   C38   S    
C1    C15   S    
C9    C10   A    
C12   O3    A    
Cu2   O2    S    
C7    C15   A    
C37   H17   S    
C36   C37   S    
O9    C35   S    
C16   C24   A    
C11   H12   S    
C21   N2    A    
C41   H28   S    
C42   H31   S    
C39   H22   S    
Cu1   O5    S    
C34   H8    S    
C24   C25   A    
C38   H21   S    
C6    C8    A    
C25   C26   A    
C42   H30   S    
C3    H9    S    
C35   H13   S    
C17   H4    S    
Cu2   O6    S    
C28   N1    A    
C31   C32   S    
C17   C18   A    
C40   H25   S    
C20   C21   A    
C1    O1    A    
C20   C22   A    
C22   C27   A    
Cu1   O1    S    
C9    C34   A    
C22   C24   A    
C3    C4    A    
C28   C42   S    
C41   H29   S    
C3    C15   A    
C26   H6    S    
C40   H26   S    
C12   C30   S    
C10   H7    S    
C29   O7    A    
C4    C5    A    
C17   N2    A    
C14   C34   A    
C38   C39   S    
C23   O5    A    
C6    C7    A    
C5    H10   S    
Cu1   O7    S    
C32   C33   T    
C38   H20   S    
C5    C6    A    
C2    C14   A    
C1    O2    A    
Cu2   O4    S    
C10   C11   A    
C36   H15   S    
C27   N1    A    
C29   O8    A    
C2    C23   S    
C12   O4    A    
C19   H5    S    
C16   H2    S    
C4    H11   S    
