data_mof_unit_67250.cif
_audit_creation_date              2013-03-05T16:01:27-0500
_audit_creation_method            fapswitch 2.2
_symmetry_space_group_name_H-M    P1
_symmetry_Int_Tables_number       1
_space_group_crystal_system       triclinic
_cell_length_a                    20.251974
_cell_length_b                    20.818603
_cell_length_c                    8.85411
_cell_angle_alpha                 89.784512
_cell_angle_beta                  92.754505
_cell_angle_gamma                 89.798529
_cell_volume                      3728.68539957

loop_
_atom_site_label
_atom_site_type_symbol
_atom_site_description
_atom_site_fract_x
_atom_site_fract_y
_atom_site_fract_z
_atom_type_partial_charge
P1    P     P_3+3 0.136530 0.426510 0.931350 0.460388
P2    P     P_3+3 0.136530 0.573490 0.431350 0.443285
P3    P     P_3+3 0.636530 0.926510 0.931350 0.444365
P4    P     P_3+3 0.636530 0.073490 0.431350 0.439495
O1    O     O_2   0.130070 0.404060 0.104920 -0.345139
O2    O     O_2   0.130070 0.595940 0.604920 -0.376302
O3    O     O_2   0.630070 0.904060 0.104920 -0.350701
O4    O     O_2   0.630070 0.095940 0.604920 -0.359282
O5    O     O_3   0.075780 0.466370 0.861070 -0.396473
O6    O     O_3   0.075780 0.533630 0.361070 -0.381204
O7    O     O_3   0.575780 0.966370 0.861070 -0.402194
O8    O     O_3   0.575780 0.033630 0.361070 -0.400106
O9    O     O_3   0.022320 0.344950 0.359800 -0.384953
O10   O     O_3   0.022320 0.655050 0.859800 -0.316478
O11   O     O_3   0.522320 0.844950 0.359800 -0.356828
O12   O     O_3   0.522320 0.155050 0.859800 -0.333552
O13   O     O_2   0.138152 0.308173 0.263895 -0.322277
O14   O     O_2   0.150107 0.669921 0.805507 -0.409751
O15   O     O_2   0.648009 0.825319 0.290908 -0.394483
O16   O     O_2   0.646658 0.178505 0.791606 -0.391058
O17   O     O_3   0.207206 0.472924 0.932170 -0.634408
O18   O     O_3   0.206219 0.522669 0.437676 -0.601111
O19   O     O_3   0.708104 0.971953 0.931378 -0.607303
O20   O     O_3   0.705645 0.022995 0.446182 -0.594285
O21   O     O_3   0.063606 0.216828 0.346130 -0.609332
O22   O     O_3   0.082353 0.774504 0.797852 -0.553874
O23   O     O_3   0.581692 0.722692 0.306155 -0.545109
O24   O     O_3   0.574254 0.279581 0.804707 -0.555347
C1    C     C_3   0.096879 0.117023 0.452307 -0.817760
C2    C     C_3   0.067771 0.884455 0.867470 -0.803548
C3    C     C_3   0.578323 0.613329 0.394644 -0.841299
C4    C     C_3   0.568568 0.387934 0.899256 -0.704280
H1    H     H_    0.070741 0.083404 0.374341 0.285497
H2    H     H_    0.039541 0.905197 0.771485 0.266782
H3    H     H_    0.539753 0.578637 0.358280 0.308344
H4    H     H_    0.537734 0.417418 0.820608 0.300079
H5    H     H_    0.143988 0.129684 0.402678 0.267596
H6    H     H_    0.120875 0.886750 0.844982 0.294215
H7    H     H_    0.618848 0.612038 0.315974 0.323416
H8    H     H_    0.620463 0.387954 0.865932 0.272025
P5    P     P_3+3 0.863410 0.426100 0.379280 0.475322
P6    P     P_3+3 0.863410 0.573900 0.879280 0.476698
P7    P     P_3+3 0.363410 0.926100 0.379280 0.487061
P8    P     P_3+3 0.363410 0.073900 0.879280 0.488482
P9    P     P_3+3 0.915021 0.286816 0.911679 0.562444
P10   P     P_3+3 0.910685 0.709685 0.413687 0.615121
P11   P     P_3+3 0.411451 0.791008 0.914973 0.577535
P12   P     P_3+3 0.409059 0.207575 0.414697 0.592903
O25   O     O_2   0.869860 0.403670 0.205810 -0.414397
O26   O     O_2   0.869860 0.596330 0.705810 -0.403187
O27   O     O_2   0.369860 0.903670 0.205810 -0.418910
O28   O     O_2   0.369860 0.096330 0.705810 -0.402530
O29   O     O_3   0.977590 0.344880 0.951200 -0.330502
O30   O     O_3   0.977590 0.655120 0.451200 -0.322356
O31   O     O_3   0.477590 0.844880 0.951200 -0.336873
O32   O     O_3   0.477590 0.155120 0.451200 -0.339250
O33   O     O_2   0.862301 0.295689 0.031183 -0.383377
O34   O     O_2   0.856397 0.689783 0.521095 -0.314296
O35   O     O_2   0.358027 0.808138 0.027295 -0.364017
O36   O     O_2   0.355031 0.186692 0.521016 -0.328562
O37   O     O_3   0.787303 0.464832 0.391130 -0.641948
O38   O     O_3   0.787804 0.533819 0.888905 -0.650842
O39   O     O_3   0.286118 0.963642 0.390661 -0.628122
O40   O     O_3   0.287705 0.035019 0.895679 -0.639873
O41   O     O_3   0.940660 0.206514 0.937111 -0.567706
O42   O     O_3   0.920625 0.791370 0.462945 -0.632467
O43   O     O_3   0.428779 0.710594 0.962513 -0.620299
O44   O     O_3   0.419233 0.288576 0.466404 -0.629425
C5    C     C_3   0.997752 0.199144 0.030408 0.817173
C6    C     C_3   0.984290 0.818650 0.457923 0.698274
C7    C     C_3   0.495566 0.691325 0.969656 0.826445
C8    C     C_3   0.484467 0.312077 0.473919 0.719523
H9    H     H_    0.998876 0.236142 0.120197 0.047325
H10   H     H_    0.019209 0.796049 0.542376 0.112692
H11   H     H_    0.526734 0.722185 0.045451 0.088631
H12   H     H_    0.515938 0.284588 0.556754 0.115830
C9    C     C_3   0.999608 0.132200 0.104870 0.065390
C10   C     C_3   0.974700 0.890733 0.491809 0.075373
C11   C     C_3   0.494074 0.621045 0.024738 0.093325
C12   C     C_3   0.478413 0.383365 0.519748 0.080218
H13   H     H_    0.051023 0.119796 0.142372 0.109045
H14   H     H_    0.954987 0.896774 0.603496 0.123961
H15   H     H_    0.482917 0.619954 0.143076 0.122367
H16   H     H_    0.460110 0.386948 0.632794 0.147388
H17   H     H_    0.971180 0.135292 0.205754 0.116591
H18   H     H_    0.936396 0.911657 0.412702 0.119242
H19   H     H_    0.453796 0.594571 0.962308 0.128771
H20   H     H_    0.440223 0.407818 0.446386 0.095959
C13   C     C_3   0.769581 0.499208 0.759051 0.867084
C14   C     C_3   0.767575 0.498399 0.260674 0.857417
C15   C     C_3   0.264612 0.003718 0.765069 0.914428
C16   C     C_3   0.265580 0.997686 0.261058 0.936681
H21   H     H_    0.801402 0.507105 0.662538 0.069096
H22   H     H_    0.798029 0.489915 0.162098 0.075284
H23   H     H_    0.294161 0.011940 0.664806 0.078901
H24   H     H_    0.292244 0.985454 0.158939 0.074297
C17   C     C_3   0.698549 0.515208 0.710445 -0.732409
C18   C     C_3   0.696618 0.481828 0.218084 -0.704622
C19   C     C_3   0.193802 0.023964 0.729391 -0.827111
C20   C     C_3   0.192049 0.987692 0.227817 -0.833847
H25   H     H_    0.690507 0.567954 0.711747 0.230718
H26   H     H_    0.689513 0.429003 0.218821 0.227903
H27   H     H_    0.192459 0.077039 0.721272 0.215532
H28   H     H_    0.181420 0.935757 0.213336 0.251423
H29   H     H_    0.687181 0.497452 0.594386 0.251588
H30   H     H_    0.684033 0.499994 0.102655 0.261157
H31   H     H_    0.176315 0.003498 0.619578 0.263394
H32   H     H_    0.175455 0.013458 0.122541 0.250179
H33   H     H_    0.664767 0.492103 0.788305 0.291698
H34   H     H_    0.663933 0.503563 0.300481 0.284555
H35   H     H_    0.160961 0.008407 0.819441 0.277903
H36   H     H_    0.164258 0.006454 0.322931 0.269003
Ba1   Ba    Ba6+2 0.999980 0.452130 0.155200 1.664824
Ba2   Ba    Ba6+2 0.999980 0.547870 0.655200 1.683069
Ba3   Ba    Ba6+2 0.499980 0.952130 0.155200 1.664396
Ba4   Ba    Ba6+2 0.499980 0.047870 0.655200 1.689307
C21   C     C_3   0.200708 0.527813 0.016917 0.257358
C22   C     C_3   0.215863 0.494260 0.580995 0.447080
C23   C     C_3   0.701636 0.027528 0.014487 0.214690
C24   C     C_3   0.693226 0.970390 0.539747 0.391010
H37   H     H_    0.185998 0.516027 0.133014 0.123213
H38   H     H_    0.222565 0.531530 0.669679 0.079356
H39   H     H_    0.682893 0.016909 0.127925 0.114086
H40   H     H_    0.668457 0.985372 0.642928 0.097729
H41   H     H_    0.163361 0.560590 0.961688 0.109493
H42   H     H_    0.172972 0.463798 0.604934 0.048999
H43   H     H_    0.667739 0.061773 0.952605 0.111764
H44   H     H_    0.661326 0.935288 0.476835 0.074223
C25   C     C_3   0.268707 0.559055 0.020450 -0.442228
C26   C     C_3   0.279504 0.454006 0.590356 -0.494828
C27   C     C_3   0.770838 0.055690 0.030748 -0.324681
C28   C     C_3   0.759500 0.939595 0.590844 -0.450702
H45   H     H_    0.308436 0.522393 0.039196 0.236595
H46   H     H_    0.281816 0.428739 0.701284 0.155214
H47   H     H_    0.806450 0.018184 0.072569 0.254983
H48   H     H_    0.753021 0.910462 0.693930 0.145216
H49   H     H_    0.275481 0.582715 0.909287 0.206209
H50   H     H_    0.323171 0.486259 0.590214 0.227314
H51   H     H_    0.785677 0.073007 0.918407 0.234798
H52   H     H_    0.795989 0.977657 0.622440 0.245929
O45   O     O_3   0.924190 0.533610 0.949240 -0.400619
O46   O     O_3   0.924190 0.466390 0.449240 -0.390415
O47   O     O_3   0.424190 0.033610 0.949240 -0.391066
O48   O     O_3   0.424190 0.966390 0.449240 -0.388334
P13   P     P_3+3 0.094488 0.701038 0.892335 0.515537
P14   P     P_3+3 0.091341 0.294399 0.391912 0.467364
P15   P     P_3+3 0.592118 0.204671 0.889949 0.512642
P16   P     P_3+3 0.594695 0.798081 0.389784 0.509351
C29   C     C_3   0.057702 0.177823 0.475015 0.796423
C30   C     C_3   0.047128 0.815502 0.891194 0.915451
C31   C     C_3   0.551721 0.681926 0.409166 0.877985
C32   C     C_3   0.543155 0.319361 0.908308 0.888417
H53   H     H_    0.077334 0.199566 0.580248 0.096929
H54   H     H_    0.061365 0.807126 0.009774 0.097024
H55   H     H_    0.566901 0.694818 0.523734 0.088167
H56   H     H_    0.557669 0.305596 0.023573 0.097795
H57   H     H_    0.106202 0.093335 0.562265 0.280758
H58   H     H_    0.059014 0.913536 0.969437 0.285543
H59   H     H_    0.600564 0.596071 0.504495 0.240599
H60   H     H_    0.568000 0.411068 0.011399 0.286488
C33   C     C_R   0.243819 0.303667 0.999806 -0.135738
C34   C     C_R   0.237806 0.701005 0.510079 -0.124783
C35   C     C_R   0.740834 0.801126 0.004245 -0.160033
C36   C     C_R   0.740213 0.199258 0.505491 -0.120540
C37   C     C_R   0.157626 0.353175 0.818011 0.294042
C38   C     C_R   0.149002 0.653258 0.332574 0.203610
C39   C     C_R   0.652737 0.849370 0.825744 0.232893
C40   C     C_R   0.650891 0.152456 0.328311 0.207473
C41   C     C_R   0.125775 0.349981 0.673946 -0.360094
C42   C     C_R   0.113712 0.659284 0.192961 -0.317827
C43   C     C_R   0.619378 0.844762 0.684128 -0.349060
C44   C     C_R   0.616769 0.158009 0.186942 -0.318393
C45   C     C_R   0.140935 0.302036 0.571919 0.176597
C46   C     C_R   0.129105 0.706836 0.088921 0.199964
C47   C     C_R   0.635307 0.797508 0.580762 0.216197
C48   C     C_R   0.630221 0.207213 0.085171 0.186332
C49   C     C_R   0.190361 0.256721 0.610040 -0.311690
C50   C     C_R   0.177364 0.753038 0.127135 -0.234081
C51   C     C_R   0.684695 0.752239 0.617930 -0.259995
C52   C     C_R   0.677486 0.254146 0.125573 -0.233281
C53   C     C_R   0.222541 0.256092 0.753954 0.150038
C54   C     C_R   0.210801 0.752901 0.270361 0.147483
C55   C     C_R   0.717522 0.752001 0.761155 0.150423
C56   C     C_R   0.712249 0.252523 0.267543 0.152364
C57   C     C_R   0.208635 0.305861 0.858230 0.025305
C58   C     C_R   0.198395 0.701978 0.374074 -0.018067
C59   C     C_R   0.703457 0.801684 0.865778 -0.020888
C60   C     C_R   0.700214 0.201086 0.370193 -0.012196
H61   H     H_    0.087422 0.384395 0.641501 0.144596
H62   H     H_    0.078240 0.622853 0.157845 0.135661
H63   H     H_    0.582223 0.880186 0.650382 0.135927
H64   H     H_    0.581761 0.121291 0.151075 0.136737
C61   C     C_R   0.801830 0.701863 0.937028 0.030879
C62   C     C_R   0.800891 0.298637 0.438633 0.017136
C63   C     C_R   0.303327 0.203301 0.934214 0.036978
C64   C     C_R   0.299003 0.799851 0.441139 -0.001767
C65   C     C_R   0.788299 0.752102 0.040727 0.148507
C66   C     C_R   0.789004 0.246998 0.540578 0.116778
C67   C     C_R   0.289075 0.252963 0.038917 0.154275
C68   C     C_R   0.286021 0.749276 0.545075 0.141044
C69   C     C_R   0.852308 0.653783 0.977932 0.283584
C70   C     C_R   0.852650 0.345411 0.477567 0.266958
C71   C     C_R   0.353480 0.154910 0.975428 0.277369
C72   C     C_R   0.351211 0.846328 0.479177 0.207405
C73   C     C_R   0.888427 0.660754 0.116224 -0.185948
C74   C     C_R   0.890827 0.336178 0.612875 -0.368044
C75   C     C_R   0.390177 0.162748 0.112373 -0.179310
C76   C     C_R   0.387810 0.838607 0.616519 -0.212556
C77   C     C_R   0.870604 0.707033 0.221845 0.430532
C78   C     C_R   0.874042 0.289412 0.718772 0.431710
C79   C     C_R   0.369821 0.206420 0.221657 0.428479
C80   C     C_R   0.370060 0.792848 0.723659 0.453505
C81   C     C_R   0.821133 0.752050 0.183690 -0.244566
C82   C     C_R   0.824794 0.244351 0.680562 -0.123808
C83   C     C_R   0.319206 0.250607 0.184939 -0.222797
C84   C     C_R   0.320317 0.748109 0.686788 -0.159620
C85   C     C_R   0.764280 0.702423 0.798597 -0.130495
C86   C     C_R   0.760618 0.300642 0.303505 -0.156266
C87   C     C_R   0.267267 0.205108 0.793939 -0.123095
C88   C     C_R   0.259141 0.801205 0.305417 -0.163861
H65   H     H_    0.201412 0.219867 0.528960 0.184833
H66   H     H_    0.189386 0.788734 0.043600 0.180740
H67   H     H_    0.696539 0.716270 0.535246 0.188094
H68   H     H_    0.688056 0.291259 0.044303 0.181250
H69   H     H_    0.808449 0.787372 0.266603 0.132454
H70   H     H_    0.813899 0.207282 0.761932 0.139782
H71   H     H_    0.304644 0.284270 0.270020 0.129311
H72   H     H_    0.308773 0.711676 0.768752 0.113967
H73   H     H_    0.927367 0.626799 0.147447 0.138168
H74   H     H_    0.929885 0.369756 0.643281 0.167571
H75   H     H_    0.430786 0.130284 0.140894 0.145387
H76   H     H_    0.427035 0.872067 0.646586 0.145509
H77   H     H_    0.235401 0.340599 0.082083 0.162331
H78   H     H_    0.231875 0.662381 0.589923 0.161414
H79   H     H_    0.733574 0.838850 0.085122 0.178001
H80   H     H_    0.734488 0.160150 0.584284 0.173600
H81   H     H_    0.770945 0.664478 0.718116 0.188264
H82   H     H_    0.767509 0.338751 0.222915 0.190801
H83   H     H_    0.273265 0.166809 0.714368 0.188693
H84   H     H_    0.266172 0.839021 0.224018 0.192299
S1    S     S_3+6 0.972698 0.160252 0.503646 -0.015095
O49   O     O_2   0.954699 0.093024 0.456722 -0.237403
O50   O     O_2   0.959754 0.167106 0.667182 -0.190450
O51   O     O_3   0.925105 0.212550 0.403779 -0.618639
H85   H     H_    0.946798 0.254469 0.419160 0.343992
S2    S     S_3+6 0.959050 0.804646 0.861962 -0.042792
O52   O     O_2   0.944030 0.760174 0.733604 -0.266457
O53   O     O_2   0.933409 0.772824 0.996442 -0.342421
O54   O     O_3   0.917815 0.874540 0.839279 -0.560412
H86   H     H_    0.870601 0.862361 0.827480 0.359584
S3    S     S_3+6 0.462774 0.688469 0.386838 -0.064873
O55   O     O_2   0.430120 0.623921 0.371920 -0.327988
O56   O     O_2   0.434742 0.720450 0.518564 -0.302515
O57   O     O_3   0.442892 0.735779 0.239312 -0.551764
H87   H     H_    0.422014 0.774558 0.280274 0.382956
S4    S     S_3+6 0.454252 0.315061 0.884327 -0.059976
O58   O     O_2   0.432850 0.274772 0.751948 -0.296901
O59   O     O_2   0.429004 0.282665 0.018277 -0.349654
O60   O     O_3   0.418590 0.388257 0.873305 -0.564533
H88   H     H_    0.370738 0.380314 0.882355 0.356154
C89   C     C_3   0.273999 0.607097 0.146920 -0.539319
C90   C     C_3   0.327096 0.655232 0.126385 -0.520359
H89   H     H_    0.373516 0.628971 0.116020 0.271528
H90   H     H_    0.314776 0.684514 0.024160 0.241968
H91   H     H_    0.330282 0.687198 0.225936 0.271191
H92   H     H_    0.229014 0.634397 0.138268 0.206260
H93   H     H_    0.280775 0.583009 0.258675 0.271671
C91   C     C_3   0.283737 0.403264 0.465557 -0.240097
C92   C     C_3   0.306558 0.431278 0.316971 -0.777817
H94   H     H_    0.264574 0.454375 0.253998 0.273935
H95   H     H_    0.346800 0.466797 0.336508 0.266500
H96   H     H_    0.325058 0.392555 0.244748 0.206166
H97   H     H_    0.319993 0.366091 0.505441 0.221918
H98   H     H_    0.235412 0.379120 0.445251 0.197030
C93   C     C_3   0.770757 0.110492 0.140764 -0.590665
C94   C     C_3   0.837484 0.138224 0.176877 -0.568628
H99   H     H_    0.868962 0.101306 0.234716 0.296459
H100  H     H_    0.858039 0.155842 0.072248 0.283523
H101  H     H_    0.831551 0.179632 0.252397 0.263995
H102  H     H_    0.740146 0.148528 0.087659 0.228619
H103  H     H_    0.752299 0.092993 0.248342 0.251961
C95   C     C_3   0.787561 0.895302 0.471914 -0.320757
C96   C     C_3   0.801246 0.930207 0.324753 -0.729041
H104  H     H_    0.754076 0.942170 0.262429 0.265090
H105  H     H_    0.830098 0.974694 0.347727 0.280512
H106  H     H_    0.829683 0.898692 0.251191 0.206331
H107  H     H_    0.834254 0.874484 0.520553 0.228398
H108  H     H_    0.753234 0.854868 0.448198 0.210161
S5    S     S_3+6 0.966890 0.065740 0.996020 0.047695
O61   O     O_2   0.941846 0.016291 0.103075 -0.250806
O62   O     O_2   0.911427 0.085400 0.886744 -0.244734
O63   O     O_3   0.026524 0.031894 0.899490 -0.462655
H109  H     H_    0.001689 0.002073 0.831900 0.412760
S6    S     S_3+6 0.046664 0.939391 0.480572 -0.017926
O64   O     O_2   0.052146 0.961384 0.319926 -0.216814
O65   O     O_2   0.039126 0.996885 0.579033 -0.272823
O66   O     O_3   0.114276 0.897645 0.540654 -0.501139
H110  H     H_    0.149571 0.910576 0.473566 0.391320
S7    S     S_3+6 0.566451 0.574255 0.011337 -0.035473
O67   O     O_2   0.562470 0.520111 0.121040 -0.266008
O68   O     O_2   0.567648 0.546490 0.856538 -0.267668
O69   O     O_3   0.634379 0.618379 0.048471 -0.483696
H111  H     H_    0.666776 0.603238 0.976135 0.393341
S8    S     S_3+6 0.552010 0.429871 0.513995 -0.022836
O70   O     O_2   0.562466 0.448634 0.354133 -0.210140
O71   O     O_2   0.543419 0.489985 0.602584 -0.281819
O72   O     O_3   0.617546 0.387783 0.583854 -0.497244
H112  H     H_    0.652420 0.394396 0.510799 0.398935
S9    S     S_3+6 0.069195 0.207791 0.925104 -0.014354
O73   O     O_2   0.054959 0.258440 0.808474 -0.346863
O74   O     O_2   0.125066 0.227916 0.031061 -0.308071
O75   O     O_3   0.090377 0.139641 0.839336 -0.507098
H113  H     H_    0.123366 0.119007 0.910263 0.366277
S10   S     S_3+6 0.017511 0.813401 0.278090 -0.043867
O76   O     O_2   0.089465 0.829850 0.289878 -0.297834
O77   O     O_2   0.011030 0.746851 0.217032 -0.375053
O78   O     O_3   0.978109 0.867601 0.164548 -0.461994
H114  H     H_    0.930516 0.861292 0.179735 0.351567
S11   S     S_3+6 0.525497 0.691563 0.788810 -0.049754
O79   O     O_2   0.516747 0.756960 0.720027 -0.365081
O80   O     O_2   0.597428 0.674341 0.790919 -0.354213
O81   O     O_3   0.479718 0.635586 0.696034 -0.486324
H115  H     H_    0.511183 0.605484 0.652845 0.406477
S12   S     S_3+6 0.520676 0.309532 0.297267 -0.043326
O82   O     O_2   0.593259 0.321765 0.318537 -0.305191
O83   O     O_2   0.511695 0.245251 0.224558 -0.371530
O84   O     O_3   0.485886 0.368795 0.190590 -0.478309
H116  H     H_    0.438077 0.367408 0.208476 0.351324
S13   S     S_3+6 0.776404 0.418558 0.813862 -0.073091
O85   O     O_2   0.739628 0.404722 0.953272 -0.373846
O86   O     O_2   0.752114 0.375054 0.689320 -0.334757
O87   O     O_3   0.857231 0.410465 0.852439 -0.565516
H117  H     H_    0.865468 0.432385 0.949585 0.401649
S14   S     S_3+6 0.775221 0.578955 0.311500 -0.080791
O88   O     O_2   0.752954 0.622333 0.184376 -0.337212
O89   O     O_2   0.738004 0.594982 0.448924 -0.367779
O90   O     O_3   0.856228 0.584228 0.351045 -0.580557
H118  H     H_    0.862854 0.565578 0.452749 0.404280
S15   S     S_3+6 0.269402 0.922299 0.811178 -0.076514
O91   O     O_2   0.232976 0.906795 0.950321 -0.371461
O92   O     O_2   0.244553 0.881247 0.682179 -0.322729
O93   O     O_3   0.350306 0.913424 0.847734 -0.585464
H119  H     H_    0.359040 0.933272 0.947358 0.401496
S16   S     S_3+6 0.280710 0.077340 0.307761 -0.089571
O94   O     O_2   0.252657 0.121248 0.186168 -0.352686
O95   O     O_2   0.252722 0.094085 0.456397 -0.380087
O96   O     O_3   0.363073 0.078495 0.326314 -0.595413
H120  H     H_    0.373466 0.070849 0.434836 0.411302

loop_
_geom_bond_atom_site_label_1
_geom_bond_atom_site_label_2
_geom_bond_distance
_ccdc_geom_bond_type
C8    S12   1.759970 S    
C19   H27   1.107153 S    
O25   Ba1   2.879515 S    
P5    O37   1.744787 S    
C11   H19   1.112124 S    
O90   H118  0.982368 S    
P7    O39   1.754529 S    
P8    O40   1.748178 S    
P9    O33   1.549937 D    
C95   C96   1.526955 S    
C40   C60   1.461034 A    
O5    Ba2   2.871835 S    
C63   C71   1.460878 A    
S4    O60   1.684522 S    
C34   C68   1.428115 A    
C20   H28   1.109884 S    
C61   C69   1.460366 A    
O51   H85   0.985397 S    
C2    H6    1.104264 S    
C87   H83   1.076395 S    
C29   H53   1.095426 S    
O17   C21   1.378782 S    
S8    O72   1.679514 S    
C32   H56   1.085572 S    
S12   O82   1.495827 D    
C6    H10   1.106719 S    
P8    C71   1.906404 S    
C31   H55   1.080839 S    
P4    O8    1.589643 S    
S13   O85   1.499496 D    
O8    Ba3   2.886279 S    
C17   H29   1.107399 S    
C56   C86   1.429612 A    
P7    O48   1.593829 S    
C26   H46   1.111343 S    
P1    Ba1   3.519182 S    
P5    O25   1.618154 D    
O29   Ba1   2.900384 S    
Ba3   O47   2.871970 S    
C37   C41   1.403366 A    
O20   C24   1.401455 S    
C32   S4    1.805340 S    
O93   H119  0.984041 S    
C39   C43   1.399207 A    
S10   O76   1.496926 D    
C18   H26   1.109637 S    
C77   C81   1.398106 A    
P4    C40   1.907118 S    
O26   Ba2   2.874202 S    
C10   H14   1.091617 S    
C76   C80   1.401788 A    
O32   Ba4   2.887441 S    
C50   C54   1.408602 A    
O6    Ba1   2.886279 S    
C76   H76   1.082647 S    
C25   H45   1.113266 S    
C92   H95   1.110222 S    
O11   Ba3   2.889464 S    
C86   H82   1.078969 S    
C26   H50   1.112297 S    
C42   C46   1.395959 A    
O18   C22   1.402826 S    
C81   H69   1.080064 S    
O24   P15   1.758851 S    
O1    Ba1   2.870233 S    
C38   C58   1.462537 A    
P5    Ba1   3.522730 S    
C36   C60   1.413814 A    
C90   H90   1.107334 S    
C23   H39   1.112351 S    
O15   P16   1.531390 D    
C18   H30   1.106302 S    
C93   H102  1.094612 S    
C89   H92   1.071547 S    
C12   H20   1.107124 S    
P2    Ba2   3.519867 S    
S14   O90   1.665063 S    
O42   C6    1.413274 S    
C71   C75   1.401740 A    
S12   O84   1.682821 S    
O30   Ba2   2.887441 S    
C52   H68   1.082755 S    
P3    O7    1.582671 S    
O4    Ba4   2.875521 S    
C1    C29   1.510739 S    
C25   H49   1.113551 S    
P8    Ba4   3.522033 S    
C13   C17   1.517106 S    
C88   H84   1.079758 S    
P3    Ba3   3.519182 S    
O40   C15   1.391595 S    
P5    C70   1.906949 S    
C52   C56   1.411144 A    
S11   O80   1.498217 D    
P1    O17   1.729519 S    
C1    H1    1.103513 S    
C73   H73   1.082450 S    
C41   H61   1.082696 S    
C63   C87   1.410539 A    
P3    C39   1.896889 S    
C44   H64   1.082512 S    
C61   C85   1.411027 A    
O54   H86   0.990856 S    
C84   H72   1.081679 S    
C67   C83   1.403500 A    
C4    H4    1.097242 S    
C16   S16   1.735319 S    
O19   C23   1.382714 S    
C89   C90   1.489473 S    
Ba3   Ba4   4.861884 S    
C16   H24   1.105301 S    
C3    C31   1.532610 S    
O75   H113  0.990403 S    
O21   C29   1.408106 S    
S1    O49   1.502570 D    
C22   H38   1.110007 S    
O2    Ba2   2.875521 S    
C7    S11   1.739152 S    
Ba4   O48   2.886413 S    
P6    Ba2   3.522033 S    
S4    O59   1.475686 D    
C23   C27   1.521710 S    
P1    C37   1.889079 S    
C21   C25   1.524071 S    
P6    O38   1.751849 S    
P8    O28   1.615082 D    
S8    O71   1.493559 D    
P9    O29   1.777825 S    
C95   H107  1.106388 S    
C55   C85   1.425589 A    
P10   O34   1.544536 D    
C96   H106  1.105873 S    
C75   C79   1.405415 A    
S13   O86   1.495573 D    
C63   C67   1.429153 A    
S9    O74   1.496737 D    
C20   H32   1.111020 S    
C2    H2    1.088314 S    
Ba2   O45   3.098956 S    
C72   C76   1.401795 A    
O87   H117  0.982660 S    
C11   S7    1.766046 S    
S14   O88   1.492144 D    
S3    O57   1.665956 S    
P11   O35   1.546040 D    
P2    O18   1.759514 S    
C17   H33   1.104470 S    
C74   C78   1.403098 A    
C45   C49   1.401550 A    
C4    C32   1.522360 S    
C28   H48   1.107271 S    
C19   H35   1.110630 S    
P6    O45   1.586805 S    
S5    O61   1.502685 D    
C94   H100  1.096188 S    
C33   H77   1.079890 S    
P6    O26   1.615082 D    
C38   C42   1.402804 A    
P9    O41   1.759259 S    
C64   C72   1.463912 A    
C91   H98   1.109069 S    
C85   H81   1.078314 S    
O37   C14   1.389165 S    
C30   S2    1.805210 S    
P2    C38   1.897295 S    
S2    O52   1.489298 D    
C5    S9    1.767877 S    
C90   H89   1.093686 S    
S1    O51   1.673258 S    
P5    O46   1.593829 S    
C8    C12   1.546057 S    
C62   C66   1.429633 A    
C9    H17   1.087691 S    
P8    O47   1.586805 S    
C49   C53   1.403049 A    
C68   C84   1.404721 A    
Ba1   O45   2.871970 S    
C83   H71   1.081426 S    
C13   H21   1.106868 S    
C93   H103  1.101036 S    
S7    O69   1.676927 S    
C35   H79   1.079232 S    
C15   H23   1.107308 S    
C48   C52   1.405398 A    
S15   O93   1.664308 S    
S16   O94   1.499199 D    
C35   C65   1.425055 A    
S12   O83   1.495126 D    
P7    C72   1.901121 S    
C41   C45   1.392090 A    
C15   C19   1.511673 S    
C21   H41   1.111356 S    
C44   C48   1.397900 A    
S2    O54   1.681704 S    
C23   H43   1.112300 S    
C28   C95   1.530773 S    
C18   H34   1.105422 S    
C36   H80   1.080370 S    
C93   C94   1.492328 S    
C12   H16   1.086665 S    
O14   P13   1.536650 D    
C90   H91   1.105995 S    
S3    O55   1.503238 D    
C54   C88   1.430416 A    
O10   P13   1.762710 S    
O12   P15   1.764265 S    
P1    O1    1.616071 D    
P10   O42   1.766981 S    
P3    O3    1.616071 D    
S6    O64   1.501927 D    
P4    O20   1.747147 S    
C2    C30   1.513251 S    
C6    C10   1.544897 S    
S10   O77   1.493029 D    
C62   C70   1.463146 A    
O38   C13   1.394507 S    
S5    O63   1.668320 S    
P12   O32   1.779553 S    
C54   C58   1.430740 A    
C33   C57   1.412315 A    
Ba3   O48   3.099798 S    
C5    C9    1.539090 S    
O9    Ba1   2.889464 S    
O23   P16   1.753244 S    
C53   C87   1.425470 A    
C13   S13   1.749144 S    
C5    H9    1.108509 S    
O21   P14   1.754197 S    
C46   C50   1.404325 A    
C64   C68   1.429165 A    
C26   C91   1.536722 S    
S10   O78   1.681853 S    
O81   H115  0.983593 S    
C7    H11   1.107677 S    
C92   H94   1.102076 S    
C25   C89   1.504449 S    
O12   Ba4   2.902415 S    
C7    C11   1.541393 S    
C36   C66   1.428430 A    
C14   H22   1.107034 S    
O28   Ba4   2.874202 S    
O72   H112  0.989980 S    
O22   C30   1.406463 S    
P1    O5    1.582671 S    
S6    O66   1.682670 S    
O96   H120  0.985943 S    
C31   S3    1.807305 S    
O27   Ba3   2.879515 S    
S7    O67   1.490134 D    
O57   H87   0.988242 S    
C22   C26   1.533606 S    
C55   C59   1.428144 A    
S15   O91   1.500733 D    
P12   C79   1.850210 S    
C9    H13   1.106963 S    
P10   O30   1.783181 S    
C43   H63   1.082672 S    
P12   O44   1.759240 S    
O7    Ba4   2.871835 S    
C20   H36   1.106815 S    
C3    H3    1.103161 S    
C6    S10   1.761722 S    
C65   C81   1.401254 A    
C12   S8    1.782878 S    
Ba1   Ba2   4.861884 S    
O23   C31   1.404143 S    
P15   C48   1.859790 S    
P4    Ba4   3.519867 S    
C1    H57   1.097616 S    
C24   H44   1.110626 S    
C28   H52   1.112727 S    
P10   C77   1.848144 S    
C19   H31   1.106066 S    
O84   H116  0.989075 S    
O10   Ba2   2.902415 S    
C11   H15   1.082601 S    
P7    O27   1.618154 D    
O11   P16   1.766791 S    
O31   Ba3   2.900384 S    
O41   C5    1.395979 S    
O43   C7    1.407897 S    
C10   S6    1.784284 S    
S11   O79   1.495868 D    
C34   H78   1.079511 S    
C40   C44   1.404585 A    
C91   C92   1.529409 S    
C92   H96   1.106323 S    
C1    H5    1.101801 S    
C79   C83   1.400630 A    
C95   H108  1.107882 S    
C74   H74   1.082437 S    
O66   H110  0.988536 S    
P3    O19   1.733703 S    
P4    O4    1.619144 D    
C62   C86   1.415639 A    
S9    O73   1.490766 D    
Ba2   O46   2.886413 S    
C35   C59   1.409547 A    
O63   H109  0.986211 S    
C89   H93   1.110016 S    
C27   H47   1.111377 S    
C9    S5    1.799257 S    
S14   O89   1.499796 D    
S3    O56   1.480766 D    
Ba1   O46   3.099798 S    
P14   C45   1.850252 S    
C15   S15   1.743300 S    
O3    Ba3   2.870233 S    
C21   H37   1.110704 S    
P7    Ba3   3.522730 S    
C80   C84   1.402228 A    
C91   H97   1.109853 S    
S16   O96   1.668471 S    
O44   C8    1.409071 S    
C10   H18   1.106882 S    
S11   O81   1.683448 S    
P11   C80   1.853729 S    
P2    O2    1.619144 D    
O9    P14   1.758260 S    
P11   O43   1.754791 S    
C64   C88   1.415243 A    
P12   O36   1.540029 D    
C94   H101  1.102735 S    
C51   C55   1.403224 A    
S2    O53   1.477233 D    
P16   C47   1.844443 S    
C33   C67   1.426240 A    
C27   H51   1.111964 S    
C34   C58   1.412404 A    
C53   C57   1.426692 A    
C47   C51   1.398672 A    
C78   C82   1.402051 A    
C43   C47   1.393692 A    
C37   C57   1.455695 A    
C56   C60   1.431075 A    
C51   H67   1.083508 S    
S1    O50   1.491124 D    
O39   C16   1.392144 S    
O22   P13   1.751418 S    
C27   C93   1.503003 S    
Ba4   O47   3.098956 S    
C73   C77   1.403525 A    
C39   C59   1.456539 A    
S4    O58   1.492087 D    
O16   P15   1.538414 D    
C8    H12   1.104985 S    
C94   H99   1.105247 S    
S7    O68   1.490748 D    
S8    O70   1.492013 D    
S15   O92   1.497781 D    
S16   O95   1.499509 D    
O24   C32   1.407673 S    
C70   C74   1.406484 A    
S13   O87   1.663855 S    
O60   H88   0.990657 S    
P2    O6    1.589643 S    
C96   H104  1.107128 S    
C16   C20   1.519203 S    
P11   O31   1.768280 S    
S9    O75   1.675948 S    
C2    H58   1.109886 S    
O69   H111  0.990205 S    
C69   C73   1.404063 A    
P13   C46   1.849489 S    
C24   C28   1.533145 S    
C42   H62   1.082642 S    
P9    C78   1.863265 S    
C49   H65   1.082819 S    
S6    O65   1.495093 D    
C75   H75   1.082471 S    
C61   C65   1.428785 A    
S5    O62   1.501542 D    
C3    H7    1.102001 S    
C4    H8    1.105164 S    
O78   H114  0.988720 S    
C82   H70   1.084247 S    
C17   H25   1.109723 S    
O13   P14   1.538987 D    
C29   S1    1.790886 S    
C30   H54   1.088596 S    
C50   H66   1.083072 S    
P6    C69   1.899055 S    
C22   H42   1.105514 S    
C14   S14   1.743509 S    
C14   C18   1.509502 S    
C3    H59   1.109998 S    
C24   H40   1.108428 S    
C96   H105  1.111017 S    
C4    H60   1.105733 S    
C66   C82   1.406224 A    
