data_mof_unit_62071.cif
_audit_creation_date              2013-03-05T17:03:32-0500
_audit_creation_method            fapswitch 2.2
_symmetry_space_group_name_H-M    P1
_symmetry_Int_Tables_number       1
_space_group_crystal_system       triclinic
_cell_length_a                    23.816699
_cell_length_b                    23.938589
_cell_length_c                    16.173517
_cell_angle_alpha                 90.010461
_cell_angle_beta                  93.190542
_cell_angle_gamma                 90.005603
_cell_volume                      9206.84606974

loop_
_atom_site_label
_atom_site_type_symbol
_atom_site_description
_atom_site_fract_x
_atom_site_fract_y
_atom_site_fract_z
_atom_type_partial_charge
O1    O     O_R   0.554580 0.058040 0.577230 -0.628469
O2    O     O_R   0.445420 0.941960 0.422770 -0.628465
O3    O     O_R   0.445420 0.058040 0.422770 -0.628336
O4    O     O_R   0.554580 0.941960 0.577230 -0.628335
O5    O     O_R   0.054580 0.558040 0.577230 -0.628476
O6    O     O_R   0.945420 0.441960 0.422770 -0.628468
O7    O     O_R   0.945420 0.558040 0.422770 -0.628332
O8    O     O_R   0.054580 0.441960 0.577230 -0.628330
O9    O     O_R   0.560810 0.058060 0.438340 -0.614820
O10   O     O_R   0.439190 0.941940 0.561660 -0.614851
O11   O     O_R   0.439190 0.058060 0.561660 -0.615173
O12   O     O_R   0.560810 0.941940 0.438340 -0.615204
O13   O     O_R   0.060810 0.558060 0.438340 -0.614819
O14   O     O_R   0.939190 0.441940 0.561660 -0.614836
O15   O     O_R   0.939190 0.558060 0.561660 -0.615191
O16   O     O_R   0.060810 0.441940 0.438340 -0.615205
C1    C     C_R   0.575544 0.076921 0.511127 0.876240
C2    C     C_R   0.424454 0.923081 0.488873 0.876250
C3    C     C_R   0.424457 0.076921 0.488885 0.876188
C4    C     C_R   0.575549 0.923084 0.511116 0.876178
C5    C     C_R   0.075544 0.576921 0.511127 0.876245
C6    C     C_R   0.924454 0.423081 0.488873 0.876245
C7    C     C_R   0.924457 0.576920 0.488885 0.876184
C8    C     C_R   0.075548 0.423084 0.511115 0.876180
Zn1   Zn    Zn3+2 0.495820 1.000000 0.592740 0.947486
Zn2   Zn    Zn3+2 0.504180 0.000000 0.407260 0.947487
Zn3   Zn    Zn3+2 0.995820 0.500000 0.592740 0.947485
Zn4   Zn    Zn3+2 0.004180 0.500000 0.407260 0.947487
C9    C     C_R   0.616202 0.878508 0.518890 -0.013184
C10   C     C_R   0.383838 0.121527 0.481113 -0.013154
C11   C     C_R   0.383811 0.878492 0.481064 -0.012715
C12   C     C_R   0.616168 0.121526 0.518936 -0.012670
C13   C     C_R   0.116205 0.378512 0.518888 -0.013170
C14   C     C_R   0.883834 0.621523 0.481116 -0.013174
C15   C     C_R   0.883809 0.378494 0.481063 -0.012685
C16   C     C_R   0.116165 0.621530 0.518936 -0.012682
C17   C     C_R   0.619919 0.840386 0.454084 -0.250377
C18   C     C_R   0.380156 0.159660 0.545915 -0.250323
C19   C     C_R   0.380247 0.840233 0.545704 -0.249995
C20   C     C_R   0.619707 0.159796 0.454304 -0.249930
C21   C     C_R   0.119919 0.340385 0.454086 -0.250392
C22   C     C_R   0.880147 0.659653 0.545921 -0.250342
C23   C     C_R   0.880251 0.340230 0.545697 -0.249974
C24   C     C_R   0.119712 0.659791 0.454294 -0.249916
C25   C     C_R   0.660620 0.799276 0.459210 -0.173645
C26   C     C_R   0.339496 0.200810 0.540777 -0.173672
C27   C     C_R   0.339538 0.799118 0.540567 -0.174062
C28   C     C_R   0.660389 0.200935 0.459449 -0.174101
C29   C     C_R   0.160630 0.299285 0.459207 -0.173649
C30   C     C_R   0.839483 0.700799 0.540786 -0.173642
C31   C     C_R   0.839540 0.299118 0.540562 -0.174087
C32   C     C_R   0.160392 0.700931 0.459437 -0.174108
C33   C     C_R   0.698199 0.796292 0.529517 0.325312
C34   C     C_R   0.301926 0.203824 0.470464 0.325316
C35   C     C_R   0.301802 0.796275 0.470424 0.325256
C36   C     C_R   0.698124 0.203794 0.529593 0.325262
C37   C     C_R   0.198220 0.296316 0.529503 0.325309
C38   C     C_R   0.801912 0.703811 0.470475 0.325314
C39   C     C_R   0.801795 0.296283 0.470426 0.325258
C40   C     C_R   0.198118 0.703801 0.529591 0.325267
C41   C     C_R   0.692160 0.832366 0.596142 -0.198052
C42   C     C_R   0.307936 0.167741 0.403844 -0.198044
C43   C     C_R   0.307699 0.832478 0.403933 -0.198003
C44   C     C_R   0.692249 0.167579 0.596078 -0.197984
C45   C     C_R   0.192185 0.332394 0.596122 -0.198064
C46   C     C_R   0.807925 0.667730 0.403852 -0.198047
C47   C     C_R   0.807686 0.332493 0.403940 -0.197995
C48   C     C_R   0.192234 0.667597 0.596086 -0.197977
C49   C     C_R   0.651282 0.873645 0.590944 -0.220802
C50   C     C_R   0.348772 0.126420 0.409053 -0.220813
C51   C     C_R   0.348586 0.873759 0.409139 -0.220803
C52   C     C_R   0.651389 0.126274 0.590864 -0.220801
C53   C     C_R   0.151297 0.373664 0.590930 -0.220802
C54   C     C_R   0.848765 0.626415 0.409058 -0.220806
C55   C     C_R   0.848576 0.373771 0.409145 -0.220797
C56   C     C_R   0.151376 0.626289 0.590873 -0.220805
N1    N     N_2   0.743294 0.758408 0.534486 -0.212266
N2    N     N_2   0.256846 0.241728 0.465498 -0.212273
N3    N     N_2   0.256676 0.758415 0.465512 -0.212320
N4    N     N_2   0.743240 0.241665 0.534503 -0.212325
N5    N     N_2   0.243320 0.258435 0.534470 -0.212266
N6    N     N_2   0.756832 0.741712 0.465510 -0.212276
N7    N     N_2   0.756668 0.258425 0.465515 -0.212321
N8    N     N_2   0.243233 0.741673 0.534501 -0.212320
H1    H     H_    0.408520 0.157464 0.600541 0.153669
H2    H     H_    0.591549 0.842558 0.399460 0.153658
H3    H     H_    0.591227 0.157697 0.399792 0.153596
H4    H     H_    0.408726 0.842321 0.600214 0.153598
H5    H     H_    0.908512 0.657459 0.600547 0.153671
H6    H     H_    0.091541 0.342548 0.399472 0.153657
H7    H     H_    0.091239 0.657685 0.399775 0.153597
H8    H     H_    0.908737 0.342311 0.600203 0.153589
H9    H     H_    0.336924 0.229601 0.592081 0.148261
H10   H     H_    0.663212 0.770489 0.407905 0.148263
H11   H     H_    0.662860 0.229831 0.408269 0.148247
H12   H     H_    0.337050 0.770228 0.591749 0.148251
H13   H     H_    0.836909 0.729590 0.592091 0.148256
H14   H     H_    0.163220 0.270493 0.407908 0.148266
H15   H     H_    0.162870 0.729819 0.408249 0.148245
H16   H     H_    0.837058 0.270223 0.591741 0.148250
H17   H     H_    0.720442 0.829621 0.650806 0.137054
H18   H     H_    0.279659 0.170506 0.349178 0.137056
H19   H     H_    0.279296 0.829840 0.349392 0.137019
H20   H     H_    0.720653 0.170226 0.650621 0.137012
H21   H     H_    0.220475 0.329661 0.650776 0.137060
H22   H     H_    0.779648 0.670493 0.349188 0.137058
H23   H     H_    0.779276 0.329862 0.349404 0.137014
H24   H     H_    0.220630 0.670253 0.650637 0.137009
H25   H     H_    0.648126 0.902630 0.641937 0.150787
H26   H     H_    0.351904 0.097430 0.358062 0.150802
H27   H     H_    0.351631 0.902852 0.358274 0.150541
H28   H     H_    0.648362 0.097173 0.641727 0.150541
H29   H     H_    0.148143 0.402654 0.641917 0.150788
H30   H     H_    0.851901 0.597424 0.358065 0.150797
H31   H     H_    0.851615 0.402869 0.358283 0.150529
H32   H     H_    0.148343 0.597197 0.641744 0.150545
N9    N     N_R   0.509690 1.000000 0.283730 -0.104212
N10   N     N_R   0.490310 0.000000 0.716270 -0.104213
N11   N     N_R   0.009690 0.500000 0.283730 -0.104213
N12   N     N_R   0.990310 0.500000 0.716270 -0.104213
C57   C     C_R   0.461378 0.999774 0.234086 -0.041461
C58   C     C_R   0.538623 0.000176 0.765914 -0.041457
C59   C     C_R   0.961378 0.499778 0.234086 -0.041458
C60   C     C_R   0.038622 0.500196 0.765914 -0.041459
C61   C     C_R   0.463161 0.999792 0.146991 -0.272069
C62   C     C_R   0.536840 0.000150 0.853008 -0.272071
C63   C     C_R   0.963161 0.499798 0.146991 -0.272069
C64   C     C_R   0.036839 0.500172 0.853008 -0.272068
C65   C     C_R   0.515538 0.000060 0.109934 0.320007
C66   C     C_R   0.484463 0.999928 0.890066 0.320007
C67   C     C_R   0.015537 0.500063 0.109934 0.320006
C68   C     C_R   0.984462 0.499929 0.890066 0.320006
C69   C     C_R   0.564069 0.000291 0.161997 -0.339574
C70   C     C_R   0.435932 0.999747 0.838004 -0.339573
C71   C     C_R   0.064069 0.500290 0.161996 -0.339573
C72   C     C_R   0.935931 0.499728 0.838003 -0.339573
C73   C     C_R   0.560942 0.000246 0.248352 0.116731
C74   C     C_R   0.439058 0.999797 0.751650 0.116723
C75   C     C_R   0.060942 0.500244 0.248351 0.116728
C76   C     C_R   0.939058 0.499778 0.751649 0.116728
N13   N     N_2   0.522298 0.000110 0.022225 -0.185149
N14   N     N_2   0.477703 0.999874 0.977775 -0.185149
N15   N     N_2   0.022297 0.500116 0.022225 -0.185148
N16   N     N_2   0.977702 0.499874 0.977775 -0.185148
H33   H     H_    0.578849 0.000335 0.737961 0.130327
H34   H     H_    0.421151 0.999579 0.262037 0.130329
H35   H     H_    0.078849 0.500371 0.737962 0.130327
H36   H     H_    0.921151 0.499585 0.262038 0.130329
H37   H     H_    0.575956 0.000297 0.890422 0.153463
H38   H     H_    0.424046 0.999604 0.109578 0.153463
H39   H     H_    0.075955 0.500335 0.890422 0.153463
H40   H     H_    0.924045 0.499614 0.109578 0.153463
H41   H     H_    0.604774 0.000496 0.135075 0.150726
H42   H     H_    0.395227 0.999578 0.864927 0.150726
H43   H     H_    0.104773 0.500493 0.135074 0.150726
H44   H     H_    0.895226 0.499543 0.864926 0.150726
C77   C     C_R   0.614545 0.000466 0.298180 0.166964
C78   C     C_R   0.642155 0.051131 0.316441 -0.128869
C79   C     C_R   0.694651 0.051315 0.359747 -0.142850
C80   C     C_R   0.720687 0.000864 0.382495 -0.129215
C81   C     C_R   0.694788 0.950208 0.360443 -0.143855
C82   C     C_R   0.642308 0.949992 0.317098 -0.127484
H45   H     H_    0.622817 0.090353 0.297523 0.121005
H46   H     H_    0.715262 0.090537 0.375260 0.147317
H47   H     H_    0.761296 0.001021 0.416031 0.132986
H48   H     H_    0.715502 0.911134 0.376499 0.147311
H49   H     H_    0.623102 0.910609 0.298647 0.121222
C83   C     C_R   0.385456 0.999637 0.701822 0.166970
C84   C     C_R   0.357819 0.948999 0.683482 -0.128736
C85   C     C_R   0.305326 0.948870 0.640172 -0.142945
C86   C     C_R   0.279316 0.999349 0.617507 -0.129215
C87   C     C_R   0.305241 0.049978 0.639642 -0.143776
C88   C     C_R   0.357723 0.050138 0.682984 -0.127609
H50   H     H_    0.377135 0.909754 0.702343 0.121040
H51   H     H_    0.284695 0.909668 0.624595 0.147325
H52   H     H_    0.238707 0.999236 0.583971 0.132986
H53   H     H_    0.284549 0.089073 0.623650 0.147300
H54   H     H_    0.376953 0.089499 0.701491 0.121185
C89   C     C_R   0.114545 0.500462 0.298179 0.166966
C90   C     C_R   0.142156 0.551126 0.316439 -0.128871
C91   C     C_R   0.194652 0.551310 0.359742 -0.142855
C92   C     C_R   0.220688 0.500859 0.382489 -0.129212
C93   C     C_R   0.194788 0.450203 0.360438 -0.143847
C94   C     C_R   0.142307 0.449988 0.317096 -0.127483
H55   H     H_    0.122818 0.590349 0.297521 0.120998
H56   H     H_    0.215263 0.590532 0.375254 0.147315
H57   H     H_    0.261298 0.501016 0.416022 0.132986
H58   H     H_    0.215503 0.411129 0.376492 0.147314
H59   H     H_    0.123099 0.410605 0.298648 0.121229
C95   C     C_R   0.885455 0.499594 0.701821 0.166965
C96   C     C_R   0.857828 0.448945 0.683513 -0.128793
C97   C     C_R   0.805332 0.448793 0.640208 -0.142895
C98   C     C_R   0.779311 0.499261 0.617510 -0.129215
C99   C     C_R   0.805227 0.549901 0.639609 -0.143816
C100  C     C_R   0.857709 0.550084 0.682950 -0.127556
H60   H     H_    0.877153 0.409709 0.702397 0.121029
H61   H     H_    0.784709 0.409583 0.624658 0.147325
H62   H     H_    0.738702 0.499129 0.583976 0.132985
H63   H     H_    0.784524 0.588987 0.623592 0.147298
H64   H     H_    0.876929 0.589454 0.701432 0.121204

loop_
_geom_bond_atom_site_label_1
_geom_bond_atom_site_label_2
_geom_bond_distance
_ccdc_geom_bond_type
C87   H53   1.082418 S    
C68   N16   1.436555 S    
C86   C87   1.397637 A    
C52   H28   1.083515 S    
O16   Zn4   1.982092 S    
C95   C96   1.403107 A    
C28   H11   1.082939 S    
O2    C2    1.286924 A    
C76   C95   1.471322 S    
C84   C85   1.398665 A    
C33   N1    1.404639 S    
C14   C22   1.396193 A    
Zn2   N9    2.009493 S    
C69   C73   1.402774 A    
C72   C76   1.402773 A    
C23   C31   1.380722 A    
Zn1   N10   2.009495 S    
O4    Zn1   1.997798 S    
C53   H29   1.083502 S    
C12   C52   1.400433 A    
C5    C16   1.441668 S    
C91   C92   1.397630 A    
C90   C91   1.398667 A    
C71   C75   1.402773 A    
C6    C15   1.441658 S    
O11   C3    1.290976 A    
C77   C78   1.403114 A    
C4    C9    1.441755 S    
C69   H41   1.084637 S    
N1    N6    1.244247 D    
C20   H3    1.083204 S    
C74   C83   1.471290 S    
C39   N7    1.404656 S    
C100  H64   1.082468 S    
C67   C71   1.391660 A    
C38   N6    1.404624 S    
N3    N8    1.244205 D    
C72   H44   1.084636 S    
C62   H37   1.082276 S    
C65   N13   1.436549 S    
C85   C86   1.397634 A    
O11   Zn1   1.982090 S    
N15   N16   1.248965 D    
O6    C6    1.286920 A    
C15   C23   1.396140 A    
C71   H43   1.084634 S    
C42   C50   1.386540 A    
C20   C28   1.380724 A    
N10   C58   1.365954 A    
C58   H33   1.081894 S    
C45   H21   1.083210 S    
N9    C57   1.365953 A    
C92   C93   1.397641 A    
C50   H26   1.083503 S    
C39   C47   1.394436 A    
C29   H14   1.082930 S    
O5    Zn3   1.997670 S    
C33   C41   1.394438 A    
C38   C46   1.394448 A    
O6    Zn4   1.997672 S    
C79   C80   1.397632 A    
C51   H27   1.083477 S    
C27   H12   1.082901 S    
C36   C44   1.394438 A    
O13   Zn4   1.981777 S    
O3    C3    1.286963 A    
N12   C76   1.376665 A    
O14   Zn3   1.981778 S    
C32   C40   1.409223 A    
C81   H48   1.082428 S    
C68   C72   1.391659 A    
C60   C64   1.411629 A    
C24   C32   1.380722 A    
O15   C7    1.290968 A    
C21   H6    1.083183 S    
C27   C35   1.409207 A    
C25   C33   1.409228 A    
O16   C8    1.290969 A    
O1    Zn1   1.997670 S    
O12   C4    1.290982 A    
C66   C70   1.391656 A    
C49   H25   1.083502 S    
C19   H4    1.083157 S    
C46   H22   1.083200 S    
N4    N7    1.244217 D    
C25   H10   1.082928 S    
C64   C68   1.413709 A    
C21   C29   1.380680 A    
C10   C50   1.400457 A    
C54   H30   1.083531 S    
O9    Zn2   1.981777 S    
C81   C82   1.398652 A    
C9    C49   1.400485 A    
C85   H51   1.082401 S    
C83   C88   1.403033 A    
C60   H35   1.081893 S    
N9    C73   1.376667 A    
C1    C12   1.441659 S    
C18   H1    1.083182 S    
C96   C97   1.398670 A    
C30   C38   1.409200 A    
C17   H2    1.083215 S    
C43   H19   1.083165 S    
C61   H38   1.082279 S    
C45   C53   1.386553 A    
C34   C42   1.394425 A    
Zn3   N12   2.009495 S    
O7    Zn4   1.997797 S    
C89   C90   1.403109 A    
C35   C43   1.394425 A    
O5    C5    1.286916 A    
C58   C62   1.411633 A    
C41   H17   1.083244 S    
C93   C94   1.398651 A    
C57   C61   1.411626 A    
C63   H40   1.082280 S    
C35   N3    1.404671 S    
C64   H39   1.082279 S    
O15   Zn3   1.982090 S    
C99   H63   1.082424 S    
C22   C30   1.380681 A    
C84   H50   1.082520 S    
C7    C14   1.441739 S    
C15   C55   1.400433 A    
C26   C34   1.409216 A    
O13   C5    1.290984 A    
O2    Zn2   1.997672 S    
C97   H61   1.082408 S    
O9    C1    1.290980 A    
C24   H7    1.083212 S    
C95   C100  1.403036 A    
C14   C54   1.400450 A    
C65   C69   1.391660 A    
C78   H45   1.082526 S    
O10   Zn1   1.981778 S    
C13   C53   1.400459 A    
C83   C84   1.403097 A    
C43   C51   1.386580 A    
C23   H8    1.083195 S    
C78   C79   1.398670 A    
C9    C17   1.396161 A    
C37   N5    1.404678 S    
C16   C24   1.396150 A    
C47   C55   1.386556 A    
C17   C25   1.380670 A    
C59   C63   1.411629 A    
C12   C20   1.396148 A    
C67   N15   1.436554 S    
C87   C88   1.398650 A    
C56   H32   1.083513 S    
C19   C27   1.380749 A    
C89   C94   1.403031 A    
C41   C49   1.386554 A    
C31   H16   1.082931 S    
C28   C36   1.409223 A    
C30   H13   1.082956 S    
C57   H34   1.081894 S    
O3    Zn2   1.997797 S    
C44   H20   1.083218 S    
C96   H60   1.082523 S    
C37   C45   1.394428 A    
Zn4   N11   2.009493 S    
C70   C74   1.402772 A    
C29   C37   1.409221 A    
C91   H56   1.082412 S    
N11   C59   1.365954 A    
C48   C56   1.386545 A    
C86   H52   1.082228 S    
C32   H15   1.082937 S    
O1    C1    1.286915 A    
C8    C13   1.441739 S    
C36   N4    1.404650 S    
C73   C77   1.471326 S    
C22   H5    1.083171 S    
N11   C75   1.376665 A    
C97   C98   1.397632 A    
O14   C6    1.290975 A    
C80   H47   1.082236 S    
C13   C21   1.396167 A    
N10   C74   1.376657 A    
N13   N14   1.248975 D    
C80   C81   1.397639 A    
C40   N8    1.404656 S    
N2    N5    1.244177 D    
C47   H23   1.083208 S    
C70   H42   1.084635 S    
C26   H9    1.082931 S    
C88   H54   1.082470 S    
O10   C2    1.290973 A    
O7    C7    1.286971 A    
C11   C51   1.400419 A    
O8    C8    1.286967 A    
C11   C19   1.396134 A    
C99   C100  1.398653 A    
C92   H57   1.082234 S    
C44   C52   1.386544 A    
N12   C60   1.365955 A    
C66   N14   1.436552 S    
C63   C67   1.413708 A    
C18   C26   1.380689 A    
C75   C89   1.471320 S    
C90   H55   1.082526 S    
C55   H31   1.083509 S    
C82   H49   1.082465 S    
O4    C4    1.286966 A    
C61   C65   1.413710 A    
C16   C56   1.400442 A    
C31   C39   1.409225 A    
C59   H36   1.081894 S    
C40   C48   1.394433 A    
C98   C99   1.397637 A    
O12   Zn2   1.982092 S    
O8    Zn3   1.997798 S    
C62   C66   1.413706 A    
C79   H46   1.082409 S    
C2    C11   1.441677 S    
C48   H24   1.083233 S    
C10   C18   1.396181 A    
C42   H18   1.083215 S    
C93   H58   1.082425 S    
C3    C10   1.441744 S    
C77   C82   1.403029 A    
C94   H59   1.082467 S    
C98   H62   1.082237 S    
C34   N2    1.404675 S    
C46   C54   1.386539 A    
