data_mof_unit_16484.cif
_audit_creation_date              2012-12-11T17:22:16-0500
_audit_creation_method            fapswitch 2.2
_symmetry_space_group_name_H-M    P1
_symmetry_Int_Tables_number       1
_space_group_crystal_system       triclinic
_cell_length_a                    20.67151
_cell_length_b                    7.19455
_cell_length_c                    20.51751
_cell_angle_alpha                 89.999278
_cell_angle_beta                  101.806044
_cell_angle_gamma                 90.0
_cell_volume                      2986.85938595

loop_
_atom_site_label
_atom_site_type_symbol
_atom_type_description
_atom_site_fract_x
_atom_site_fract_y
_atom_site_fract_z
_atom_type_partial_charge
O1    O     O_R   0.807340 0.614490 0.194100 -0.518742
O2    O     O_R   0.192660 0.385510 0.805900 -0.518743
O3    O     O_R   0.692660 0.114490 0.305900 -0.518742
O4    O     O_R   0.307340 0.885510 0.694100 -0.518742
O5    O     O_R   0.672910 0.282300 0.178070 -0.525918
O6    O     O_R   0.327090 0.717700 0.821930 -0.525918
O7    O     O_R   0.827090 0.782300 0.321930 -0.525918
O8    O     O_R   0.172910 0.217700 0.678070 -0.525918
C1    C     C_R   0.649604 0.453162 0.160620 0.826889
C2    C     C_R   0.350396 0.546838 0.839380 0.826889
C3    C     C_R   0.850396 0.953161 0.339380 0.826889
C4    C     C_R   0.149604 0.046839 0.660620 0.826891
O9    O     O_R   0.805620 0.284620 0.186180 -0.537635
O10   O     O_R   0.194380 0.715380 0.813820 -0.537635
O11   O     O_R   0.694380 0.784620 0.313820 -0.537635
O12   O     O_R   0.305620 0.215380 0.686180 -0.537635
O13   O     O_R   0.826310 0.116750 0.314070 -0.523473
O14   O     O_R   0.173690 0.883250 0.685930 -0.523474
O15   O     O_R   0.673690 0.616750 0.185930 -0.523473
O16   O     O_R   0.326310 0.383250 0.814070 -0.523473
C5    C     C_R   0.824871 0.453244 0.171520 0.725875
C6    C     C_R   0.175129 0.546756 0.828480 0.725874
C7    C     C_R   0.675129 0.953242 0.328480 0.725875
C8    C     C_R   0.324871 0.046758 0.671520 0.725876
O17   O     O_3   0.756630 0.448770 0.291950 -0.370192
O18   O     O_3   0.243370 0.551230 0.708050 -0.370192
O19   O     O_3   0.743370 0.948770 0.208050 -0.370192
O20   O     O_3   0.256630 0.051230 0.791950 -0.370192
V1    V     V_3+5 0.748770 0.172970 0.242220 1.671081
V2    V     V_3+5 0.251230 0.827030 0.757780 1.671080
V3    V     V_3+5 0.751230 0.672970 0.257780 1.671085
V4    V     V_3+5 0.248770 0.327030 0.742220 1.671084
C9    C     C_R   0.459443 0.158528 0.497903 0.250377
C10   C     C_R   0.540557 0.841472 0.502096 0.250377
C11   C     C_R   0.040558 0.658526 0.002096 0.250374
C12   C     C_R   0.959442 0.341474 0.997904 0.250374
C13   C     C_R   0.454909 0.014295 0.543351 -0.096889
C14   C     C_R   0.545091 0.985705 0.456649 -0.096890
C15   C     C_R   0.045091 0.514293 0.956649 -0.096888
C16   C     C_R   0.954909 0.485706 0.043351 -0.096888
C17   C     C_R   0.495320 0.855720 0.545730 0.344038
C18   C     C_R   0.504680 0.144279 0.454270 0.344039
C19   C     C_R   0.004680 0.355721 0.954271 0.344036
C20   C     C_R   0.995320 0.644279 0.045729 0.344036
C21   C     C_1   0.408482 0.027622 0.588327 0.253821
C22   C     C_1   0.591518 0.972378 0.411673 0.253820
C23   C     C_1   0.091518 0.527619 0.911673 0.253820
C24   C     C_1   0.908482 0.472381 0.088327 0.253820
C25   C     C_1   0.629848 0.962670 0.374008 -0.040756
C26   C     C_1   0.370152 0.037330 0.625992 -0.040755
C27   C     C_1   0.870152 0.462673 0.125992 -0.040756
C28   C     C_1   0.129848 0.537327 0.874008 -0.040755
C29   C     C_R   0.911709 0.960527 0.392350 -0.274955
C30   C     C_R   0.088291 0.039472 0.607650 -0.274956
C31   C     C_R   0.588291 0.460531 0.107651 -0.274956
C32   C     C_R   0.411709 0.539469 0.892349 -0.274956
C33   C     C_R   0.970207 0.101054 0.573311 0.452932
C34   C     C_R   0.029793 0.898943 0.426689 0.452930
C35   C     C_R   0.529793 0.601054 0.926688 0.452931
C36   C     C_R   0.470207 0.398945 0.073312 0.452931
C37   C     C_R   0.029582 0.112268 0.620963 0.258784
C38   C     C_R   0.970417 0.887729 0.379037 0.258786
C39   C     C_R   0.470417 0.612267 0.879035 0.258785
C40   C     C_R   0.529582 0.387732 0.120964 0.258785
C41   C     C_R   0.088049 0.955326 0.545459 0.371583
C42   C     C_R   0.911952 0.044675 0.454540 0.371582
C43   C     C_R   0.411952 0.455322 0.954541 0.371581
C44   C     C_R   0.588048 0.544678 0.045459 0.371582
C45   C     C_R   0.030113 0.962784 0.492902 -0.184888
C46   C     C_R   0.969888 0.037214 0.507098 -0.184889
C47   C     C_R   0.469887 0.462784 0.007098 -0.184889
C48   C     C_R   0.530112 0.537216 0.992902 -0.184889
O21   O     O_3   0.511014 0.281122 0.408552 -0.573674
H1    H     H_    0.480518 0.385073 0.411288 0.381764
O22   O     O_3   0.488986 0.718878 0.591448 -0.573673
H2    H     H_    0.519482 0.614927 0.588712 0.381764
O23   O     O_3   0.988988 0.781122 0.091447 -0.573674
H3    H     H_    0.019484 0.885071 0.088709 0.381763
O24   O     O_3   0.011012 0.218878 0.908553 -0.573673
H4    H     H_    0.980517 0.114927 0.911292 0.381764
Cl1   Cl    Cl    0.407896 0.355809 0.496442 -0.529196
Cl2   Cl    Cl    0.592104 0.644191 0.503558 -0.529196
Cl3   Cl    Cl    0.092106 0.855804 0.003556 -0.529197
Cl4   Cl    Cl    0.907894 0.144196 0.996444 -0.529196
Cl5   Cl    Cl    0.839537 0.170392 0.460583 -0.508181
Cl6   Cl    Cl    0.160465 0.829615 0.539416 -0.508181
Cl7   Cl    Cl    0.660462 0.670397 0.039415 -0.508179
Cl8   Cl    Cl    0.339537 0.329605 0.960585 -0.508179
Cl9   Cl    Cl    0.970482 0.793661 0.299012 -0.506795
Cl10  Cl    Cl    0.029518 0.206334 0.700988 -0.506795
Cl11  Cl    Cl    0.529518 0.293666 0.200990 -0.506796
Cl12  Cl    Cl    0.470482 0.706333 0.799010 -0.506796
Cl13  Cl    Cl    0.897475 0.147098 0.603670 -0.345849
Cl14  Cl    Cl    0.102525 0.852892 0.396330 -0.345848
Cl15  Cl    Cl    0.602525 0.647100 0.896329 -0.345848
Cl16  Cl    Cl    0.397475 0.352897 0.103671 -0.345848

loop_
_geom_bond_atom_site_label_1
_geom_bond_atom_site_label_2
_ccdc_geom_bond_type
C34   C38   A    
O1    C5    A    
O19   V1    S    
O13   V1    S    
O21   H1    S    
O3    C7    A    
O15   V3    S    
C42   Cl5   S    
C31   C44   A    
C41   Cl6   S    
C30   C41   A    
O23   H3    S    
O7    C3    A    
C22   C25   T    
C43   Cl8   S    
C9    C18   A    
O9    V1    S    
C20   O23   S    
C14   C18   A    
O4    C8    A    
C7    C25   S    
C19   O24   S    
C38   Cl9   S    
O1    V3    S    
O2    V4    S    
O3    V1    S    
C1    O15   A    
C24   C27   T    
C2    O16   A    
C39   Cl12  S    
O2    C6    A    
C1    C31   S    
C33   C46   A    
C2    C32   S    
C3    C29   S    
C44   C48   A    
C35   C48   A    
O11   C7    A    
O12   C8    A    
C33   Cl13  S    
C10   C17   A    
C35   Cl15  S    
O10   V2    S    
O5    V1    S    
C8    C26   S    
O7    V3    S    
O8    V4    S    
C12   C16   A    
C11   Cl3   S    
O18   V4    S    
C15   C19   A    
C36   C47   A    
C15   C23   S    
C9    C13   A    
C11   C15   A    
O22   H2    S    
O5    C1    A    
C11   C20   A    
C17   O22   S    
C29   C38   A    
O8    C4    A    
C31   C40   A    
C32   C39   A    
O9    C5    A    
O11   V3    S    
C29   C42   A    
O14   V2    S    
C36   Cl16  S    
O6    V2    S    
C13   C21   S    
C5    C27   S    
C37   Cl10  S    
C6    C28   S    
O16   V4    S    
C16   C24   S    
C3    O13   A    
C18   O21   S    
C10   C14   A    
O17   V3    S    
O6    C2    A    
C34   C45   A    
C33   C37   A    
C23   C28   T    
C30   C37   A    
O12   V4    S    
C32   C43   A    
C35   C39   A    
C36   C40   A    
O10   C6    A    
O20   V2    S    
C34   Cl14  S    
C47   C48   A    
C42   C46   A    
C21   C26   T    
C12   Cl4   S    
C41   C45   A    
C43   C47   A    
C13   C17   A    
C45   C46   A    
O4    V2    S    
C14   C22   S    
O24   H4    S    
C16   C20   A    
C4    O14   A    
C44   Cl7   S    
C12   C19   A    
C10   Cl2   S    
C40   Cl11  S    
C9    Cl1   S    
C4    C30   S    
