data_mof_unit_52421.cif
_audit_creation_date              2012-12-10T18:43:04-0500
_audit_creation_method            fapswitch 2.2
_symmetry_space_group_name_H-M    P1
_symmetry_Int_Tables_number       1
_space_group_crystal_system       triclinic
_cell_length_a                    8.708671
_cell_length_b                    19.398619
_cell_length_c                    18.162544
_cell_angle_alpha                 89.823301
_cell_angle_beta                  97.915247
_cell_angle_gamma                 89.939232
_cell_volume                      3039.06087729

loop_
_atom_site_label
_atom_site_type_symbol
_atom_type_description
_atom_site_fract_x
_atom_site_fract_y
_atom_site_fract_z
_atom_type_partial_charge
C1    C     C_R   0.500161 0.367893 0.500159 0.793939
C2    C     C_R   0.499364 0.632375 0.499823 0.796834
C3    C     C_R   0.428576 0.963198 0.555615 -0.333488
C4    C     C_R   0.516893 0.037990 0.437081 -0.329937
C5    C     C_R   0.436182 0.035174 0.559974 0.497102
C6    C     C_R   0.525011 0.965944 0.436221 0.502228
C7    C     C_R   0.479922 0.072879 0.499828 -0.088232
C8    C     C_R   0.479166 0.928288 0.495872 -0.084106
C9    C     C_R   0.398159 0.459146 0.714275 0.058434
C10   C     C_R   0.601257 0.541363 0.285986 0.058825
C11   C     C_R   0.395211 0.458568 0.791430 -0.207259
C12   C     C_R   0.604718 0.542218 0.208899 -0.220238
C13   C     C_R   0.497539 0.500593 0.838278 0.165342
C14   C     C_R   0.503765 0.499837 0.161773 0.175901
C15   C     C_R   0.602061 0.541866 0.805158 -0.303235
C16   C     C_R   0.399521 0.458136 0.194597 -0.292238
C17   C     C_R   0.601093 0.540964 0.727734 0.087338
C18   C     C_R   0.399790 0.458855 0.272010 0.083485
C19   C     C_R   0.638903 0.496859 0.969028 -0.359840
C20   C     C_R   0.363465 0.503520 0.030916 -0.354414
C21   C     C_R   0.644539 0.497695 0.047549 0.525327
C22   C     C_R   0.358900 0.505374 0.953053 0.517491
C23   C     C_R   0.203563 0.499947 0.481018 0.884774
C24   C     C_R   0.796437 0.499959 0.518982 0.886127
C25   C     C_R   0.504590 0.500121 0.078943 -0.047601
C26   C     C_R   0.497668 0.500860 0.921127 -0.052518
C27   C     C_2   0.037784 0.499924 0.470478 -0.374046
C28   C     C_2   0.962217 0.499861 0.529524 -0.373234
C29   C     C_R   0.420609 0.743190 0.437594 -0.217992
C30   C     C_R   0.367486 0.258625 0.518719 -0.220901
C31   C     C_R   0.415241 0.814808 0.437440 -0.109783
C32   C     C_R   0.363653 0.187042 0.518616 -0.096990
C33   C     C_R   0.489954 0.852335 0.497918 0.116480
C34   C     C_R   0.491943 0.148798 0.502565 0.108797
C35   C     C_R   0.570326 0.816733 0.560016 0.015513
C36   C     C_R   0.626893 0.183758 0.486424 0.019868
C37   C     C_R   0.569661 0.744510 0.560486 -0.236036
C38   C     C_R   0.626316 0.256010 0.483980 -0.233635
C39   C     C_R   0.496547 0.707744 0.499302 -0.040862
C40   C     C_R   0.497730 0.293050 0.500517 -0.024931
Cu1   Cu    Cu3+1 0.499960 0.500000 0.573360 0.940431
Cu2   Cu    Cu3+1 0.500040 0.500000 0.426640 0.937778
H1    H     H_    0.977736 0.500018 0.413865 0.176043
H2    H     H_    0.022265 0.499756 0.586137 0.175456
H3    H     H_    0.682887 0.575215 0.838828 0.129905
H4    H     H_    0.319487 0.424606 0.160737 0.147938
H5    H     H_    0.681176 0.573321 0.702872 0.117319
H6    H     H_    0.319908 0.426214 0.296649 0.127185
H7    H     H_    0.744854 0.490909 0.944808 0.177680
H8    H     H_    0.255350 0.505907 0.053954 0.163956
H9    H     H_    0.362295 0.715400 0.390158 0.149573
H10   H     H_    0.267616 0.287251 0.531533 0.134034
H11   H     H_    0.351249 0.841084 0.390130 0.159309
H12   H     H_    0.259336 0.161478 0.530397 0.180224
H13   H     H_    0.630713 0.716857 0.607677 0.143849
H14   H     H_    0.727932 0.283592 0.471501 0.134352
H15   H     H_    0.387805 0.934228 0.600155 0.170076
H16   H     H_    0.544082 0.066987 0.389508 0.172506
H17   H     H_    0.319048 0.426539 0.678846 0.123689
H18   H     H_    0.679508 0.574187 0.321589 0.123729
H19   H     H_    0.314942 0.424701 0.814273 0.167898
H20   H     H_    0.684412 0.576559 0.186303 0.148792
N1    N     N_R   0.499980 0.500020 0.683620 -0.171280
N2    N     N_R   0.500020 0.499980 0.316380 -0.173406
O1    O     O_R   0.499930 0.400180 0.561970 -0.580200
O2    O     O_R   0.500070 0.599820 0.438030 -0.588579
O3    O     O_R   0.500010 0.400190 0.438070 -0.583662
O4    O     O_R   0.499990 0.599810 0.561930 -0.588443
O5    O     O_R   0.274810 0.500000 0.547650 -0.582678
O6    O     O_R   0.725190 0.500000 0.452350 -0.581588
O7    O     O_R   0.274880 0.500000 0.423750 -0.594055
O8    O     O_R   0.725120 0.500000 0.576250 -0.591842
O9    O     O_3   0.782981 0.488212 0.094668 -0.567667
C41   C     C_3   0.900362 0.532172 0.075290 -0.371818
H21   H     H_    0.856449 0.584954 0.059701 0.145304
H22   H     H_    0.957126 0.509150 0.030053 0.191323
H23   H     H_    0.990698 0.537500 0.124335 0.190854
O10   O     O_3   0.217279 0.508696 0.908254 -0.583943
C42   C     C_3   0.166067 0.577727 0.904813 -0.356181
H24   H     H_    0.250395 0.612054 0.881839 0.167129
H25   H     H_    0.143778 0.596402 0.960244 0.151508
H26   H     H_    0.054928 0.580677 0.866870 0.188729
C43   C     C_R   0.658391 0.853166 0.624162 0.107828
C44   C     C_R   0.627282 0.839557 0.696712 -0.175855
C45   C     C_R   0.708362 0.874440 0.757180 -0.149104
C46   C     C_R   0.821454 0.922871 0.745811 -0.120750
C47   C     C_R   0.854202 0.936290 0.673989 -0.157735
C48   C     C_R   0.773605 0.901471 0.613352 -0.129096
H27   H     H_    0.538953 0.802610 0.706313 0.127595
H28   H     H_    0.683134 0.864078 0.812858 0.126372
H29   H     H_    0.883815 0.949958 0.792664 0.125215
H30   H     H_    0.942139 0.973673 0.665391 0.128113
H31   H     H_    0.800938 0.912168 0.558130 0.118443
C49   C     C_R   0.770236 0.146655 0.473377 0.104126
C50   C     C_R   0.837909 0.159946 0.408820 -0.172564
C51   C     C_R   0.970495 0.123969 0.395427 -0.148629
C52   C     C_R   0.036912 0.074630 0.446317 -0.139365
C53   C     C_R   0.972157 0.061822 0.511208 -0.145907
C54   C     C_R   0.839722 0.097749 0.524944 -0.129306
H32   H     H_    0.786617 0.197366 0.368326 0.133366
H33   H     H_    0.021316 0.134095 0.345363 0.137487
H34   H     H_    0.139091 0.046618 0.435685 0.139605
H35   H     H_    0.024721 0.023986 0.550780 0.138995
H36   H     H_    0.791227 0.087304 0.575564 0.121305
O11   O     O_3   0.394514 0.069222 0.621155 -0.592046
C55   C     C_3   0.504206 0.054687 0.683962 -0.303746
H37   H     H_    0.624904 0.064839 0.673042 0.156898
H38   H     H_    0.493062 0.000760 0.703370 0.173868
H39   H     H_    0.481314 0.089180 0.729827 0.187628
O12   O     O_3   0.570732 0.931746 0.375990 -0.588519
C56   C     C_3   0.728381 0.945783 0.372104 -0.302957
H40   H     H_    0.802394 0.935959 0.426141 0.153646
H41   H     H_    0.744464 0.999450 0.353071 0.176436
H42   H     H_    0.768762 0.910764 0.330567 0.185134

loop_
_geom_bond_atom_site_label_1
_geom_bond_atom_site_label_2
_ccdc_geom_bond_type
C38   C40   A    
C47   C48   A    
C20   C25   A    
C11   C13   A    
Cu1   Cu2   S    
C23   O5    A    
C46   C47   A    
C50   C51   A    
C52   C53   A    
C24   O6    A    
C5    O11   S    
C45   C46   A    
C41   H22   S    
C35   C37   A    
C2    O4    A    
C46   H29   S    
C55   H37   S    
C53   H35   S    
C21   O9    S    
Cu2   O6    S    
O9    C41   S    
C19   C26   A    
O12   C56   S    
C20   H8    S    
C1    C40   S    
C33   C35   A    
C2    C39   S    
C56   H40   S    
C41   H23   S    
C1    O1    A    
C31   C33   A    
C23   C27   S    
C24   C28   S    
C52   H34   S    
C43   C48   A    
C47   H30   S    
C6    O12   S    
C4    C7    A    
C32   H12   S    
Cu1   O4    S    
C5    C7    A    
C41   H21   S    
C23   O7    A    
C44   C45   A    
C22   O10   S    
C4    C6    A    
C3    C8    A    
C16   H4    S    
C42   H25   S    
C35   C43   S    
C50   H32   S    
Cu1   O1    S    
C3    C5    A    
C28   H2    S    
C9    H17   S    
C32   C34   A    
C10   H18   S    
C36   C49   S    
C12   H20   S    
C19   H7    S    
C43   C44   A    
C51   C52   A    
C29   C39   A    
C30   C40   A    
C56   H41   S    
C31   H11   S    
C9    C11   A    
C10   C12   A    
Cu1   O8    S    
C3    H15   S    
C16   C18   A    
C20   C22   A    
C13   C15   A    
Cu2   O3    S    
C7    C34   S    
C14   C16   A    
C13   C26   S    
C44   H27   S    
C15   H3    S    
Cu2   N2    S    
C24   O8    A    
Cu1   O5    S    
C29   H9    S    
C15   C17   A    
C21   C25   A    
C48   H31   S    
C19   C21   A    
C9    N1    A    
C10   N2    A    
C17   H5    S    
C12   C14   A    
C11   H19   S    
C18   H6    S    
C42   H26   S    
C6    C8    A    
C45   H28   S    
C2    O2    A    
O11   C55   S    
C36   C38   A    
C37   C39   A    
C17   N1    A    
C30   C32   A    
O10   C42   S    
C18   N2    A    
C55   H38   S    
C49   C54   A    
Cu2   O7    S    
C1    O3    A    
C54   H36   S    
C56   H42   S    
C34   C36   A    
C8    C33   S    
C14   C25   S    
C49   C50   A    
C42   H24   S    
C37   H13   S    
C27   H1    S    
C38   H14   S    
C29   C31   A    
C53   C54   A    
C22   C26   A    
C4    H16   S    
C27   C28   D    
Cu2   O2    S    
Cu1   N1    S    
C51   H33   S    
C30   H10   S    
C55   H39   S    
