data_mof_unit_56327.cif
_audit_creation_date              2013-03-05T15:41:49-0500
_audit_creation_method            fapswitch 2.2
_symmetry_space_group_name_H-M    P1
_symmetry_Int_Tables_number       1
_space_group_crystal_system       triclinic
_cell_length_a                    7.783848
_cell_length_b                    8.567402
_cell_length_c                    10.509336
_cell_angle_alpha                 90.983358
_cell_angle_beta                  85.661642
_cell_angle_gamma                 93.750907
_cell_volume                      697.282202287

loop_
_atom_site_label
_atom_site_type_symbol
_atom_site_description
_atom_site_fract_x
_atom_site_fract_y
_atom_site_fract_z
_atom_type_partial_charge
O1    O     O_R   0.389250 0.738570 0.508410 -0.624170
O2    O     O_R   0.610750 0.261430 0.491590 -0.624170
O3    O     O_R   0.678390 0.711620 0.486450 -0.608470
O4    O     O_R   0.321610 0.288380 0.513550 -0.608470
C1    C     C_R   0.545806 0.794693 0.496974 0.993817
C2    C     C_R   0.454194 0.205307 0.503026 0.993818
O5    O     O_R   0.355460 0.513510 0.697030 -0.598567
O6    O     O_R   0.644540 0.486490 0.302970 -0.598566
O7    O     O_R   0.644600 0.486560 0.675070 -0.635499
O8    O     O_R   0.355400 0.513440 0.324930 -0.635499
C3    C     C_R   0.501461 0.498383 0.742179 0.959093
C4    C     C_R   0.498539 0.501617 0.257821 0.959092
Zn1   Zn    Zn3+2 0.306940 0.517990 0.514670 1.001052
Zn2   Zn    Zn3+2 0.693060 0.482010 0.485330 1.001052
N1    N     N_2   0.950320 0.457950 0.465730 -0.163533
N2    N     N_2   0.049680 0.542050 0.534270 -0.163533
C5    C     C_3   0.430400 0.629748 0.960423 -0.255613
C6    C     C_3   0.569600 0.370251 0.039577 -0.255614
C7    C     C_3   0.590657 0.625424 0.036160 0.362700
C8    C     C_3   0.409343 0.374576 0.963839 0.362700
C9    C     C_3   0.496490 0.502766 0.123448 -0.143559
C10   C     C_3   0.503510 0.497235 0.876552 -0.143559
C11   C     C_3   0.333921 0.503972 0.049269 -0.234572
C12   C     C_3   0.666079 0.496028 0.950731 -0.234571
C13   C     C_2   0.569836 0.958293 0.494922 -0.308465
C14   C     C_2   0.430164 0.041707 0.505078 -0.308464
N3    N     N_R   0.690273 0.766072 0.074704 0.214933
O9    O     O_R   0.765026 0.859387 0.988042 -0.356688
O10   O     O_R   0.700699 0.802156 0.194629 -0.397954
N4    N     N_R   0.309727 0.233928 0.925298 0.214931
O11   O     O_R   0.234970 0.140616 0.011957 -0.356689
O12   O     O_R   0.299304 0.197842 0.805370 -0.397952
H1    H     H_    0.376931 0.736479 0.924928 0.208947
H2    H     H_    0.623069 0.263521 0.075072 0.208947
H3    H     H_    0.198928 0.504931 0.091700 0.195149
H4    H     H_    0.801071 0.495069 0.908300 0.195148
H5    H     H_    0.013548 0.382525 0.404004 0.201536
H6    H     H_    0.986452 0.617474 0.595996 0.201536
H7    H     H_    0.701693 0.009521 0.484900 0.189861
H8    H     H_    0.298307 0.990479 0.515100 0.189861

loop_
_geom_bond_atom_site_label_1
_geom_bond_atom_site_label_2
_geom_bond_distance
_ccdc_geom_bond_type
O5    C3    1.279221 A    
O7    Zn2   2.001366 S    
N3    O10   1.299773 A    
C6    C9    1.537518 S    
C7    N3    1.458028 S    
O7    C3    1.281591 A    
C3    C10   1.413686 S    
C11   H3    1.110465 S    
C5    C10   1.537516 S    
C5    C11   1.555485 S    
C8    C11   1.533269 S    
O5    Zn1   1.982661 S    
O6    C4    1.279221 A    
C7    C12   1.533266 S    
C12   H4    1.110465 S    
C13   H7    1.087846 S    
N4    O12   1.299807 A    
C6    H2    1.110627 S    
C14   H8    1.087846 S    
C2    C14   1.402190 S    
O3    Zn2   1.977699 S    
C5    H1    1.110627 S    
C1    C13   1.402190 S    
O8    C4    1.281591 A    
C10   C12   1.536338 S    
C7    C9    1.521071 S    
C8    C10   1.521069 S    
C6    C8    1.532394 S    
C9    C11   1.536339 S    
N4    O11   1.300415 A    
O2    Zn2   1.955919 S    
C6    C12   1.555485 S    
O1    Zn1   1.955919 S    
N1    N2    1.276599 D    
O1    C1    1.278205 A    
O4    C2    1.288397 A    
Zn1   N2    2.021129 S    
N3    O9    1.300437 A    
Zn2   N1    2.021128 S    
N1    H5    1.029326 S    
C8    N4    1.458019 S    
O6    Zn2   1.982660 S    
C5    C7    1.532391 S    
C13   C14   1.336248 D    
C4    C9    1.413683 S    
O2    C2    1.278205 A    
O4    Zn1   1.977699 S    
N2    H6    1.029326 S    
O3    C1    1.288397 A    
O8    Zn1   2.001366 S    
