data_mof_unit_34826.cif
_audit_creation_date              2012-12-10T19:49:45-0500
_audit_creation_method            fapswitch 2.2
_symmetry_space_group_name_H-M    P1
_symmetry_Int_Tables_number       1
_space_group_crystal_system       triclinic
_cell_length_a                    10.848665
_cell_length_b                    16.146043
_cell_length_c                    17.295748
_cell_angle_alpha                 97.436867
_cell_angle_beta                  92.033829
_cell_angle_gamma                 93.074545
_cell_volume                      2997.01100483

loop_
_atom_site_label
_atom_site_type_symbol
_atom_type_description
_atom_site_fract_x
_atom_site_fract_y
_atom_site_fract_z
_atom_type_partial_charge
C1    C     C_R   0.498263 0.489061 0.349799 0.817896
C2    C     C_R   0.501304 0.510942 0.650211 0.830369
C3    C     C_R   0.871143 0.498248 0.496178 -0.082540
C4    C     C_R   0.128840 0.501777 0.503350 -0.107475
C5    C     C_R   0.931775 0.423567 0.474964 0.089646
C6    C     C_R   0.068209 0.576481 0.524401 0.062032
C7    C     C_R   0.498905 0.486273 0.265269 -0.071406
C8    C     C_R   0.498854 0.513786 0.734719 -0.096391
C9    C     C_R   0.449274 0.552383 0.231687 -0.239037
C10   C     C_R   0.546349 0.447296 0.768790 -0.218373
C11   C     C_R   0.465788 0.560917 0.153655 0.415203
C12   C     C_R   0.528152 0.439185 0.846723 0.447042
C13   C     C_R   0.528919 0.499384 0.107650 0.000692
C14   C     C_R   0.465570 0.501416 0.892185 -0.015353
C15   C     C_R   0.576993 0.432677 0.141019 -0.129701
C16   C     C_R   0.419343 0.568369 0.858326 -0.136289
C17   C     C_R   0.562308 0.426192 0.219644 -0.133961
C18   C     C_R   0.435637 0.574470 0.779774 -0.139730
C19   C     C_2   0.545845 0.502132 0.024737 -0.062550
C20   C     C_2   0.448270 0.499343 0.975148 -0.061192
C21   C     C_R   0.454884 0.744914 0.451991 0.016703
C22   C     C_R   0.545173 0.255055 0.547966 0.026784
C23   C     C_R   0.262754 0.500495 0.502032 0.801729
C24   C     C_R   0.737236 0.499501 0.497833 0.822466
C25   C     C_R   0.450145 0.831837 0.453861 -0.188640
C26   C     C_R   0.549914 0.168124 0.546059 -0.190375
C27   C     C_R   0.504199 0.885222 0.517994 0.056519
C28   C     C_R   0.495713 0.114762 0.481962 0.052165
C29   C     C_R   0.565347 0.850720 0.576241 -0.262951
C30   C     C_R   0.434502 0.149289 0.423758 -0.260017
C31   C     C_R   0.575245 0.764579 0.571623 0.593158
C32   C     C_R   0.424702 0.235440 0.428375 0.591556
C33   C     C_2   0.497244 0.977179 0.529361 -0.097480
C34   C     C_2   0.502634 0.022803 0.470580 -0.094473
C35   C     C_R   0.249052 0.742306 0.662586 -0.146422
C36   C     C_R   0.749431 0.258121 0.337196 -0.144605
C37   C     C_R   0.197109 0.665394 0.627496 -0.148148
C38   C     C_R   0.801841 0.334906 0.372245 -0.165693
C39   C     C_R   0.132773 0.658525 0.554923 -0.032896
C40   C     C_R   0.867163 0.341514 0.444474 -0.028068
C41   C     C_R   0.120861 0.730869 0.516744 0.254048
C42   C     C_R   0.879815 0.268959 0.482283 0.316675
C43   C     C_R   0.163977 0.810264 0.556991 0.315152
C44   C     C_R   0.835866 0.189704 0.442073 0.298107
C45   C     C_R   0.231241 0.814220 0.628235 -0.225695
C46   C     C_R   0.767590 0.186060 0.371229 -0.227955
C47   C     C_R   0.940164 0.573297 0.520257 -0.092906
C48   C     C_R   0.059837 0.426779 0.479049 -0.111053
Cu1   Cu    Cu3+1 0.493640 0.415410 0.495980 1.037364
Cu2   Cu    Cu3+1 0.506360 0.584590 0.504020 1.026628
H1    H     H_    0.206211 0.610786 0.657188 0.137824
H2    H     H_    0.792260 0.389640 0.342798 0.145703
H3    H     H_    0.894512 0.630404 0.537384 0.215650
H4    H     H_    0.105508 0.369699 0.461885 0.218710
H5    H     H_    0.401124 0.599272 0.267471 0.160159
H6    H     H_    0.594301 0.399814 0.733556 0.203298
H7    H     H_    0.394973 0.624444 0.753734 0.170898
H8    H     H_    0.604464 0.376497 0.245294 0.168096
N1    N     N_R   0.515930 0.711660 0.510070 -0.238893
N2    N     N_R   0.484070 0.288340 0.489930 -0.244726
O1    O     O_R   0.494030 0.420280 0.382610 -0.519019
O2    O     O_R   0.505970 0.579720 0.617390 -0.517056
O3    O     O_R   0.504770 0.563150 0.389400 -0.603872
O4    O     O_R   0.495230 0.436850 0.610600 -0.602545
O5    O     O_R   0.314270 0.428570 0.496610 -0.518282
O6    O     O_R   0.685730 0.571430 0.503390 -0.521857
O7    O     O_R   0.325020 0.571440 0.503400 -0.610143
O8    O     O_R   0.674980 0.428560 0.496600 -0.591283
H9    H     H_    0.267834 0.873672 0.658730 0.186411
H10   H     H_    0.730408 0.126734 0.340787 0.189907
H11   H     H_    0.626654 0.385871 0.106105 0.203519
H12   H     H_    0.370103 0.615741 0.892818 0.206130
S1    S     S_3+6 0.577209 0.347645 0.882413 0.017364
O9    O     O_2   0.703744 0.365681 0.921093 -0.287672
O10   O     O_2   0.488900 0.319961 0.940353 -0.262130
O11   O     O_3   0.583834 0.270255 0.807794 -0.514331
H13   H     H_    0.616661 0.222880 0.831563 0.399910
S2    S     S_3+6 0.414616 0.652289 0.118538 0.038787
O12   O     O_2   0.502063 0.681125 0.060680 -0.221302
O13   O     O_2   0.288513 0.633650 0.079298 -0.295063
O14   O     O_3   0.407066 0.729879 0.192989 -0.478583
H14   H     H_    0.323242 0.722798 0.213026 0.368125
H15   H     H_    0.407450 0.704065 0.404490 0.151540
H16   H     H_    0.592689 0.295891 0.595445 0.180650
S3    S     S_3+6 0.341891 0.265421 0.346251 0.040167
O15   O     O_2   0.431303 0.271203 0.282583 -0.317659
O16   O     O_2   0.244662 0.197376 0.317608 -0.251086
O17   O     O_3   0.269681 0.354805 0.361333 -0.536743
H17   H     H_    0.237273 0.364243 0.309115 0.368597
S4    S     S_3+6 0.658250 0.734636 0.653686 0.039226
O18   O     O_2   0.755529 0.802691 0.682203 -0.254095
O19   O     O_2   0.569006 0.728909 0.717452 -0.316754
O20   O     O_3   0.730440 0.645244 0.638573 -0.534269
H18   H     H_    0.763095 0.635889 0.690759 0.369776
H19   H     H_    0.505260 0.991369 0.411213 0.152139
H20   H     H_    0.494601 0.008620 0.588725 0.148531
H21   H     H_    0.606078 0.892036 0.626078 0.205737
H22   H     H_    0.393709 0.107984 0.373934 0.208053
H23   H     H_    0.599235 0.143488 0.592679 0.205806
H24   H     H_    0.400946 0.856440 0.407176 0.204078
H25   H     H_    0.299123 0.746951 0.718327 0.188365
H26   H     H_    0.698590 0.253703 0.281739 0.190635
S5    S     S_3+6 0.056513 0.720328 0.419291 0.063113
O21   O     O_2   0.920248 0.732298 0.421833 -0.204836
O22   O     O_2   0.115197 0.784127 0.373957 -0.209691
O23   O     O_3   0.077358 0.624866 0.371534 -0.517235
H27   H     H_    0.168123 0.622064 0.368650 0.328854
S6    S     S_3+6 0.946460 0.278964 0.579129 0.048998
O24   O     O_2   0.886632 0.215928 0.624800 -0.195330
O25   O     O_2   0.082188 0.265309 0.575100 -0.253868
O26   O     O_3   0.927815 0.374844 0.626757 -0.558943
H28   H     H_    0.982135 0.379052 0.674519 0.384212
S7    S     S_3+6 0.124397 0.906556 0.526462 0.128474
O27   O     O_2   0.204473 0.927933 0.461920 -0.265459
O28   O     O_2   0.991579 0.900329 0.497575 -0.104311
O29   O     O_3   0.142908 0.984157 0.601646 -0.450111
H29   H     H_    0.229514 0.006531 0.600159 0.349350
S8    S     S_3+6 0.875160 0.093160 0.472210 0.130075
O30   O     O_2   0.008459 0.098693 0.500007 -0.103404
O31   O     O_2   0.796220 0.072204 0.537426 -0.265168
O32   O     O_3   0.854531 0.015594 0.397110 -0.446923
H30   H     H_    0.767831 0.993675 0.399280 0.350288
H31   H     H_    0.355089 0.499485 0.996070 0.192423
H32   H     H_    0.638957 0.501775 0.003673 0.192508

loop_
_geom_bond_atom_site_label_1
_geom_bond_atom_site_label_2
_ccdc_geom_bond_type
C38   C40   A    
O20   H18   S    
Cu1   O8    S    
C27   C29   A    
S1    O10   D    
S1    O9    D    
C19   C20   D    
C16   H12   S    
O14   H14   S    
C39   C41   A    
S3    O15   D    
C27   C33   S    
C48   H4    S    
Cu1   N2    S    
Cu1   O5    S    
C21   H15   S    
Cu2   N1    S    
C35   C37   A    
C21   N1    A    
C30   H22   S    
C22   N2    A    
C37   H1    S    
S2    O13   D    
C38   H2    S    
O23   H27   S    
C31   N1    A    
O29   H29   S    
C36   H26   S    
C23   O7    A    
S8    O30   D    
C20   H31   S    
C25   H24   S    
O26   H28   S    
C44   C46   A    
C7    C17   A    
C36   C46   A    
C9    H5    S    
S6    O24   D    
C3    C47   A    
C10   H6    S    
Cu2   O7    S    
C24   O6    A    
C17   H8    S    
C47   H3    S    
S7    O29   S    
C40   C42   A    
C28   C34   S    
Cu1   O4    S    
C12   S1    S    
Cu2   O3    S    
C41   C43   A    
C3    C24   S    
C42   C44   A    
C1    O3    A    
C2    O4    A    
S3    O16   D    
C37   C39   A    
C5    C48   A    
C19   H32   S    
Cu1   O1    S    
C6    C47   A    
C13   C19   S    
C45   H9    S    
C14   C20   S    
C34   H19   S    
C4    C6    A    
C4    C23   S    
S2    O12   D    
C3    C5    A    
C8    C18   A    
C41   S5    S    
S8    O32   S    
C22   H16   S    
C11   S2    S    
C43   C45   A    
C18   H7    S    
S4    O19   D    
C44   S8    S    
C31   S4    S    
C33   C34   D    
S5    O22   D    
O11   H13   S    
C9    C11   A    
O32   H30   S    
C10   C12   A    
C8    C10   A    
C12   C14   A    
C13   C15   A    
Cu2   O2    S    
S1    O11   S    
C14   C16   A    
C32   N2    A    
C35   C45   A    
C33   H20   S    
S4    O20   S    
S7    O27   D    
C4    C48   A    
S3    O17   S    
C15   C17   A    
C21   C25   A    
C1    C7    S    
C2    C8    S    
C35   H25   S    
C1    O1    A    
Cu2   O6    S    
C25   C27   A    
C15   H11   S    
C26   H23   S    
C26   C28   A    
S6    O26   S    
C29   H21   S    
C23   O5    A    
C36   C38   A    
C29   C31   A    
C43   S7    S    
C30   C32   A    
C11   C13   A    
S2    O14   S    
S4    O18   D    
C32   S3    S    
C28   C30   A    
S6    O25   D    
S5    O23   S    
S8    O31   D    
C46   H10   S    
C24   O8    A    
C7    C9    A    
O17   H17   S    
C16   C18   A    
Cu1   Cu2   S    
C22   C26   A    
C5    C40   S    
S5    O21   D    
C6    C39   S    
C42   S6    S    
C2    O2    A    
S7    O28   D    
