data_mof_unit_8078.cif
_audit_creation_date              2012-12-10T20:49:10-0500
_audit_creation_method            fapswitch 2.2
_symmetry_space_group_name_H-M    P1
_symmetry_Int_Tables_number       1
_space_group_crystal_system       triclinic
_cell_length_a                    8.921313
_cell_length_b                    8.132279
_cell_length_c                    10.571645
_cell_angle_alpha                 90.119451
_cell_angle_beta                  90.050184
_cell_angle_gamma                 90.013998
_cell_volume                      766.977270751

loop_
_atom_site_label
_atom_site_type_symbol
_atom_type_description
_atom_site_fract_x
_atom_site_fract_y
_atom_site_fract_z
_atom_type_partial_charge
C1    C     C_R   0.218120 0.499988 0.500074 0.920701
C2    C     C_R   0.781880 0.500012 0.499926 0.920688
C3    C     C_R   0.496477 0.499600 0.257199 0.981824
C4    C     C_R   0.503523 0.500400 0.742801 0.981844
C5    C     C_3   0.393101 0.605285 0.039960 0.312660
C6    C     C_3   0.606900 0.394715 0.960040 0.312660
C7    C     C_3   0.531656 0.653713 0.960917 0.410832
C8    C     C_3   0.468345 0.346287 0.039083 0.410823
C9    C     C_3   0.368339 0.454096 0.955442 -0.117027
C10   C     C_3   0.631661 0.545904 0.044557 -0.117017
C11   C     C_3   0.505019 0.501694 0.876683 -0.319162
C12   C     C_3   0.494981 0.498306 0.123317 -0.319169
C13   C     C_1   0.065241 0.499983 0.500028 -0.128146
C14   C     C_1   0.934759 0.500017 0.499972 -0.128149
N1    N     N_1   0.500000 0.073640 0.500000 0.021855
N2    N     N_1   0.500000 0.926360 0.500000 0.021855
O1    O     O_R   0.285350 0.636850 0.500000 -0.610019
O2    O     O_R   0.714650 0.363150 0.500000 -0.610020
O3    O     O_R   0.714650 0.636850 0.500000 -0.613829
O4    O     O_R   0.285350 0.363150 0.500000 -0.613827
O5    O     O_R   0.499970 0.636850 0.313950 -0.576124
O6    O     O_R   0.500030 0.363150 0.686050 -0.576123
O7    O     O_R   0.500030 0.636850 0.686050 -0.601242
O8    O     O_R   0.499970 0.363150 0.313950 -0.601240
Zn1   Zn    Zn3+2 0.500000 0.682780 0.500000 1.092444
Zn2   Zn    Zn3+2 0.500000 0.317220 0.500000 1.092445
N3    N     N_3   0.225039 0.402929 0.902066 -0.351969
H1    H     H_    0.151503 0.383971 0.977532 0.252132
H2    H     H_    0.182754 0.501904 0.850212 0.205810
N4    N     N_3   0.774960 0.597075 0.097932 -0.351941
H3    H     H_    0.848516 0.615968 0.022467 0.252123
H4    H     H_    0.817215 0.498131 0.149840 0.205788
Cl1   Cl    Cl    0.248536 0.738662 0.094854 -0.486498
Cl2   Cl    Cl    0.751466 0.261338 0.905147 -0.486498
Cl3   Cl    Cl    0.581602 0.854286 0.908246 -0.394235
Cl4   Cl    Cl    0.418399 0.145713 0.091754 -0.394246

loop_
_geom_bond_atom_site_label_1
_geom_bond_atom_site_label_2
_ccdc_geom_bond_type
C6    C10   S    
C7    C10   S    
C7    C11   S    
C5    C9    S    
N3    H2    S    
C4    O6    A    
C10   N4    S    
C1    O1    A    
O2    Zn2   S    
C8    C12   S    
O1    Zn1   S    
O4    Zn2   S    
C13   C14   T    
C4    C11   S    
N4    H4    S    
C9    C11   S    
C6    C11   S    
C3    O8    A    
C10   C12   S    
O3    Zn1   S    
C2    O2    A    
O8    Zn2   S    
O7    Zn1   S    
C8    Cl4   S    
N4    H3    S    
C2    C14   S    
C3    O5    A    
C1    C13   S    
N1    N2    T    
N2    Zn1   S    
C9    N3    S    
C5    C12   S    
O6    Zn2   S    
N3    H1    S    
C5    C7    S    
C4    O7    A    
O5    Zn1   S    
N1    Zn2   S    
C6    C8    S    
C3    C12   S    
C2    O3    A    
C7    Cl3   S    
C6    Cl2   S    
C8    C9    S    
C1    O4    A    
C5    Cl1   S    
