data_mof_unit_23788.cif
_audit_creation_date              2012-12-10T17:26:18-0500
_audit_creation_method            fapswitch 2.2
_symmetry_space_group_name_H-M    P1
_symmetry_Int_Tables_number       1
_space_group_crystal_system       triclinic
_cell_length_a                    26.491041
_cell_length_b                    26.329185
_cell_length_c                    22.171166
_cell_angle_alpha                 90.028316
_cell_angle_beta                  126.527681
_cell_angle_gamma                 90.10986
_cell_volume                      12426.4381753

loop_
_atom_site_label
_atom_site_type_symbol
_atom_type_description
_atom_site_fract_x
_atom_site_fract_y
_atom_site_fract_z
_atom_type_partial_charge
C1    C     C_R   0.900570 0.749997 0.301006 0.795196
C2    C     C_3   0.808038 0.264174 0.024164 -0.171460
C3    C     C_R   0.762737 0.290960 0.471883 0.021496
C4    C     C_R   0.258815 0.207280 0.464105 0.036714
C5    C     C_R   0.739266 0.794192 0.533882 0.035809
C6    C     C_R   0.735213 0.205562 0.525856 0.023659
C7    C     C_R   0.259190 0.788275 0.464903 0.022680
C8    C     C_R   0.692833 0.753352 0.492638 -0.110437
C9    C     C_R   0.307192 0.246069 0.508163 -0.108576
C10   C     C_R   0.306556 0.749407 0.506716 -0.110660
C11   C     C_R   0.691048 0.246269 0.488927 -0.100219
C12   C     C_R   0.191812 0.252491 0.490477 -0.105202
C13   C     C_3   0.808329 0.737041 0.024151 -0.170536
C14   C     C_R   0.801052 0.758751 0.494814 -0.107004
C15   C     C_R   0.807138 0.249923 0.507975 -0.107631
C16   C     C_R   0.191397 0.745130 0.489757 -0.106465
C17   C     C_R   0.979335 0.948609 0.369855 0.469564
C18   C     C_R   0.987172 0.051299 0.602286 0.511523
C19   C     C_R   0.006181 0.950752 0.618367 0.468797
C20   C     C_R   0.982044 0.051039 0.371634 0.475015
C21   C     C_R   0.480107 0.448611 0.372031 0.470306
C22   C     C_R   0.510281 0.550802 0.620836 0.477788
C23   C     C_R   0.508630 0.448859 0.619941 0.483710
C24   C     C_3   0.191501 0.262416 0.975850 -0.171511
C25   C     C_R   0.478724 0.550762 0.371540 0.458126
C26   C     C_R   0.950328 0.974196 0.302157 0.428681
C27   C     C_R   0.014436 0.030480 0.672802 0.441579
C28   C     C_R   0.027074 0.979334 0.681975 0.420501
C29   C     C_R   0.952209 0.026328 0.303180 0.427310
C30   C     C_R   0.448824 0.473449 0.303528 0.431380
C31   C     C_R   0.539125 0.525814 0.688946 0.422431
C32   C     C_R   0.538031 0.473613 0.688420 0.429316
C33   C     C_R   0.447907 0.525567 0.303261 0.425143
C34   C     C_R   0.988527 0.026714 0.434022 -0.201879
C35   C     C_3   0.691990 0.235775 0.975839 -0.170977
C36   C     C_R   0.998887 0.973550 0.554351 -0.200467
C37   C     C_R   0.993324 0.026814 0.549538 -0.228455
C38   C     C_R   0.988225 0.972819 0.434050 -0.202502
C39   C     C_R   0.488595 0.526595 0.435851 -0.186856
C40   C     C_R   0.503068 0.472998 0.558029 -0.207798
C41   C     C_R   0.503649 0.526633 0.558363 -0.203269
C42   C     C_R   0.489061 0.472898 0.436004 -0.198364
C43   C     C_R   0.993031 0.053774 0.493352 0.007184
C44   C     C_R   0.996039 0.946090 0.496167 0.012295
C45   C     C_R   0.497326 0.553681 0.497839 0.005245
C46   C     C_3   0.308622 0.762044 0.024150 -0.170344
C47   C     C_R   0.497207 0.446024 0.497752 0.006576
C48   C     C_R   0.999214 0.890127 0.499211 0.801452
C49   C     C_R   0.997750 0.109894 0.497834 0.807175
C50   C     C_R   0.499225 0.390038 0.499328 0.798632
C51   C     C_R   0.499282 0.609860 0.499374 0.811695
C52   C     C_R   0.000527 0.609656 0.497509 0.811062
C53   C     C_R   0.999215 0.390049 0.503982 0.805177
C54   C     C_R   0.500402 0.109606 0.497537 0.808273
C55   C     C_R   0.498901 0.889968 0.504440 0.806144
C56   C     C_R   0.885836 0.549148 0.388772 -0.114051
C57   C     C_3   0.308467 0.237737 0.024153 -0.168279
C58   C     C_R   0.110753 0.449397 0.620500 -0.119609
C59   C     C_R   0.120282 0.548558 0.588958 -0.121950
C60   C     C_R   0.879258 0.450049 0.423074 -0.119404
C61   C     C_R   0.385446 0.049216 0.387675 -0.127346
C62   C     C_R   0.606055 0.949765 0.627133 -0.115862
C63   C     C_R   0.619160 0.046875 0.591503 -0.125518
C64   C     C_R   0.377918 0.949898 0.420591 -0.117152
C65   C     C_R   0.827870 0.525339 0.352830 -0.155716
C66   C     C_R   0.169186 0.472568 0.659145 -0.163943
C67   C     C_R   0.173966 0.522084 0.643341 -0.171451
C68   C     C_3   0.691720 0.763021 0.975864 -0.172981
C69   C     C_R   0.824512 0.475850 0.370030 -0.167941
C70   C     C_R   0.327284 0.025546 0.350801 -0.173636
C71   C     C_R   0.665063 0.972070 0.666928 -0.157428
C72   C     C_R   0.671720 0.020019 0.648139 -0.170060
C73   C     C_R   0.323533 0.975960 0.367097 -0.162003
C74   C     C_R   0.940219 0.473362 0.461199 0.080956
C75   C     C_R   0.058615 0.525842 0.547394 0.082064
C76   C     C_R   0.055349 0.473367 0.559024 0.071252
C77   C     C_R   0.942816 0.525827 0.448934 0.069330
C78   C     C_R   0.438934 0.973232 0.460474 0.083502
C79   C     C_1   0.138811 0.750114 0.778449 -0.138010
C80   C     C_R   0.557160 0.025077 0.549665 0.080963
C81   C     C_R   0.552823 0.973386 0.562596 0.071046
C82   C     C_R   0.442001 0.025784 0.448460 0.074121
C83   C     C_R   0.997701 0.446233 0.510410 -0.212150
C84   C     C_R   0.001214 0.553035 0.495506 -0.210258
C85   C     C_R   0.496043 0.945954 0.511539 -0.216046
C86   C     C_R   0.500594 0.052817 0.495935 -0.210223
C87   C     C_3   0.751853 0.202946 0.024779 -0.148354
C88   C     C_3   0.250276 0.796448 0.975184 -0.154019
C89   C     C_3   0.249715 0.203525 0.974918 -0.154294
C90   C     C_1   0.861207 0.249869 0.221553 -0.128522
C91   C     C_3   0.750943 0.796752 0.025092 -0.148422
C92   C     C_3   0.249759 0.703471 0.024828 -0.148452
C93   C     C_3   0.748175 0.297003 0.975224 -0.150788
C94   C     C_3   0.749106 0.703310 0.974923 -0.149483
C95   C     C_3   0.250255 0.296628 0.025088 -0.148284
C96   C     C_3   0.871354 0.934937 0.715270 -0.270641
C97   C     C_3   0.121224 0.062974 0.291685 -0.279717
C98   C     C_3   0.124235 0.927771 0.284747 -0.303054
C99   C     C_3   0.858052 0.067280 0.705681 -0.295811
C100  C     C_3   0.371289 0.435475 0.704111 -0.281784
C101  C     C_1   0.861054 0.750033 0.221535 -0.131729
C102  C     C_3   0.642618 0.572670 0.276117 -0.291920
C103  C     C_3   0.636225 0.438316 0.307804 -0.302576
C104  C     C_3   0.368213 0.568028 0.716188 -0.312750
C105  C     C_3   0.547468 0.672062 0.310735 0.054516
C106  C     C_3   0.450557 0.324422 0.719450 -0.129199
C107  C     C_3   0.449393 0.671065 0.698035 -0.049489
C108  C     C_3   0.555056 0.330803 0.285071 -0.103103
C109  C     C_3   0.047118 0.181666 0.276989 -0.143900
C110  C     C_3   0.950065 0.829707 0.696700 -0.038896
C111  C     C_3   0.942958 0.169546 0.693584 -0.091652
C112  C     C_R   0.099427 0.250010 0.698995 0.799244
C113  C     C_1   0.138943 0.249999 0.778470 -0.139353
C114  C     C_3   0.049723 0.813850 0.277054 -0.146777
C115  C     C_1   0.638801 0.250116 0.778449 -0.129903
C116  C     C_1   0.361192 0.749858 0.221557 -0.135248
C117  C     C_1   0.361029 0.250057 0.221530 -0.127503
C118  C     C_1   0.638952 0.749985 0.778471 -0.138174
C119  C     C_3   0.270482 0.715722 0.974206 -0.153336
C120  C     C_3   0.728041 0.282634 0.025823 -0.156625
C121  C     C_3   0.728632 0.716447 0.025532 -0.158791
C122  C     C_3   0.270913 0.284136 0.974484 -0.155294
C123  C     C_3   0.771986 0.217316 0.974179 -0.156132
C124  C     C_R   0.099367 0.750035 0.698958 0.804752
C125  C     C_3   0.229551 0.784197 0.025803 -0.157223
C126  C     C_3   0.229054 0.216018 0.025518 -0.159432
C127  C     C_3   0.771415 0.783615 0.974480 -0.156238
C128  C     C_3   0.212887 0.750110 0.926693 0.196009
C129  C     C_3   0.787149 0.249824 0.073313 0.195261
C130  C     C_3   0.787087 0.750155 0.073316 0.196409
C131  C     C_3   0.212927 0.249945 0.926692 0.197215
C132  C     C_3   0.712879 0.250126 0.926690 0.195300
C133  C     C_3   0.287146 0.749810 0.073317 0.196089
C134  C     C_3   0.287040 0.250206 0.073311 0.196259
C135  C     C_R   0.900641 0.249967 0.301042 0.804656
C136  C     C_3   0.712959 0.749906 0.926696 0.196765
C137  C     C_1   0.172146 0.750161 0.845498 -0.081367
C138  C     C_1   0.827884 0.249795 0.154505 -0.078946
C139  C     C_1   0.827750 0.750128 0.154492 -0.082567
C140  C     C_1   0.172258 0.249939 0.845515 -0.084785
C141  C     C_1   0.672134 0.250172 0.845497 -0.080362
C142  C     C_1   0.327871 0.749782 0.154510 -0.078728
C143  C     C_1   0.327709 0.250169 0.154487 -0.080266
C144  C     C_1   0.672277 0.749912 0.845517 -0.082453
C145  C     C_R   0.743355 0.706353 0.378677 -0.205249
C146  C     C_R   0.400567 0.250000 0.301005 0.802688
C147  C     C_R   0.227503 0.335865 0.557726 -0.222591
C148  C     C_R   0.226723 0.663807 0.562114 -0.228048
C149  C     C_R   0.779001 0.338146 0.455923 -0.232823
C150  C     C_R   0.267717 0.162050 0.433009 -0.207394
C151  C     C_R   0.728317 0.836812 0.565797 -0.227695
C152  C     C_R   0.717624 0.160255 0.543855 -0.225543
C153  C     C_R   0.271580 0.833897 0.441160 -0.221379
C154  C     C_R   0.714336 0.660343 0.348589 -0.361602
C155  C     C_R   0.270649 0.373787 0.596885 -0.369217
C156  C     C_R   0.268599 0.626451 0.603851 -0.388489
C157  C     C_R   0.599428 0.750008 0.698995 0.798075
C158  C     C_R   0.737642 0.377784 0.420849 -0.357194
C159  C     C_R   0.223402 0.124134 0.396654 -0.387916
C160  C     C_R   0.770164 0.874842 0.605274 -0.388414
C161  C     C_R   0.757634 0.121148 0.583457 -0.369209
C162  C     C_R   0.227496 0.870041 0.397790 -0.372732
C163  C     C_R   0.670286 0.643055 0.358382 0.513318
C164  C     C_R   0.330996 0.368234 0.619582 0.501987
C165  C     C_R   0.327042 0.627899 0.621072 0.537189
C166  C     C_R   0.675604 0.371849 0.392732 0.496528
C167  C     C_R   0.163187 0.131128 0.376095 0.508331
C168  C     C_R   0.599361 0.250031 0.698959 0.804168
C169  C     C_R   0.828170 0.873847 0.621318 0.523364
C170  C     C_R   0.818857 0.124108 0.608647 0.531489
C171  C     C_R   0.166624 0.863864 0.374161 0.511018
C172  C     C_R   0.655676 0.675013 0.397182 0.423978
C173  C     C_R   0.348417 0.321818 0.603547 0.483656
C174  C     C_R   0.344168 0.669035 0.595854 0.445168
C175  C     C_R   0.655372 0.324440 0.402055 0.478462
C176  C     C_R   0.148179 0.177975 0.394062 0.479693
C177  C     C_R   0.844377 0.832664 0.595296 0.442831
C178  C     C_R   0.839270 0.166476 0.589355 0.456455
C179  C     C_R   0.400631 0.749958 0.301044 0.804343
C180  C     C_R   0.150132 0.818423 0.392317 0.476510
C181  C     C_R   0.697829 0.718060 0.445058 -0.122723
C182  C     C_R   0.299714 0.285600 0.548745 -0.113107
C183  C     C_R   0.298147 0.708690 0.545385 -0.120428
C184  C     C_R   0.701904 0.286885 0.453733 -0.104527
C185  C     C_R   0.198794 0.212815 0.449848 -0.123736
C186  C     C_R   0.796762 0.794239 0.542667 -0.118545
C187  C     C_R   0.795609 0.207644 0.541441 -0.121519
C188  C     C_R   0.198801 0.783214 0.448171 -0.115668
C189  C     C_R   0.138464 0.748311 0.496599 0.814309
C190  C     C_3   0.191412 0.737875 0.975862 -0.171761
C191  C     C_R   0.860823 0.250343 0.502396 0.810970
C192  C     C_R   0.859318 0.752177 0.498544 0.817650
C193  C     C_R   0.138693 0.251233 0.496704 0.816335
C194  C     C_R   0.638564 0.248779 0.496684 0.808234
C195  C     C_R   0.360826 0.750269 0.502226 0.807719
C196  C     C_R   0.361307 0.248238 0.503176 0.826414
C197  C     C_R   0.639353 0.750419 0.498592 0.821532
C198  C     C_R   0.748013 0.727846 0.440229 0.020582
C199  C     C_R   0.239774 0.290510 0.532698 0.019548
C200  C     C_R   0.238861 0.706751 0.532996 0.034838
F1    F     F_    0.040222 0.956125 0.744494 -0.607930
F2    F     F_    0.940000 0.084712 0.578761 -0.544682
F3    F     F_    0.969862 0.911710 0.611269 -0.547348
F4    F     F_    0.021763 0.087923 0.380533 -0.545673
F5    F     F_    0.519478 0.412306 0.378922 -0.557239
F6    F     F_    0.468886 0.586370 0.610354 -0.547441
F7    F     F_    0.467115 0.412950 0.609171 -0.549486
F8    F     F_    0.518147 0.586928 0.378563 -0.565850
F9    F     F_    0.940740 0.051526 0.242778 -0.597577
F10   F     F_    0.936801 0.949186 0.240548 -0.592216
F11   F     F_    0.015735 0.056737 0.726302 -0.614287
F12   F     F_    0.548989 0.448485 0.748583 -0.605221
F13   F     F_    0.433873 0.550710 0.241549 -0.601439
F14   F     F_    0.435493 0.448345 0.242077 -0.600298
F15   F     F_    0.550957 0.551012 0.749556 -0.607533
F16   F     F_    0.016144 0.910431 0.375509 -0.543696
H1    H     H_    0.219595 0.540380 0.674789 0.121706
H2    H     H_    0.110779 0.413397 0.643181 0.170646
H3    H     H_    0.925929 0.195751 0.716977 0.046916
H4    H     H_    0.987175 0.185231 0.706405 0.194570
H5    H     H_    0.074464 0.801125 0.253248 0.081139
H6    H     H_    0.030735 0.853138 0.258639 0.246760
H7    H     H_    0.008442 0.788900 0.254560 0.168871
H8    H     H_    0.131340 0.585772 0.580673 0.169630
H9    H     H_    0.870436 0.412666 0.433962 0.166764
H10   H     H_    0.383435 0.084892 0.363101 0.175198
H11   H     H_    0.603086 0.914171 0.649343 0.157896
H12   H     H_    0.630820 0.083400 0.581215 0.170170
H13   H     H_    0.368779 0.912300 0.430610 0.164931
H14   H     H_    0.142700 0.728006 0.954641 0.134921
H15   H     H_    0.856278 0.275770 0.045413 0.134443
H16   H     H_    0.856788 0.726428 0.045395 0.133585
H17   H     H_    0.779222 0.457103 0.340709 0.123382
H18   H     H_    0.142899 0.272501 0.954607 0.134435
H19   H     H_    0.643751 0.224179 0.954593 0.135468
H20   H     H_    0.357335 0.771913 0.045373 0.134442
H21   H     H_    0.357070 0.227655 0.045398 0.134775
H22   H     H_    0.643264 0.773639 0.954630 0.133962
H23   H     H_    0.754276 0.164472 0.046722 0.149251
H24   H     H_    0.249563 0.834483 0.953198 0.143978
H25   H     H_    0.248589 0.165430 0.952736 0.142327
H26   H     H_    0.752604 0.834985 0.047279 0.148708
H27   H     H_    0.250478 0.665436 0.046821 0.149218
H28   H     H_    0.785455 0.545256 0.310547 0.123106
H29   H     H_    0.745754 0.335478 0.953283 0.147045
H30   H     H_    0.747447 0.665077 0.952738 0.146499
H31   H     H_    0.251383 0.334723 0.047275 0.149138
H32   H     H_    0.711100 0.309347 0.048853 0.140142
H33   H     H_    0.286195 0.687718 0.951204 0.141140
H34   H     H_    0.286970 0.311988 0.951644 0.139271
H35   H     H_    0.712195 0.688984 0.048378 0.137455
H36   H     H_    0.213840 0.812201 0.048806 0.139324
H37   H     H_    0.788926 0.190602 0.951147 0.139981
H38   H     H_    0.787851 0.811079 0.951635 0.138595
H39   H     H_    0.210829 0.452163 0.702161 0.133482
H40   H     H_    0.212995 0.188166 0.048355 0.137518
H41   H     H_    0.762880 0.724557 0.352770 0.192045
H42   H     H_    0.182716 0.347500 0.542155 0.216354
H43   H     H_    0.183244 0.652581 0.550148 0.211090
H44   H     H_    0.825552 0.348089 0.475213 0.192428
H45   H     H_    0.306225 0.150048 0.428679 0.213726
H46   H     H_    0.686442 0.847007 0.557896 0.229809
H47   H     H_    0.670853 0.150998 0.524028 0.198187
H48   H     H_    0.317208 0.846654 0.460381 0.198049
H49   H     H_    0.724232 0.640580 0.313345 0.162736
H50   H     H_    0.718113 0.037470 0.678748 0.122228
H51   H     H_    0.255263 0.408179 0.608416 0.173704
H52   H     H_    0.253270 0.594924 0.620485 0.161963
H53   H     H_    0.754533 0.413673 0.415334 0.170365
H54   H     H_    0.236486 0.090628 0.379615 0.165102
H55   H     H_    0.755576 0.907098 0.622366 0.172952
H56   H     H_    0.739655 0.087619 0.592874 0.168383
H57   H     H_    0.241804 0.904104 0.384767 0.162993
H58   H     H_    0.870246 0.904950 0.750025 0.123040
H59   H     H_    0.830959 0.960962 0.692624 0.150144
H60   H     H_    0.915087 0.957152 0.752313 0.219866
H61   H     H_    0.278126 0.957399 0.336528 0.120486
H62   H     H_    0.160860 0.035544 0.324096 0.159106
H63   H     H_    0.126277 0.086909 0.253617 0.122722
H64   H     H_    0.077306 0.040367 0.255909 0.220607
H65   H     H_    0.126609 0.900310 0.248272 0.131904
H66   H     H_    0.164333 0.954607 0.310322 0.143170
H67   H     H_    0.080373 0.950006 0.248478 0.213579
H68   H     H_    0.816865 0.042391 0.684277 0.144189
H69   H     H_    0.856871 0.099653 0.737090 0.125554
H70   H     H_    0.901210 0.045311 0.745761 0.214102
H71   H     H_    0.367456 0.409846 0.741240 0.120788
H72   H     H_    0.284992 0.045650 0.308312 0.129005
H73   H     H_    0.331380 0.462312 0.674774 0.164981
H74   H     H_    0.415183 0.457825 0.740229 0.222824
H75   H     H_    0.690216 0.554850 0.309651 0.149100
H76   H     H_    0.634471 0.596905 0.230031 0.144421
H77   H     H_    0.607188 0.541679 0.247653 0.195548
H78   H     H_    0.644560 0.412288 0.274888 0.120150
H79   H     H_    0.672525 0.468560 0.334588 0.176816
H80   H     H_    0.589907 0.456373 0.267224 0.218051
H81   H     H_    0.327638 0.542219 0.693498 0.144092
H82   H     H_    0.366634 0.598642 0.749572 0.138871
H83   H     H_    0.705650 0.951696 0.712174 0.132624
H84   H     H_    0.411773 0.546043 0.754442 0.210444
H85   H     H_    0.514630 0.639313 0.285671 0.246734
H86   H     H_    0.558460 0.682527 0.271165 0.034305
H87   H     H_    0.521654 0.704665 0.311446 0.143985
H88   H     H_    0.427473 0.316259 0.747363 0.083594
H89   H     H_    0.467876 0.364825 0.728275 0.268567
H90   H     H_    0.492922 0.300059 0.745299 0.168954
H91   H     H_    0.471490 0.633610 0.722183 0.256025
H92   H     H_    0.430065 0.686495 0.727016 0.040469
H93   H     H_    0.486923 0.696978 0.709135 0.167894
H94   H     H_    0.883406 0.584730 0.363892 0.173450
H95   H     H_    0.579302 0.326459 0.258504 0.082192
H96   H     H_    0.537961 0.370085 0.280207 0.265210
H97   H     H_    0.512091 0.307080 0.253563 0.162809
H98   H     H_    0.027211 0.142105 0.262822 0.261095
H99   H     H_    0.072260 0.190347 0.251792 0.083421
H100  H     H_    0.006591 0.208151 0.252760 0.166387
H101  H     H_    0.931276 0.811556 0.725231 0.034121
H102  H     H_    0.971399 0.867170 0.722962 0.248210
H103  H     H_    0.988398 0.805503 0.706958 0.174484
H104  H     H_    0.955092 0.132183 0.721747 0.245394
O1    O     O_3   0.000000 0.750000 0.500000 -0.511210
O2    O     O_R   0.612550 0.780360 0.664400 -0.646256
O3    O     O_R   0.612550 0.219640 0.664400 -0.638594
O4    O     O_R   0.387450 0.780360 0.335600 -0.631306
O5    O     O_R   0.094250 0.780350 0.456890 -0.549199
O6    O     O_R   0.905750 0.219650 0.543110 -0.559461
O7    O     O_R   0.905750 0.780350 0.543110 -0.567892
O8    O     O_R   0.094250 0.219650 0.456890 -0.549904
O9    O     O_R   0.594250 0.280350 0.456890 -0.552741
O10   O     O_R   0.405750 0.719650 0.543110 -0.562473
O11   O     O_R   0.405750 0.280350 0.543110 -0.546556
O12   O     O_3   0.000000 0.250000 0.500000 -0.510015
O13   O     O_R   0.594250 0.719650 0.456890 -0.580632
O14   O     O_R   0.008810 0.865800 0.456890 -0.562552
O15   O     O_R   0.991190 0.134200 0.543110 -0.578670
O16   O     O_R   0.991190 0.865800 0.543110 -0.560058
O17   O     O_R   0.008810 0.134200 0.456890 -0.562648
O18   O     O_R   0.508810 0.365800 0.456890 -0.563842
O19   O     O_R   0.491190 0.634200 0.543110 -0.562427
O20   O     O_R   0.491190 0.365800 0.543110 -0.571084
O21   O     O_R   0.508810 0.634200 0.456890 -0.556838
O22   O     O_R   0.948090 0.634190 0.456900 -0.652673
O23   O     O_3   0.500000 0.250000 0.500000 -0.513235
O24   O     O_R   0.051910 0.365810 0.543100 -0.660719
O25   O     O_R   0.051910 0.634190 0.543100 -0.664342
O26   O     O_R   0.948090 0.365810 0.456900 -0.659468
O27   O     O_R   0.448090 0.134190 0.456900 -0.663841
O28   O     O_R   0.551910 0.865810 0.543100 -0.655415
O29   O     O_R   0.551910 0.134190 0.543100 -0.660547
O30   O     O_R   0.448090 0.865810 0.456900 -0.660716
O31   O     O_R   0.137350 0.719630 0.543100 -0.678597
O32   O     O_R   0.862650 0.280370 0.456900 -0.666925
O33   O     O_R   0.862650 0.719630 0.456900 -0.654024
O34   O     O_3   0.500000 0.750000 0.500000 -0.505448
O35   O     O_R   0.137350 0.280370 0.543100 -0.668207
O36   O     O_R   0.637350 0.219630 0.543100 -0.670470
O37   O     O_R   0.362650 0.780370 0.456900 -0.669550
O38   O     O_R   0.362650 0.219630 0.456900 -0.674852
O39   O     O_R   0.637350 0.780370 0.543100 -0.671329
O40   O     O_R   0.948170 0.780360 0.335600 -0.597588
O41   O     O_R   0.051830 0.219640 0.664400 -0.646622
O42   O     O_R   0.051830 0.780360 0.664400 -0.640495
O43   O     O_R   0.948170 0.219640 0.335600 -0.603752
O44   O     O_R   0.448170 0.280360 0.335600 -0.603490
O45   O     O_R   0.887450 0.719640 0.335600 -0.661027
O46   O     O_R   0.551830 0.719640 0.664400 -0.636235
O47   O     O_R   0.551830 0.280360 0.664400 -0.610354
O48   O     O_R   0.448170 0.719640 0.335600 -0.654200
O49   O     O_3   0.870450 0.914417 0.655951 -0.529793
O50   O     O_3   0.117327 0.092971 0.342233 -0.533152
O51   O     O_3   0.123436 0.903470 0.340803 -0.536690
O52   O     O_3   0.859349 0.083406 0.645927 -0.519960
O53   O     O_3   0.373777 0.408384 0.650810 -0.536739
O54   O     O_3   0.632758 0.599494 0.323540 -0.548448
O55   O     O_3   0.634544 0.412816 0.362710 -0.546395
O56   O     O_R   0.112550 0.280360 0.664400 -0.644902
O57   O     O_3   0.368723 0.587491 0.657192 -0.534682
O58   O     O_3   0.600286 0.661354 0.385891 -0.513436
O59   O     O_3   0.412399 0.311751 0.641840 -0.553179
O60   O     O_3   0.405101 0.665709 0.619537 -0.510417
O61   O     O_3   0.591627 0.313782 0.360001 -0.566033
O62   O     O_3   0.084468 0.189278 0.356174 -0.544026
O63   O     O_3   0.905534 0.835816 0.618173 -0.502577
O64   O     O_3   0.900775 0.163287 0.615126 -0.497561
O65   O     O_3   0.086753 0.809363 0.355945 -0.545941
O66   O     O_R   0.112550 0.719640 0.664400 -0.634015
O67   O     O_R   0.887450 0.280360 0.335600 -0.637696
O68   O     O_R   0.387450 0.219640 0.335600 -0.653332
Zn1   Zn    Zn3+2 0.074160 0.706620 0.561580 0.942854
Zn2   Zn    Zn3+2 0.987410 0.206630 0.561590 1.035208
Zn3   Zn    Zn3+2 0.987410 0.793370 0.561590 1.044001
Zn4   Zn    Zn3+2 0.012590 0.206630 0.438410 1.076298
Zn5   Zn    Zn3+2 0.512590 0.293370 0.438410 1.064901
Zn6   Zn    Zn3+2 0.487410 0.706630 0.561590 1.045076
Zn7   Zn    Zn3+2 0.487410 0.293370 0.561590 1.067833
Zn8   Zn    Zn3+2 0.512590 0.706630 0.438410 1.034553
Zn9   Zn    Zn3+2 0.925840 0.293380 0.438420 0.947034
Zn10  Zn    Zn3+2 0.925840 0.706620 0.438420 0.942475
Zn11  Zn    Zn3+2 0.074160 0.293380 0.561580 0.939772
Zn12  Zn    Zn3+2 0.574160 0.206620 0.561580 0.944447
Zn13  Zn    Zn3+2 0.425840 0.793380 0.438420 0.943470
Zn14  Zn    Zn3+2 0.425840 0.206620 0.438420 0.935944
Zn15  Zn    Zn3+2 0.574160 0.793380 0.561580 0.938380
Zn16  Zn    Zn3+2 0.012590 0.793370 0.438410 1.071496

loop_
_geom_bond_atom_site_label_1
_geom_bond_atom_site_label_2
_ccdc_geom_bond_type
C115  C141  T    
C127  H38   S    
C92   C133  S    
C74   C83   A    
C103  H80   S    
C2    C123  S    
C100  H71   S    
C193  O35   A    
C91   C127  S    
C170  C178  A    
C97   H64   S    
O18   Zn5   S    
C61   C82   A    
O7    Zn3   S    
C64   H13   S    
C162  H57   S    
C121  H35   S    
C62   H11   S    
C108  H97   S    
C50   O18   A    
C52   C84   S    
C153  H48   S    
O48   Zn8   S    
C100  H74   S    
C131  C140  S    
C134  C143  S    
C162  C171  A    
O20   Zn7   S    
C13   C130  S    
C93   C120  S    
C114  H7    S    
C47   C50   S    
C147  C155  A    
C3    C184  A    
C197  O13   A    
O12   Zn9   S    
C173  O59   S    
C196  O11   A    
C98   O51   S    
O56   Zn11  S    
C5    C186  A    
O23   Zn5   S    
O3    Zn12  S    
C76   C83   A    
C105  O58   S    
C102  H77   S    
C65   H28   S    
C3    C149  A    
C150  C159  A    
C145  H41   S    
C110  H103  S    
C127  C136  S    
C16   C188  A    
C53   O26   A    
O12   Zn2   S    
C98   H67   S    
C148  C200  A    
C108  H95   S    
C73   H61   S    
C97   O50   S    
C177  C186  A    
O34   Zn8   S    
C117  C146  S    
C190  H14   S    
C46   H20   S    
C75   C76   A    
C149  H44   S    
C78   C82   A    
C19   F3    S    
C164  C173  A    
C105  H85   S    
C163  C172  A    
C93   H29   S    
C116  C142  T    
C95   C122  S    
O42   Zn3   S    
C79   C137  T    
C62   C81   A    
C173  C182  A    
C197  O39   A    
C36   C44   A    
O8    Zn4   S    
C1    C101  S    
O22   Zn10  S    
C103  H78   S    
C49   O17   A    
C15   C191  S    
C54   O29   A    
C23   F7    S    
C92   C119  S    
C182  C199  A    
C5    C151  A    
C68   C121  S    
C5    C8    A    
C107  H92   S    
C4    C150  A    
C13   C94   S    
C180  O65   S    
C89   C131  S    
C110  O63   S    
C179  O4    A    
O45   Zn10  S    
O68   Zn14  S    
C147  H42   S    
C195  O10   A    
O1    Zn10  S    
C24   C131  S    
C55   O30   A    
C12   C185  A    
C170  O52   S    
C192  O33   A    
C159  C167  A    
C128  C190  S    
C114  H5    S    
C71   H83   S    
C7    C188  A    
C24   H18   S    
C59   H8    S    
C150  H45   S    
C21   C42   A    
C13   C127  S    
O12   Zn11  S    
C126  C134  S    
C104  H82   S    
O5    Zn16  S    
C41   C45   A    
C126  H40   S    
C35   C132  S    
O27   Zn14  S    
C57   H21   S    
O4    Zn13  S    
C44   C48   S    
C169  O49   S    
C102  H75   S    
C8    C181  A    
C109  H98   S    
C96   H58   S    
C110  H101  S    
C135  O67   A    
C121  C130  S    
C128  C137  S    
O12   Zn4   S    
C98   H65   S    
C58   C76   A    
C1    O40   A    
C133  C142  S    
O43   Zn4   S    
C158  H53   S    
O34   Zn6   S    
C28   F1    S    
C156  C165  A    
C172  O58   S    
C36   C37   A    
C114  O65   S    
C146  O44   A    
C96   O49   S    
C31   F15   S    
C2    C129  S    
C22   F6    S    
C105  H87   S    
C69   H17   S    
C163  O54   S    
C151  H46   S    
C95   H31   S    
C35   C87   S    
C172  C181  A    
C106  H90   S    
C103  O55   S    
C74   C77   A    
C80   C86   A    
C64   C73   A    
C9    C182  A    
C25   F8    S    
C149  C158  A    
C152  C161  A    
C16   C200  A    
C39   C45   A    
C14   C192  S    
C66   C67   A    
C54   O27   A    
C24   C126  S    
C35   C120  S    
C111  H3    S    
C169  C177  A    
C90   C138  T    
C53   O24   A    
C63   C80   A    
C161  H56   S    
C87   H23   S    
C119  C128  S    
C120  C129  S    
C16   C189  S    
C194  O36   A    
C54   C86   S    
C77   C84   A    
C165  C174  A    
C168  O3    A    
C88   C125  S    
C122  H34   S    
C31   C32   A    
C156  H52   S    
C104  H84   S    
C51   O21   A    
C26   F10   S    
O1    Zn3   S    
C19   C28   A    
C179  O48   A    
C56   H94   S    
C145  C154  A    
C78   C85   A    
C109  H100  S    
C96   H60   S    
C35   H19   S    
C157  O46   A    
O17   Zn4   S    
O6    Zn2   S    
C99   H70   S    
C48   O14   A    
C132  C141  S    
C64   C78   A    
C34   C43   A    
C106  O59   S    
C103  H79   S    
C108  O61   S    
C79   C124  S    
C146  O68   A    
C183  C200  A    
C87   C129  S    
C97   H63   S    
C6    C152  A    
C145  C198  A    
O38   Zn14  S    
C13   H16   S    
C87   C123  S    
C90   C135  S    
C58   H2    S    
C52   O25   A    
O9    Zn5   S    
C60   C69   A    
C107  H93   S    
C62   C71   A    
C17   C38   A    
O1    Zn1   S    
O33   Zn10  S    
O26   Zn9   S    
C49   O15   A    
C195  O37   A    
C104  O57   S    
C120  H32   S    
C4    C9    A    
O19   Zn6   S    
C81   C85   A    
C25   C33   A    
C61   C70   A    
C7    C10   A    
C189  O31   A    
C32   F12   S    
O23   Zn14  S    
C193  O8    A    
C12   C193  S    
C122  C131  S    
C147  C199  A    
C154  H49   S    
C124  O42   A    
O47   Zn7   S    
C176  C185  A    
C166  C175  A    
O16   Zn3   S    
C57   C89   S    
C119  H33   S    
O44   Zn5   S    
C123  C132  S    
C92   H27   S    
C109  O62   S    
C22   C41   A    
O34   Zn15  S    
C108  H96   S    
C176  O62   S    
C23   C40   A    
C88   H24   S    
C51   O19   A    
O31   Zn1   S    
C180  C188  A    
C57   C122  S    
C92   C190  S    
C160  C169  A    
C11   C194  S    
C125  C190  S    
C17   F16   S    
O14   Zn16  S    
C20   C34   A    
C99   H68   S    
C48   O16   A    
O30   Zn13  S    
C52   O22   A    
O28   Zn15  S    
C10   C183  A    
C130  C139  S    
C196  O38   A    
C39   C42   A    
C89   C126  S    
C125  H36   S    
C101  C139  T    
O25   Zn1   S    
C11   C184  A    
C124  O66   A    
O46   Zn6   S    
C20   F4    S    
O36   Zn12  S    
C192  O7    A    
C100  O53   S    
C107  H91   S    
C82   C86   A    
C6    C187  A    
C95   C134  S    
C4    C185  A    
C55   C85   S    
C38   C44   A    
C100  H73   S    
C30   F14   S    
O10   Zn6   S    
C91   H26   S    
C67   H1    S    
C70   C73   A    
C18   F2    S    
C114  H6    S    
C29   F9    S    
C94   H30   S    
C178  C187  A    
C175  O61   S    
C70   H72   S    
C57   C134  S    
C24   C95   S    
C148  H43   S    
C6    C11   A    
C158  C166  A    
C102  H76   S    
O35   Zn11  S    
O15   Zn2   S    
C160  H55   S    
C33   F13   S    
C110  H102  S    
C61   H10   S    
C174  C183  A    
C98   H66   S    
C63   H12   S    
O34   Zn13  S    
C21   C30   A    
C191  O6    A    
C153  C162  A    
C53   C83   S    
C23   C32   A    
C136  C144  S    
C46   C133  S    
C107  O60   S    
C65   C69   A    
C105  H86   S    
C102  O54   S    
C75   C84   A    
C123  H37   S    
C178  O64   S    
C94   C121  S    
C71   C72   A    
C63   C72   A    
C116  C179  S    
C189  O5    A    
C99   O52   S    
C112  O56   A    
C118  C157  S    
C68   H22   S    
C148  C156  A    
C157  O2    A    
C175  C184  A    
C40   C47   A    
C37   C43   A    
C55   O28   A    
O40   Zn16  S    
O13   Zn8   S    
C9    C196  S    
O39   Zn15  S    
C111  H104  S    
C91   C130  S    
C14   C198  A    
O37   Zn13  S    
C17   C26   A    
C117  C143  T    
C18   C37   A    
C118  C144  T    
C19   C36   A    
C14   C186  A    
C45   C51   S    
C56   C65   A    
C68   C91   S    
C60   H9    S    
C21   F5    S    
C106  H88   S    
O32   Zn9   S    
C58   C66   A    
C129  C138  S    
C104  H81   S    
C94   C136  S    
O23   Zn12  S    
O24   Zn11  S    
O67   Zn9   S    
C59   C67   A    
C159  H54   S    
C109  H99   S    
C8    C197  S    
C181  C198  A    
C72   H50   S    
C112  C113  S    
C46   C88   S    
C20   C29   A    
C99   H69   S    
C22   C31   A    
C112  O41   A    
C154  C163  A    
C68   C136  S    
C111  O64   S    
C43   C49   S    
C135  O43   A    
C171  O51   S    
C15   C187  A    
C56   C77   A    
C97   H62   S    
C106  H89   S    
C7    C153  A    
C27   F11   S    
C113  C140  T    
C50   O20   A    
O1    Zn16  S    
O21   Zn8   S    
C174  O60   S    
O2    Zn15  S    
O29   Zn12  S    
C2    H15   S    
C161  C170  A    
C40   C41   A    
C168  O47   A    
C177  O63   S    
C89   H25   S    
C171  C180  A    
C111  H4    S    
C93   C132  S    
C59   C75   A    
C3    C15   A    
C152  H47   S    
C125  C133  S    
C30   C33   A    
C1    O45   A    
C34   C38   A    
C194  O9    A    
C191  O32   A    
C2    C93   S    
C18   C27   A    
O23   Zn7   S    
C80   C81   A    
C155  C164  A    
C167  O50   S    
C151  C160  A    
C115  C168  S    
C88   C128  S    
O11   Zn7   S    
C10   C195  S    
C25   C39   A    
C164  O53   S    
C165  O57   S    
C166  O55   S    
C60   C74   A    
C12   C199  A    
C46   C119  S    
C42   C47   A    
O66   Zn1   S    
C66   H39   S    
C26   C29   A    
C27   C28   A    
C96   H59   S    
O41   Zn2   S    
C155  H51   S    
C167  C176  A    
