data_mof_unit_64462.cif
_audit_creation_date              2012-10-26T19:36:42-0400
_audit_creation_method            fapswitch 2.2
_symmetry_space_group_name_H-M    P1
_symmetry_Int_Tables_number       1
_space_group_crystal_system       triclinic
_cell_length_a                    17.723329
_cell_length_b                    16.441403
_cell_length_c                    10.766074
_cell_angle_alpha                 89.786574
_cell_angle_beta                  90.296249
_cell_angle_gamma                 90.01046
_cell_volume                      3137.13140563

loop_
_atom_site_label
_atom_site_type_symbol
_atom_type_description
_atom_site_fract_x
_atom_site_fract_y
_atom_site_fract_z
_atom_type_partial_charge
C1    C     C_R   0.355213 0.499998 0.500046 0.549860
C2    C     C_1   0.033827 0.500038 0.501591 -0.033250
C3    C     C_R   0.153652 0.573761 0.501562 -0.114318
C4    C     C_R   0.153599 0.426295 0.500536 -0.115559
C5    C     C_R   0.232301 0.573848 0.501108 -0.126588
C6    C     C_R   0.232247 0.426180 0.500091 -0.137210
C7    C     C_R   0.272280 0.500005 0.500371 0.012996
C8    C     C_R   0.499582 0.500028 0.259560 0.549562
C9    C     C_R   0.114414 0.500034 0.501278 0.039381
C10   C     C_R   0.548315 0.828655 0.578744 -0.149305
C11   C     C_R   0.561465 0.170713 0.547003 -0.153778
C12   C     C_3   0.571465 0.542983 0.929724 -0.227849
C13   C     C_R   0.547739 0.742857 0.576877 0.032107
C14   C     C_R   0.560662 0.256520 0.545325 0.021468
C15   C     C_R   0.452136 0.743180 0.423132 0.042529
C16   C     C_R   0.439808 0.256874 0.452261 0.034669
C17   C     C_R   0.451104 0.829003 0.422024 -0.143352
C18   C     C_R   0.438567 0.171044 0.451792 -0.145343
C19   C     C_R   0.499587 0.872968 0.500599 0.024734
C20   C     C_R   0.499807 0.126727 0.500049 0.024197
C21   C     C_1   0.499570 0.962561 0.500644 -0.032575
C22   C     C_1   0.499641 0.037135 0.500476 -0.032687
C23   C     C_R   0.846374 0.573743 0.501809 -0.115959
C24   C     C_R   0.644772 0.500002 0.500280 0.546342
C25   C     C_R   0.500093 0.499793 0.740715 0.589019
C26   C     C_3   0.426524 0.542330 0.073353 -0.225633
C27   C     C_3   0.500014 0.411217 0.072934 -0.199764
C28   C     C_3   0.425744 0.539742 0.929252 0.122042
C29   C     C_3   0.502052 0.409519 0.929904 0.133983
C30   C     C_3   0.569660 0.545002 0.072925 -0.248526
C31   C     C_3   0.498928 0.499898 0.122262 -0.019894
C32   C     C_3   0.500042 0.499264 0.878632 0.060884
C33   C     C_3   0.447180 0.682604 0.893600 0.034370
C34   C     C_R   0.846362 0.426275 0.501337 -0.114050
C35   C     C_3   0.396173 0.757136 0.903595 -0.259758
C36   C     C_3   0.442083 0.834749 0.922246 -0.495218
C37   C     C_3   0.555903 0.288014 0.854421 0.022409
C38   C     C_3   0.545861 0.230542 0.965672 -0.286768
C39   C     C_3   0.542302 0.142032 0.923676 -0.481727
C40   C     C_R   0.767723 0.573837 0.501401 -0.136944
C41   C     C_R   0.767710 0.426167 0.500925 -0.130364
C42   C     C_R   0.727709 0.500001 0.500845 0.010796
C43   C     C_R   0.885581 0.500014 0.501715 0.039392
C44   C     C_1   0.966170 0.500028 0.501731 -0.033383
Cu1   Cu    Cu3+1 0.499980 0.580420 0.499990 0.936685
Cu2   Cu    Cu3+1 0.499980 0.419580 0.499990 0.925449
H1    H     H_    0.422017 0.605004 0.110352 0.137437
H2    H     H_    0.392302 0.289639 0.413532 0.115684
H3    H     H_    0.412681 0.860719 0.360096 0.091241
H4    H     H_    0.390045 0.139590 0.413694 0.091558
H5    H     H_    0.376049 0.509700 0.109466 0.085360
H6    H     H_    0.449026 0.377984 0.105629 0.079785
H7    H     H_    0.379868 0.496176 0.905173 0.115581
H8    H     H_    0.449806 0.378068 0.896681 0.079780
H9    H     H_    0.569968 0.609167 0.105261 0.122397
H10   H     H_    0.621657 0.515738 0.110526 0.128336
H11   H     H_    0.577705 0.605256 0.891666 0.086752
H12   H     H_    0.550109 0.378815 0.111658 0.171236
H13   H     H_    0.623094 0.510316 0.899295 0.163660
H14   H     H_    0.876576 0.631056 0.502122 0.106949
H15   H     H_    0.876553 0.368968 0.501276 0.106416
H16   H     H_    0.738351 0.631597 0.501481 0.122090
H17   H     H_    0.738338 0.368400 0.500593 0.117473
H18   H     H_    0.123477 0.631075 0.502116 0.106931
H19   H     H_    0.123382 0.368991 0.500288 0.106090
H20   H     H_    0.485514 0.692226 0.813910 0.162282
H21   H     H_    0.481928 0.678773 0.979059 0.110768
H22   H     H_    0.361858 0.763246 0.817313 0.181393
H23   H     H_    0.261698 0.631607 0.501360 0.126044
H24   H     H_    0.357261 0.749062 0.983352 0.160384
H25   H     H_    0.475807 0.830700 0.009322 0.142366
H26   H     H_    0.403386 0.887634 0.928933 0.148091
H27   H     H_    0.480558 0.844686 0.842486 0.149442
H28   H     H_    0.606529 0.267902 0.802670 0.145331
H29   H     H_    0.507200 0.282997 0.789175 0.147014
H30   H     H_    0.593926 0.238106 0.031332 0.173022
H31   H     H_    0.492683 0.245090 0.014869 0.144104
H32   H     H_    0.494317 0.133019 0.858334 0.151096
H33   H     H_    0.534157 0.101836 0.005629 0.149451
H34   H     H_    0.261592 0.368411 0.499537 0.114639
H35   H     H_    0.595625 0.124569 0.877004 0.144099
H36   H     H_    0.586632 0.860083 0.640844 0.088933
H37   H     H_    0.610062 0.139042 0.584743 0.091282
H38   H     H_    0.585651 0.709579 0.637531 0.104903
H39   H     H_    0.608872 0.289030 0.581604 0.118651
H40   H     H_    0.414463 0.710156 0.362099 0.111569
N1    N     N_R   0.499970 0.701220 0.499970 -0.214915
N2    N     N_R   0.499970 0.298780 0.499970 -0.220334
O1    O     O_R   0.391240 0.567930 0.499990 -0.496610
O2    O     O_3   0.569241 0.369398 0.891615 -0.571453
O3    O     O_R   0.391240 0.432070 0.499990 -0.519576
O4    O     O_R   0.499970 0.567910 0.317690 -0.509913
O5    O     O_R   0.499970 0.432090 0.317690 -0.506062
O6    O     O_R   0.608730 0.567880 0.500000 -0.510787
O7    O     O_R   0.608730 0.432120 0.500000 -0.507884
O8    O     O_R   0.500000 0.567910 0.682300 -0.489743
O9    O     O_R   0.500000 0.432090 0.682300 -0.490458
O10   O     O_3   0.401792 0.613328 0.870301 -0.554956

loop_
_geom_bond_atom_site_label_1
_geom_bond_atom_site_label_2
_ccdc_geom_bond_type
C37   H28   S    
C27   C29   S    
C24   C42   S    
C41   C42   A    
C35   C36   S    
C16   H2    S    
C40   H16   S    
C38   H30   S    
C3    H18   S    
C13   H38   S    
C18   H4    S    
C37   O2    S    
Cu1   N1    S    
C29   C32   S    
C4    H19   S    
C11   C14   A    
C29   H8    S    
C23   C40   A    
C23   C43   A    
C33   O10   S    
Cu1   O4    S    
C5    H23   S    
C33   C35   S    
C12   H13   S    
Cu2   O7    S    
C35   H24   S    
C2    C44   T    
C8    O4    A    
Cu1   O1    S    
C36   H25   S    
C25   C32   S    
C40   C42   A    
C37   H29   S    
C26   C31   S    
C1    O3    A    
C21   C22   T    
C12   C32   S    
C34   C41   A    
Cu1   O6    S    
C29   O2    S    
C33   H20   S    
Cu2   N2    S    
C23   H14   S    
C11   C20   A    
C34   C43   A    
C27   C31   S    
C39   H32   S    
C28   C32   S    
C39   H35   S    
C4    C6    A    
C24   O7    A    
C17   H3    S    
C5    C7    A    
Cu2   O3    S    
C11   H37   S    
Cu1   Cu2   S    
C30   H10   S    
C10   H36   S    
C34   H15   S    
C39   H33   S    
C43   C44   S    
C37   C38   S    
C3    C9    A    
C24   O6    A    
C6    H34   S    
C10   C19   A    
C13   N1    A    
C26   H1    S    
C15   H40   S    
C12   H11   S    
C25   O9    A    
Cu2   O9    S    
C20   C22   S    
C41   H17   S    
C27   H6    S    
C33   H21   S    
C15   N1    A    
C28   O10   S    
C15   C17   A    
C1    O1    A    
C12   C30   S    
C1    C7    S    
C8    C31   S    
C8    O5    A    
C14   H39   S    
C3    C5    A    
C10   C13   A    
C28   H7    S    
C6    C7    A    
C38   H31   S    
C30   H9    S    
C26   C28   S    
C14   N2    A    
C26   H5    S    
Cu1   O8    S    
C30   C31   S    
C38   C39   S    
Cu2   O5    S    
C35   H22   S    
C27   H12   S    
C17   C19   A    
C18   C20   A    
C36   H27   S    
C25   O8    A    
C16   C18   A    
C16   N2    A    
C4    C9    A    
C2    C9    S    
C36   H26   S    
C19   C21   S    
