data_mof_unit_48108.cif
_audit_creation_date              2012-12-10T18:24:46-0500
_audit_creation_method            fapswitch 2.2
_symmetry_space_group_name_H-M    P1
_symmetry_Int_Tables_number       1
_space_group_crystal_system       triclinic
_cell_length_a                    14.063905
_cell_length_b                    14.921652
_cell_length_c                    16.732323
_cell_angle_alpha                 89.101512
_cell_angle_beta                  84.533146
_cell_angle_gamma                 90.479298
_cell_volume                      3494.81715647

loop_
_atom_site_label
_atom_site_type_symbol
_atom_type_description
_atom_site_fract_x
_atom_site_fract_y
_atom_site_fract_z
_atom_type_partial_charge
C1    C     C_R   0.500416 0.673109 0.498880 0.864703
C2    C     C_R   0.499552 0.326840 0.500526 0.883463
C3    C     C_R   0.547602 0.185393 0.557867 -0.276879
C4    C     C_R   0.446846 0.814202 0.445214 -0.276971
C5    C     C_R   0.497799 0.231304 0.502291 -0.052215
C6    C     C_R   0.500996 0.768536 0.497814 -0.050769
C7    C     C_R   0.443745 0.186800 0.449844 -0.253259
C8    C     C_R   0.553092 0.813194 0.551445 -0.215220
C9    C     C_R   0.442931 0.094179 0.449321 0.085054
C10   C     C_R   0.548897 0.905575 0.555183 0.073280
C11   C     C_R   0.494076 0.046369 0.504407 0.027842
C12   C     C_R   0.495920 0.953288 0.501405 0.021663
C13   C     C_R   0.543737 0.091967 0.562010 0.044676
C14   C     C_R   0.445594 0.907586 0.444383 0.050073
C15   C     C_R   0.393209 0.049548 0.393207 -0.258527
C16   C     C_R   0.594617 0.949793 0.613820 -0.244004
C17   C     C_R   0.394287 0.955754 0.389205 0.220116
C18   C     C_R   0.589306 0.043231 0.620833 0.224003
C19   C     C_R   0.195441 0.446797 0.554507 0.568786
C20   C     C_R   0.804429 0.558465 0.448969 0.569640
C21   C     C_R   0.208778 0.551503 0.445536 -0.118022
C22   C     C_R   0.791719 0.445671 0.552383 -0.089282
C23   C     C_R   0.486245 0.494467 0.653045 0.874274
C24   C     C_R   0.513705 0.500994 0.346666 0.846301
C25   C     C_R   0.108686 0.552090 0.443712 -0.129872
C26   C     C_R   0.891539 0.448048 0.556579 -0.098675
C27   C     C_R   0.050576 0.500197 0.500528 -0.074521
C28   C     C_R   0.949436 0.499528 0.499370 -0.084448
C29   C     C_R   0.093606 0.450646 0.559582 -0.239777
C30   C     C_R   0.906212 0.551327 0.441742 -0.202505
C31   C     C_R   0.065898 0.602673 0.385632 0.395860
C32   C     C_R   0.934224 0.401515 0.617495 0.364347
C33   C     C_R   0.966566 0.596510 0.380734 0.405636
C34   C     C_R   0.033768 0.407882 0.622180 0.334945
C35   C     C_R   0.476899 0.464668 0.736457 -0.057266
C36   C     C_R   0.522626 0.498134 0.259744 -0.076323
C37   C     C_R   0.551438 0.415547 0.765250 -0.291843
C38   C     C_R   0.444238 0.521328 0.218411 -0.254376
C39   C     C_R   0.543463 0.382594 0.843835 0.247300
C40   C     C_R   0.446377 0.506934 0.136280 0.246941
C41   C     C_R   0.461010 0.403038 0.894653 0.150053
C42   C     C_R   0.529155 0.470073 0.095817 0.120323
C43   C     C_R   0.383410 0.445202 0.864031 -0.224392
C44   C     C_R   0.610030 0.453776 0.136080 -0.210199
C45   C     C_R   0.391129 0.475716 0.784828 -0.188467
C46   C     C_R   0.606751 0.467288 0.218074 -0.224390
C47   C     C_2   0.463879 0.402864 0.981229 -0.187010
C48   C     C_2   0.533631 0.449421 0.011076 -0.182021
H1    H     H_    0.615759 0.402008 0.726491 0.161201
H2    H     H_    0.381099 0.549675 0.250186 0.164212
H3    H     H_    0.254788 0.591015 0.402765 0.174017
H4    H     H_    0.746166 0.403749 0.593524 0.178268
H5    H     H_    0.668474 0.450414 0.249191 0.152427
H6    H     H_    0.331694 0.510700 0.762340 0.166286
H7    H     H_    0.594478 0.475214 0.972284 0.160719
H8    H     H_    0.402389 0.378162 0.019631 0.165178
H9    H     H_    0.319906 0.460749 0.903053 0.154630
H10   H     H_    0.674417 0.427463 0.104496 0.149524
H11   H     H_    0.589008 0.223625 0.597019 0.143899
H12   H     H_    0.406469 0.775905 0.405310 0.141522
H13   H     H_    0.404972 0.224668 0.407742 0.136433
H14   H     H_    0.593498 0.775456 0.592476 0.150376
H15   H     H_    0.355809 0.088942 0.351521 0.157961
H16   H     H_    0.631943 0.909935 0.655174 0.159626
N1    N     N_R   0.249970 0.499930 0.499970 -0.148299
N2    N     N_R   0.750030 0.500070 0.500030 -0.153928
O1    O     O_R   0.419720 0.632140 0.499990 -0.626097
O2    O     O_R   0.580280 0.367860 0.500010 -0.626202
O3    O     O_R   0.580270 0.632160 0.499980 -0.585222
O4    O     O_R   0.419730 0.367840 0.500020 -0.607217
O5    O     O_R   0.410240 0.500000 0.615800 -0.574919
O6    O     O_R   0.589760 0.500000 0.384200 -0.656350
O7    O     O_R   0.570790 0.500020 0.615800 -0.623802
O8    O     O_R   0.429210 0.499980 0.384200 -0.622465
Zn1   Zn    Zn3+2 0.392800 0.499980 0.500010 0.963927
Zn2   Zn    Zn3+2 0.607200 0.500020 0.499990 0.950236
O9    O     O_3   0.241211 0.391355 0.605314 -0.569586
C49   C     C_3   0.233911 0.301484 0.580194 0.173144
H17   H     H_    0.265923 0.293436 0.517424 0.127922
H18   H     H_    0.158597 0.277775 0.582484 0.130482
C50   C     C_3   0.285413 0.240933 0.635697 -0.775864
H19   H     H_    0.247304 0.240566 0.696958 0.254784
H20   H     H_    0.287505 0.171450 0.612799 0.199617
H21   H     H_    0.359614 0.265399 0.639203 0.252320
O10   O     O_3   0.766336 0.641721 0.431980 -0.594331
C51   C     C_3   0.730775 0.646833 0.355804 0.227693
H22   H     H_    0.652454 0.641251 0.362797 0.161789
H23   H     H_    0.758501 0.594376 0.313585 0.122472
C52   C     C_3   0.749733 0.740561 0.319565 -0.813768
H24   H     H_    0.826204 0.759646 0.317213 0.298767
H25   H     H_    0.727007 0.743366 0.257821 0.193862
H26   H     H_    0.708112 0.790513 0.356629 0.240638
O11   O     O_3   0.121481 0.652005 0.327613 -0.631323
C53   C     C_3   0.141668 0.737512 0.357800 0.097856
H27   H     H_    0.211404 0.760579 0.327514 0.174273
H28   H     H_    0.149671 0.737153 0.423550 0.126192
C54   C     C_3   0.065889 0.804972 0.338466 -0.798219
H29   H     H_    0.996579 0.788190 0.373026 0.260665
H30   H     H_    0.087969 0.873182 0.355281 0.205307
H31   H     H_    0.056934 0.804755 0.273235 0.265666
O12   O     O_3   0.877769 0.356430 0.677515 -0.613477
C55   C     C_3   0.881093 0.263961 0.661272 0.108620
H32   H     H_    0.955708 0.238631 0.656546 0.166988
H33   H     H_    0.848585 0.249743 0.604555 0.127212
C56   C     C_3   0.824708 0.213093 0.729573 -0.821301
H34   H     H_    0.748387 0.232380 0.732707 0.254950
H35   H     H_    0.830886 0.140057 0.719095 0.225086
H36   H     H_    0.853337 0.228525 0.787480 0.259328
O13   O     O_3   0.930573 0.631520 0.313210 -0.600054
C57   C     C_3   0.945329 0.569188 0.250445 0.110401
H37   H     H_    0.902022 0.507217 0.265062 0.101307
H38   H     H_    0.021943 0.550650 0.238938 0.171066
C58   C     C_3   0.914969 0.610596 0.173295 -0.838749
H39   H     H_    0.928744 0.562910 0.123321 0.204114
H40   H     H_    0.837616 0.626051 0.180226 0.244527
H41   H     H_    0.956261 0.673347 0.158143 0.265664
O14   O     O_3   0.071440 0.370032 0.688089 -0.588898
C59   C     C_3   0.078469 0.436846 0.746051 0.195643
H42   H     H_    0.006306 0.461544 0.768129 0.144150
H43   H     H_    0.123674 0.494367 0.721224 0.129026
C60   C     C_3   0.124677 0.397075 0.816924 -0.839525
H44   H     H_    0.196939 0.371984 0.796584 0.272298
H45   H     H_    0.131392 0.449126 0.862816 0.192053
H46   H     H_    0.080284 0.340658 0.844344 0.254714
N3    N     N_2   0.368589 0.534389 0.093349 -0.311772
H47   H     H_    0.365690 0.602999 0.085874 0.226897
C61   C     C_3   0.276492 0.494930 0.120471 -0.828550
H48   H     H_    0.225503 0.509190 0.075272 0.241611
H49   H     H_    0.247811 0.523949 0.178486 0.251555
H50   H     H_    0.282229 0.421059 0.127488 0.242663
N4    N     N_2   0.620893 0.334803 0.872961 -0.315648
H51   H     H_    0.684969 0.341734 0.837805 0.237796
C62   C     C_3   0.599292 0.242649 0.896595 -0.808936
H52   H     H_    0.664002 0.210627 0.916909 0.239643
H53   H     H_    0.576202 0.205021 0.844974 0.236662
H54   H     H_    0.542003 0.238999 0.946977 0.257056
N5    N     N_2   0.347714 0.909120 0.329265 -0.314773
H55   H     H_    0.390429 0.864297 0.296545 0.216702
C63   C     C_3   0.281708 0.955986 0.282440 -0.836755
H56   H     H_    0.244978 0.907074 0.246292 0.244179
H57   H     H_    0.320833 0.005055 0.240549 0.242055
H58   H     H_    0.226530 0.990287 0.322611 0.248514
N6    N     N_2   0.626253 0.088263 0.686824 -0.304423
H59   H     H_    0.587204 0.142921 0.707000 0.217607
C64   C     C_3   0.658900 0.035779 0.752406 -0.841851
H60   H     H_    0.681639 0.080992 0.799186 0.243918
H61   H     H_    0.721779 0.995307 0.730754 0.249536
H62   H     H_    0.600224 0.991979 0.780363 0.246820

loop_
_geom_bond_atom_site_label_1
_geom_bond_atom_site_label_2
_ccdc_geom_bond_type
C25   C31   A    
C48   H7    S    
C38   C40   A    
C26   C32   A    
O11   C53   S    
C2    O4    A    
C27   C29   A    
C11   C13   A    
O6    Zn2   S    
C54   H31   S    
C50   H19   S    
C39   C41   A    
C20   C30   A    
O9    C49   S    
C56   H35   S    
C24   C36   S    
C13   C18   A    
O3    Zn2   S    
C20   N2    A    
C18   N6    S    
C35   C37   A    
C2    O2    A    
C64   H60   S    
C63   H58   S    
C49   H18   S    
N6    H59   S    
C55   C56   S    
N6    C64   S    
C19   O9    S    
C59   H42   S    
C22   N2    A    
C60   H46   S    
C54   H30   S    
C57   H37   S    
C7    H13   S    
C44   H10   S    
C62   H54   S    
C31   C33   A    
C36   C46   A    
C52   H25   S    
N5    C63   S    
C3    C13   A    
C58   H41   S    
C34   O14   S    
C40   C42   A    
C41   C43   A    
C14   C17   A    
C53   H27   S    
C42   C44   A    
C23   O7    A    
C64   H61   S    
C44   C46   A    
C54   H29   S    
C57   H38   S    
C37   C39   A    
C56   H36   S    
C60   H44   S    
O8    Zn1   S    
C1    C6    S    
O12   C55   S    
C23   O5    A    
C4    C6    A    
C5    C7    A    
C51   H22   S    
C6    C8    A    
C53   C54   S    
N4    C62   S    
C31   O11   S    
C29   C34   A    
C1    O3    A    
C59   C60   S    
C32   C34   A    
C53   H28   S    
C61   H49   S    
N3    C61   S    
C37   H1    S    
C47   C48   D    
C63   H56   S    
N2    Zn2   S    
C20   O10   S    
C4    H12   S    
C41   C47   S    
C42   C48   S    
C52   H26   S    
C55   H33   S    
C9    C11   A    
C57   C58   S    
O10   C51   S    
C10   C12   A    
C16   C18   A    
C12   C14   A    
C45   H6    S    
C23   C35   S    
C62   H52   S    
O7    Zn2   S    
C2    C5    S    
O1    Zn1   S    
C61   H48   S    
C35   C45   A    
C21   H3    S    
C50   H21   S    
C64   H62   S    
C24   O6    A    
C22   H4    S    
C58   H39   S    
C56   H34   S    
C15   C17   A    
C21   C25   A    
C30   C33   A    
C21   N1    A    
C49   H17   S    
C3    C5    A    
C51   C52   S    
C50   H20   S    
C11   C12   A    
C38   H2    S    
O2    Zn2   S    
N5    H55   S    
C26   C28   A    
C3    H11   S    
N1    Zn1   S    
C28   C30   A    
C9    C15   A    
C61   H50   S    
C43   C45   A    
C10   C16   A    
O14   C59   S    
O5    Zn1   S    
C63   H57   S    
C49   C50   S    
C24   O8    A    
N3    H47   S    
C39   N4    S    
C40   N3    S    
C46   H5    S    
C36   C38   A    
C1    O1    A    
C19   N1    A    
C51   H23   S    
C4    C14   A    
C55   H32   S    
C59   H43   S    
C60   H45   S    
C43   H9    S    
C7    C9    A    
C33   O13   S    
O4    Zn1   S    
C8    C10   A    
C22   C26   A    
C27   C28   A    
C62   H53   S    
C15   H15   S    
C32   O12   S    
C17   N5    S    
C16   H16   S    
C52   H24   S    
O13   C57   S    
N4    H51   S    
C8    H14   S    
C47   H8    S    
C58   H40   S    
C25   C27   A    
C19   C29   A    
