data_mof_unit_32788.cif
_audit_creation_date              2013-03-05T16:12:26-0500
_audit_creation_method            fapswitch 2.2
_symmetry_space_group_name_H-M    P1
_symmetry_Int_Tables_number       1
_space_group_crystal_system       triclinic
_cell_length_a                    10.655034
_cell_length_b                    9.832294
_cell_length_c                    23.453793
_cell_angle_alpha                 90.406341
_cell_angle_beta                  90.244654
_cell_angle_gamma                 90.322647
_cell_volume                      2456.97615693

loop_
_atom_site_label
_atom_site_type_symbol
_atom_site_description
_atom_site_fract_x
_atom_site_fract_y
_atom_site_fract_z
_atom_type_partial_charge
O1    O     O_R   0.316770 0.614620 0.500000 -0.615648
O2    O     O_R   0.683230 0.385380 0.500000 -0.615668
O3    O     O_R   0.683230 0.614620 0.500000 -0.597188
O4    O     O_R   0.316770 0.385380 0.500000 -0.597252
C1    C     C_R   0.260300 0.499553 0.499547 1.023501
C2    C     C_R   0.739700 0.500448 0.500448 1.023177
O5    O     O_R   0.499970 0.614690 0.416160 -0.612314
O6    O     O_R   0.500030 0.385310 0.583840 -0.612314
O7    O     O_R   0.500030 0.614690 0.583840 -0.586825
O8    O     O_R   0.499970 0.385310 0.416160 -0.586848
C3    C     C_R   0.498254 0.499423 0.389323 0.991470
C4    C     C_R   0.501757 0.500577 0.610677 0.991742
Zn1   Zn    Zn3+2 0.500000 0.653120 0.500000 1.059787
Zn2   Zn    Zn3+2 0.500000 0.346880 0.500000 1.059740
C5    C     C_R   0.610158 0.476795 0.880805 0.564737
C6    C     C_R   0.389939 0.523226 0.119196 0.564733
N1    N     N_R   0.499490 0.491498 0.852217 -0.361215
N2    N     N_R   0.500606 0.508512 0.147784 -0.361214
C7    C     C_R   0.387818 0.508090 0.879730 0.570866
C8    C     C_R   0.612278 0.491920 0.120271 0.570866
C9    C     C_R   0.383943 0.511001 0.939751 -0.122829
C10   C     C_R   0.616155 0.489018 0.060251 -0.122828
C11   C     C_R   0.498997 0.497873 0.969958 -0.058774
C12   C     C_R   0.501101 0.502149 0.030043 -0.058773
C13   C     C_R   0.612340 0.480524 0.940190 -0.083260
C14   C     C_R   0.387759 0.519500 0.059811 -0.083258
C15   C     C_R   0.270952 0.527575 0.970781 0.429416
C16   C     C_R   0.729146 0.472448 0.029220 0.429417
C17   C     C_R   0.274387 0.531901 0.030027 -0.151173
C18   C     C_R   0.725712 0.468126 0.969974 -0.151176
O9    O     O_2   0.717739 0.458604 0.851546 -0.481698
O10   O     O_2   0.282359 0.541424 0.148454 -0.481694
O11   O     O_2   0.282340 0.523445 0.848571 -0.436903
O12   O     O_2   0.717755 0.476554 0.151430 -0.436892
H1    H     H_    0.186931 0.544654 0.052830 0.249460
H2    H     H_    0.813168 0.455375 0.947171 0.249458
C19   C     C_R   0.550708 0.613974 0.239632 -0.056959
C20   C     C_R   0.449409 0.386004 0.760374 -0.057052
H3    H     H_    0.592056 0.700091 0.217978 0.176728
H4    H     H_    0.408095 0.299873 0.782032 0.176711
C21   C     C_R   0.549377 0.610715 0.298721 -0.161682
C22   C     C_R   0.450717 0.389262 0.701285 -0.161566
H5    H     H_    0.590981 0.694948 0.322239 0.215544
H6    H     H_    0.409133 0.305011 0.677771 0.215535
C23   C     C_R   0.496483 0.499093 0.327127 -0.119131
C24   C     C_R   0.503557 0.500907 0.672874 -0.119074
C25   C     C_R   0.442433 0.390838 0.295361 0.393830
C26   C     C_R   0.557589 0.609181 0.704636 0.393778
C27   C     C_R   0.444802 0.395086 0.236176 -0.108643
C28   C     C_R   0.555246 0.604931 0.763821 -0.108633
H7    H     H_    0.403863 0.312544 0.211396 0.187581
H8    H     H_    0.596167 0.687489 0.788598 0.187572
C29   C     C_R   0.498859 0.505975 0.208460 0.200493
C30   C     C_R   0.501233 0.494024 0.791541 0.200524
C31   C     C_R   0.065397 0.425975 0.541824 0.218652
C32   C     C_R   0.934602 0.574027 0.458172 0.218672
C33   C     C_R   0.935721 0.428170 0.543121 0.206357
C34   C     C_R   0.064277 0.571825 0.456872 0.206340
C35   C     C_R   0.872103 0.501825 0.500989 -0.351567
C36   C     C_R   0.127896 0.498179 0.499007 -0.351595
C37   C     C_R   0.589128 0.073017 0.529683 -0.027805
C38   C     C_R   0.410871 0.926983 0.470317 -0.027786
C39   C     C_R   0.410762 0.070913 0.470389 0.021099
C40   C     C_R   0.589239 0.929087 0.529611 0.021217
H9    H     H_    0.660244 0.128409 0.553469 0.187968
H10   H     H_    0.339755 0.871591 0.446531 0.187931
H11   H     H_    0.339285 0.124609 0.446820 0.190094
H12   H     H_    0.660716 0.875391 0.553179 0.190110
N3    N     N_R   0.500000 0.857200 0.500000 -0.110195
N4    N     N_R   0.500000 0.142800 0.500000 -0.110210
Cl1   Cl    Cl    0.120721 0.542772 0.939407 -0.436573
Cl2   Cl    Cl    0.879377 0.457255 0.060595 -0.436563
Cl3   Cl    Cl    0.364929 0.251645 0.326893 -0.527210
Cl4   Cl    Cl    0.635034 0.748405 0.673099 -0.527254
N5    N     N_R   0.133891 0.360456 0.586532 0.246240
O13   O     O_R   0.183540 0.432808 0.627518 -0.374258
O14   O     O_R   0.157379 0.230962 0.583159 -0.313808
N6    N     N_R   0.866109 0.639555 0.413467 0.246164
O15   O     O_R   0.816963 0.567285 0.372336 -0.373739
O16   O     O_R   0.842263 0.768949 0.416928 -0.314065
N7    N     N_R   0.869301 0.362470 0.588638 0.235456
O17   O     O_R   0.891934 0.236210 0.601067 -0.303232
O18   O     O_R   0.790422 0.430876 0.619632 -0.370466
N8    N     N_R   0.130693 0.637557 0.411361 0.235466
O19   O     O_R   0.107939 0.763771 0.398899 -0.303175
O20   O     O_R   0.209634 0.569196 0.380383 -0.370445

loop_
_geom_bond_atom_site_label_1
_geom_bond_atom_site_label_2
_geom_bond_distance
_ccdc_geom_bond_type
C37   N4    1.365929 A    
C15   C17   1.390214 A    
Zn2   N4    2.006575 S    
O3    C2    1.276731 A    
N7    O17   1.300837 A    
C25   C27   1.389367 A    
C16   Cl2   1.766436 S    
O5    C3    1.292487 A    
C28   C30   1.396137 A    
O1    C1    1.278381 A    
C40   H12   1.081369 S    
C7    C9    1.408576 A    
C12   C14   1.408131 A    
C20   C22   1.386584 A    
N6    O16   1.300807 A    
C33   C35   1.403697 A    
C34   C36   1.403709 A    
C32   N6    1.433674 S    
C22   C24   1.404497 A    
O7    Zn1   2.004970 S    
N2    C29   1.423679 S    
C27   H7    1.083448 S    
C28   H8    1.083449 S    
C11   C12   1.409629 A    
O3    Zn1   1.990772 S    
C31   N5    1.433690 S    
C26   C28   1.389366 A    
C9    C15   1.419040 A    
C10   C16   1.419040 A    
C31   C36   1.402293 A    
C19   C29   1.395074 A    
C21   H5    1.083503 S    
O2    C2    1.278386 A    
C22   H6    1.083502 S    
N7    O18   1.300698 A    
C24   C26   1.413471 A    
C23   C25   1.413462 A    
C9    C11   1.420255 A    
C6    C14   1.393117 A    
C39   H11   1.081370 S    
C38   H10   1.081418 S    
C26   Cl4   1.763166 S    
N8    O19   1.300826 A    
C25   Cl3   1.763166 S    
C4    C24   1.458771 S    
C7    O11   1.347753 S    
N6    O15   1.300575 A    
C38   N3    1.365931 A    
C37   C40   1.415161 A    
N5    O13   1.300654 A    
C38   C39   1.415163 A    
C34   N8    1.438369 S    
C20   C30   1.395069 A    
C39   N4    1.365956 A    
O6    C4    1.292492 A    
C40   N3    1.365953 A    
N5    O14   1.300885 A    
C8    C10   1.408580 A    
O8    C3    1.290554 A    
C31   C33   1.382451 A    
O8    Zn2   2.004972 S    
C10   C12   1.420254 A    
C3    C23   1.458754 S    
O1    Zn1   1.986588 S    
C15   Cl1   1.766438 S    
C13   C18   1.399182 A    
C5    N1    1.362881 A    
O6    Zn2   1.999706 S    
C1    C36   1.410755 S    
C2    C35   1.410749 S    
N8    O20   1.300695 A    
O4    C1    1.276738 A    
C5    O9    1.350602 S    
C6    O10   1.350602 S    
C17   H1    1.083838 S    
C32   C35   1.402276 A    
C18   H2    1.083838 S    
C16   C18   1.390218 A    
C8    O12   1.347752 S    
C19   H3    1.082958 S    
O4    Zn2   1.990774 S    
C20   H4    1.082958 S    
Zn1   N3    2.006575 S    
C27   C29   1.396143 A    
N1    C7    1.366034 A    
C32   C34   1.382441 A    
N2    C8    1.366035 A    
C11   C13   1.408132 A    
C19   C21   1.386585 A    
O2    Zn2   1.986587 S    
C33   N7    1.438357 S    
C5    C13   1.393122 A    
O7    C4    1.290559 A    
C37   H9    1.081414 S    
O5    Zn1   1.999709 S    
C14   C17   1.399182 A    
C6    N2    1.362884 A    
C21   C23   1.404491 A    
N1    C30   1.423674 S    
