data_mof_unit_54700.cif
_audit_creation_date              2013-03-05T15:58:07-0500
_audit_creation_method            fapswitch 2.2
_symmetry_space_group_name_H-M    P1
_symmetry_Int_Tables_number       1
_space_group_crystal_system       triclinic
_cell_length_a                    12.595527
_cell_length_b                    13.129795
_cell_length_c                    14.964925
_cell_angle_alpha                 90.947088
_cell_angle_beta                  103.099436
_cell_angle_gamma                 81.82499
_cell_volume                      2385.63917025

loop_
_atom_site_label
_atom_site_type_symbol
_atom_site_description
_atom_site_fract_x
_atom_site_fract_y
_atom_site_fract_z
_atom_type_partial_charge
O1    O     O_R   0.366740 0.627160 0.477250 -0.617441
O2    O     O_R   0.544830 0.662520 0.507680 -0.629445
C1    C     C_R   0.438287 0.691182 0.484266 0.845952
O3    O     O_R   0.410940 0.482340 0.616930 -0.628972
O4    O     O_R   0.589030 0.517700 0.647360 -0.609382
C2    C     C_R   0.501448 0.499556 0.672960 0.881711
Zn1   Zn    Zn3+2 0.381090 0.476390 0.479680 0.980073
Zn2   Zn    Zn3+2 0.618910 0.523610 0.520320 0.960696
O5    O     O_R   0.455170 0.337480 0.492320 -0.612460
O6    O     O_R   0.633260 0.372840 0.522750 -0.589265
O7    O     O_R   0.410970 0.482300 0.352640 -0.562945
O8    O     O_R   0.589060 0.517660 0.383070 -0.667197
C3    C     C_R   0.561946 0.307905 0.511600 0.914447
C4    C     C_R   0.499824 0.497061 0.327016 0.913396
C5    C     C_R   0.448338 0.415985 0.174909 0.296712
C6    C     C_R   0.501070 0.489747 0.231045 -0.185609
C7    C     C_R   0.558763 0.557038 0.197081 -0.295457
C8    C     C_R   0.562125 0.555533 0.105837 0.145654
C9    C     C_R   0.508852 0.483421 0.047544 -0.020482
C10   C     C_R   0.453857 0.410207 0.081782 -0.087914
C11   C     C_R   0.617440 0.626344 0.072205 -0.183334
C12   C     C_R   0.618870 0.627810 0.979919 -0.202761
C13   C     C_R   0.564863 0.558555 0.920796 0.132688
C14   C     C_R   0.510382 0.485592 0.954546 0.085879
C15   C     C_R   0.456494 0.415790 0.894755 0.062778
C16   C     C_R   0.407436 0.340664 0.928212 -0.248754
C17   C     C_R   0.407590 0.335110 0.020927 0.311204
C18   C     C_R   0.563258 0.561712 0.827970 -0.246711
C19   C     C_R   0.506028 0.494532 0.769147 -0.059604
C20   C     C_R   0.453596 0.421368 0.801914 -0.220055
H1    H     H_    0.598873 0.613075 0.241749 0.164935
H2    H     H_    0.658694 0.681263 0.117215 0.150751
H3    H     H_    0.661088 0.683659 0.954627 0.153831
H4    H     H_    0.603890 0.617836 0.801026 0.149163
H5    H     H_    0.411695 0.368150 0.755106 0.158009
H6    H     H_    0.370016 0.284621 0.881964 0.182084
C21   C     C_R   0.715395 0.052576 0.462502 -0.246483
H7    H     H_    0.715762 0.864583 0.392702 0.150397
H8    H     H_    0.794060 0.018336 0.449859 0.179647
C22   C     C_R   0.598807 0.196751 0.509485 -0.158122
C23   C     C_R   0.293185 0.839826 0.481598 -0.187841
C24   C     C_R   0.261001 0.945389 0.482186 -0.126487
C25   C     C_R   0.335420 0.012252 0.475760 -0.169048
C26   C     C_R   0.442363 0.973795 0.463944 0.100784
C27   C     C_R   0.466719 0.868229 0.447033 0.082949
C28   C     C_R   0.527366 0.035372 0.471147 0.098021
C29   C     C_R   0.628036 0.994719 0.448369 0.112979
C30   C     C_R   0.641408 0.895403 0.414593 -0.209683
C31   C     C_R   0.561106 0.832942 0.413056 -0.186580
C32   C     C_R   0.516874 0.134572 0.504943 -0.261362
C33   C     C_R   0.703346 0.152832 0.496148 0.310407
C34   C     C_R   0.397463 0.800600 0.467198 -0.112397
H9    H     H_    0.443823 0.166210 0.527494 0.164179
H10   H     H_    0.237640 0.788999 0.494803 0.157658
H11   H     H_    0.306438 0.093322 0.478698 0.141221
H12   H     H_    0.179916 0.975482 0.492024 0.165606
H13   H     H_    0.574353 0.756464 0.385957 0.166915
C35   C     C_R   0.087291 0.347563 0.371461 -0.257901
H14   H     H_    0.255924 0.326167 0.361365 0.202669
H15   H     H_    0.878757 0.320926 0.345791 0.178286
H16   H     H_    0.065372 0.287426 0.323157 0.170487
N1    N     N_R   0.222190 0.444670 0.452360 -0.117163
C36   C     C_R   0.799824 0.629767 0.609148 0.035326
C37   C     C_R   0.903922 0.659639 0.630451 -0.235833
C38   C     C_R   0.984838 0.611905 0.587884 -0.180474
C39   C     C_R   0.961650 0.533470 0.523492 0.016444
C40   C     C_R   0.853972 0.506185 0.504003 0.225659
C41   C     C_R   0.040735 0.480472 0.478543 -0.013149
C42   C     C_R   0.010015 0.402905 0.414342 0.154950
C43   C     C_R   0.903051 0.379793 0.394807 -0.185825
C44   C     C_R   0.826958 0.429282 0.440409 -0.120753
C45   C     C_R   0.150109 0.500081 0.495192 -0.044997
C46   C     C_R   0.194404 0.369301 0.392440 0.058915
N2    N     N_R   0.776970 0.554790 0.547140 -0.129297
H17   H     H_    0.180982 0.557811 0.541958 0.127443
H18   H     H_    0.736396 0.666849 0.641675 0.136906
H19   H     H_    0.064119 0.638013 0.606683 0.139238
H20   H     H_    0.921830 0.719717 0.679681 0.159766
H21   H     H_    0.748084 0.403966 0.425983 0.211526
N3    N     N_R   0.386780 0.351086 0.212588 0.231559
O9    O     O_R   0.437597 0.280303 0.273312 -0.397583
O10   O     O_R   0.279987 0.372616 0.196119 -0.371164
Br1   Br    Br    0.350302 0.216559 0.054946 -0.392037
N4    N     N_R   0.798571 0.204824 0.521147 0.197788
O11   O     O_R   0.815986 0.254539 0.597845 -0.366703
O12   O     O_R   0.880374 0.180615 0.481458 -0.429022

loop_
_geom_bond_atom_site_label_1
_geom_bond_atom_site_label_2
_geom_bond_distance
_ccdc_geom_bond_type
C39   C41   1.421285 A    
C8    C11   1.400633 A    
C23   C24   1.388126 A    
C9    C10   1.425818 A    
C44   H21   1.066936 S    
Zn1   O7    2.024727 S    
C16   C17   1.390149 A    
C20   H5    1.085611 S    
C18   C19   1.392862 A    
N4    O12   1.301329 A    
C45   H17   1.076331 S    
O4    C2    1.299906 A    
C21   C33   1.401861 A    
O7    C4    1.302239 A    
C36   H18   1.081693 S    
C5    C6    1.409945 A    
C31   H13   1.081735 S    
C8    C9    1.412717 A    
O5    C3    1.312286 A    
C3    C22   1.469331 S    
C24   H12   1.082744 S    
C5    N3    1.430792 S    
C6    C7    1.389904 A    
C13   C14   1.415563 A    
N1    C46   1.353786 A    
C43   C44   1.382472 A    
C27   C31   1.412858 A    
C21   C29   1.399797 A    
H14   C46   1.080397 S    
C23   C34   1.403237 A    
H7    C30   1.084005 S    
C41   C45   1.403342 A    
C35   H16   1.083910 S    
C39   C40   1.417128 A    
C18   H4    1.085411 S    
C11   C12   1.385737 A    
O3    Zn1   2.004775 S    
C26   C28   1.415132 A    
C5    C10   1.411290 A    
C11   H2    1.084200 S    
C32   H9    1.077250 S    
C38   H19   1.077343 S    
N4    O11   1.301310 A    
N3    O10   1.301485 A    
C41   C42   1.421693 A    
C27   C34   1.410282 A    
C15   C16   1.391172 A    
O1    C1    1.303593 A    
C25   C26   1.418522 A    
Zn1   N1    2.051059 S    
C19   C20   1.393615 A    
C29   C30   1.392338 A    
H15   C43   1.084365 S    
Zn2   O8    2.004775 S    
Zn2   N2    2.038708 S    
C7    C8    1.375407 A    
N1    C45   1.350908 A    
C40   N2    1.363377 A    
C13   C18   1.385911 A    
C14   C15   1.405624 A    
C25   H11   1.078626 S    
C30   C31   1.385948 A    
C10   C17   1.426297 A    
O8    C4    1.300652 A    
C7    H1    1.086160 S    
C4    C6    1.441304 S    
O3    C2    1.299040 A    
C24   C25   1.391495 A    
C26   C27   1.407827 A    
C16   H6    1.084679 S    
C15   C20   1.384418 A    
Zn1   O5    1.918408 S    
C12   H3    1.083997 S    
C28   C29   1.416451 A    
O1    Zn1   1.962236 S    
C37   H20   1.082552 S    
O2    Zn2   1.918409 S    
N3    O9    1.301653 A    
O6    C3    1.306407 A    
O4    Zn2   2.024727 S    
C1    C34   1.461541 S    
C35   C42   1.397759 A    
C36   N2    1.357336 A    
C22   C33   1.416164 A    
C28   C32   1.388979 A    
C37   C38   1.391677 A    
C17   Br1   1.927384 S    
C9    C14   1.397012 A    
C21   H8    1.084037 S    
C22   C32   1.393591 A    
O2    C1    1.308764 A    
C40   C44   1.400068 A    
C42   C43   1.388344 A    
C23   H10   1.083357 S    
C36   C37   1.388260 A    
C2    C19   1.429708 S    
Zn2   O6    1.962237 S    
C38   C39   1.414069 A    
C12   C13   1.396018 A    
C33   N4    1.437200 S    
C35   C46   1.383752 A    
