data_mof_unit_9643.cif
_audit_creation_date              2012-12-10T18:15:14-0500
_audit_creation_method            fapswitch 2.2
_symmetry_space_group_name_H-M    P1
_symmetry_Int_Tables_number       1
_space_group_crystal_system       triclinic
_cell_length_a                    12.601602
_cell_length_b                    13.125393
_cell_length_c                    23.382678
_cell_angle_alpha                 90.633143
_cell_angle_beta                  102.695132
_cell_angle_gamma                 82.321649
_cell_volume                      3738.46927169

loop_
_atom_site_label
_atom_site_type_symbol
_atom_type_description
_atom_site_fract_x
_atom_site_fract_y
_atom_site_fract_z
_atom_type_partial_charge
C1    C     C_R   0.438799 0.691282 0.495405 0.858424
C2    C     C_R   0.520096 0.691622 0.034601 -0.158563
C3    C     C_R   0.522896 0.693114 0.975418 -0.160036
C4    C     C_R   0.509802 0.604339 0.941996 -0.016310
C5    C     C_R   0.493093 0.513511 0.968363 -0.022330
C6    C     C_R   0.479495 0.424084 0.935178 -0.013015
C7    C     C_R   0.462709 0.334022 0.961793 -0.161641
C8    C     C_R   0.460314 0.332432 0.021006 -0.160032
C9    C     C_R   0.513416 0.603575 0.882688 0.502689
C10   C     C_R   0.483215 0.427268 0.875995 0.496150
C11   C     C_R   0.592748 0.462177 0.772314 -0.097219
C12   C     C_R   0.500696 0.501273 0.610237 0.856692
C13   C     C_R   0.592454 0.457960 0.712906 -0.214252
C14   C     C_R   0.502059 0.506931 0.672161 -0.028866
C15   C     C_R   0.414168 0.563581 0.690894 -0.248569
C16   C     C_R   0.415240 0.568856 0.750336 -0.111474
C17   C     C_R   0.503575 0.516756 0.790891 0.316670
C18   C     C_R   0.589831 0.511335 0.247428 -0.102364
C19   C     C_R   0.592678 0.509073 0.307077 -0.217561
C20   C     C_R   0.496609 0.500274 0.326695 -0.042213
C21   C     C_R   0.397965 0.493131 0.285873 -0.217270
C22   C     C_R   0.395367 0.495684 0.226222 -0.098895
C23   C     C_R   0.561116 0.308813 0.507230 0.861767
C24   C     C_R   0.491182 0.505046 0.207042 0.316635
C25   C     C_R   0.702209 0.066953 0.587317 -0.190642
C26   C     C_R   0.597289 0.200503 0.520068 -0.053035
C27   C     C_R   0.299824 0.836911 0.453657 -0.178069
C28   C     C_R   0.271708 0.941239 0.440682 -0.137755
C29   C     C_R   0.345537 0.009272 0.463110 -0.182554
C30   C     C_R   0.447257 0.973894 0.501664 0.088780
C31   C     C_R   0.467059 0.870949 0.521699 0.091411
C32   C     C_R   0.530016 0.037059 0.521089 0.083133
C33   C     C_R   0.622182 0.002469 0.566716 0.175744
C34   C     C_R   0.499106 0.499729 0.389410 0.865434
C35   C     C_R   0.631690 0.905086 0.591872 -0.241423
C36   C     C_R   0.554854 0.840050 0.569731 -0.198010
C37   C     C_R   0.524218 0.133471 0.495706 -0.244921
C38   C     C_R   0.688667 0.166857 0.564756 -0.195134
C39   C     C_R   0.399180 0.800979 0.492503 -0.114678
C40   C     C_R   0.089763 0.341734 0.421726 -0.304244
C41   C     C_R   0.801309 0.624877 0.572158 -0.064688
C42   C     C_R   0.909318 0.640327 0.594152 -0.318950
C43   C     C_R   0.993174 0.584465 0.572049 0.500578
C44   C     C_R   0.966338 0.520730 0.522617 -0.127717
C45   C     C_R   0.474122 0.420746 0.114249 0.501146
C46   C     C_R   0.855706 0.501703 0.505189 0.178961
C47   C     C_R   0.044218 0.471306 0.491824 -0.007228
C48   C     C_R   0.013428 0.394217 0.450657 0.194577
C49   C     C_R   0.906449 0.371048 0.438166 -0.284574
C50   C     C_R   0.828449 0.425430 0.464216 -0.180473
C51   C     C_R   0.150556 0.497766 0.498168 -0.041344
C52   C     C_R   0.195284 0.367617 0.432649 0.009036
C53   C     C_R   0.502719 0.597472 0.120846 0.502581
C54   C     C_R   0.504337 0.601279 0.061365 -0.016057
C55   C     C_R   0.490415 0.511968 0.028115 -0.022225
C56   C     C_R   0.474432 0.420942 0.054549 -0.014504
H1    H     H_    0.530820 0.761203 0.059311 0.193620
H2    H     H_    0.669889 0.514177 0.337665 0.168227
H3    H     H_    0.322770 0.486433 0.299907 0.164454
H4    H     H_    0.319025 0.490895 0.194840 0.143604
H5    H     H_    0.745622 0.219065 0.584260 0.157198
H6    H     H_    0.699376 0.878557 0.628067 0.147201
H7    H     H_    0.772279 0.041706 0.622485 0.141619
H8    H     H_    0.460093 0.160662 0.458297 0.141291
H9    H     H_    0.245700 0.784051 0.431769 0.160978
H10   H     H_    0.319677 0.089168 0.450740 0.130494
H11   H     H_    0.194542 0.968990 0.411091 0.145831
H12   H     H_    0.535628 0.763812 0.956038 0.192991
H13   H     H_    0.563820 0.765663 0.590999 0.156339
H14   H     H_    0.255980 0.326972 0.411338 0.130399
H15   H     H_    0.882157 0.312142 0.406982 0.157040
H16   H     H_    0.067965 0.281553 0.390983 0.145906
H17   H     H_    0.178144 0.561412 0.523964 0.190655
H18   H     H_    0.737209 0.663957 0.591513 0.156971
H19   H     H_    0.928615 0.690903 0.630788 0.167950
H20   H     H_    0.747633 0.404645 0.452170 0.210448
H21   H     H_    0.451867 0.264467 0.937071 0.193482
H22   H     H_    0.447760 0.261677 0.040398 0.193456
H23   H     H_    0.661302 0.422310 0.803889 0.140240
H24   H     H_    0.661226 0.414899 0.698625 0.148486
H25   H     H_    0.345685 0.604316 0.659617 0.172227
H26   H     H_    0.347059 0.611903 0.765026 0.143710
H27   H     H_    0.664100 0.517995 0.232449 0.142066
N1    N     N_R   0.488574 0.507999 0.145884 -0.358651
N2    N     N_R   0.500530 0.515855 0.851343 -0.357854
N3    N     N_R   0.222200 0.444670 0.469780 -0.113566
N4    N     N_R   0.776960 0.554790 0.529910 -0.121161
O1    O     O_R   0.366740 0.627150 0.485570 -0.616459
O2    O     O_2   0.514957 0.682290 0.153522 -0.554108
O3    O     O_2   0.530306 0.689273 0.856505 -0.557143
O4    O     O_2   0.469074 0.342918 0.843105 -0.565578
O5    O     O_R   0.544830 0.662520 0.504870 -0.604589
O6    O     O_R   0.410930 0.482340 0.574190 -0.613856
O7    O     O_R   0.589010 0.517710 0.593490 -0.624477
O8    O     O_R   0.455170 0.337480 0.495130 -0.610096
O9    O     O_R   0.633260 0.372850 0.514430 -0.637524
O10   O     O_R   0.410990 0.482290 0.406510 -0.619267
O11   O     O_R   0.589070 0.517660 0.425810 -0.631016
O12   O     O_2   0.460862 0.333959 0.140774 -0.558128
Zn1   Zn    Zn3+2 0.381090 0.476380 0.487110 0.945278
Zn2   Zn    Zn3+2 0.618910 0.523620 0.512890 0.936299
O13   O     O_3   0.099722 0.586724 0.602962 -0.672490
C57   C     C_3   0.136069 0.496353 0.638397 0.068968
H28   H     H_    0.224218 0.473439 0.638810 0.183600
H29   H     H_    0.094343 0.428692 0.621393 0.130418
C58   C     C_3   0.123139 0.517873 0.701159 -0.380114
H30   H     H_    0.160927 0.587578 0.717046 0.232407
H31   H     H_    0.034496 0.532616 0.701739 0.220178
C59   C     C_3   0.177225 0.427275 0.742438 -0.888150
H32   H     H_    0.137938 0.357575 0.728294 0.262926
H33   H     H_    0.167649 0.445846 0.787625 0.266753
H34   H     H_    0.266220 0.411091 0.742945 0.288947

loop_
_geom_bond_atom_site_label_1
_geom_bond_atom_site_label_2
_ccdc_geom_bond_type
C30   C32   A    
C55   C56   A    
C10   N2    A    
C41   C42   A    
C3    H12   S    
C8    C56   A    
C2    H1    S    
C7    C8    A    
C15   H25   S    
C53   C54   A    
C42   H19   S    
C53   N1    A    
C18   C24   A    
C28   C29   A    
C21   H3    S    
C59   H33   S    
C22   H4    S    
C5    C6    A    
C33   C35   A    
C58   H30   S    
C15   C16   A    
C34   O10   A    
C23   O9    A    
C18   C19   A    
C25   H7    S    
C23   C26   S    
C9    N2    A    
C41   H18   S    
N4    Zn2   S    
C19   C20   A    
O7    Zn2   S    
C27   C39   A    
C16   C17   A    
C35   H6    S    
N3    Zn1   S    
C44   C47   A    
C7    H21   S    
C38   H5    S    
C20   C34   S    
C1    O1    A    
C13   H24   S    
C13   C14   A    
C8    H22   S    
C12   O7    A    
C51   N3    A    
C44   C46   A    
C19   H2    S    
C41   N4    A    
C28   H11   S    
O9    Zn2   S    
C45   C56   A    
C45   O12   S    
C59   H34   S    
O8    Zn1   S    
C26   C38   A    
C47   C51   A    
C40   C52   A    
C35   C36   A    
C43   C44   A    
C29   C30   A    
C27   H9    S    
C50   H20   S    
C25   C38   A    
C47   C48   A    
C16   H26   S    
C18   H27   S    
C57   H29   S    
C32   C37   A    
O6    Zn1   S    
O1    Zn1   S    
C11   H23   S    
O5    Zn2   S    
C48   C49   A    
C12   C14   S    
C10   O4    S    
C1    O5    A    
C2    C54   A    
C17   N2    S    
C12   O6    A    
C45   N1    A    
C42   C43   A    
C3    C4    A    
C57   H28   S    
C37   H8    S    
C36   H13   S    
C46   N4    A    
C40   C48   A    
C54   C55   A    
C11   C17   A    
O10   Zn1   S    
C40   H16   S    
C31   C36   A    
C5    C55   A    
C51   H17   S    
C4    C5    A    
C9    O3    S    
C6    C10   A    
C26   C37   A    
C6    C7    A    
O11   Zn2   S    
C46   C50   A    
C32   C33   A    
C52   N3    A    
C2    C3    A    
C24   N1    S    
C43   O13   S    
C59   H32   S    
C53   O2    S    
C11   C13   A    
C30   C31   A    
C58   H31   S    
C34   O11   A    
C23   O8    A    
C57   C58   S    
C22   C24   A    
O13   C57   S    
C52   H14   S    
C1    C39   S    
C29   H10   S    
C20   C21   A    
C49   C50   A    
C49   H15   S    
C27   C28   A    
C31   C39   A    
C14   C15   A    
C4    C9    A    
C21   C22   A    
C25   C33   A    
C58   C59   S    
