data_mof_unit_36223.cif
_audit_creation_date              2012-12-10T18:44:57-0500
_audit_creation_method            fapswitch 2.2
_symmetry_space_group_name_H-M    P1
_symmetry_Int_Tables_number       1
_space_group_crystal_system       triclinic
_cell_length_a                    19.44314
_cell_length_b                    18.102836
_cell_length_c                    10.94736
_cell_angle_alpha                 90.428735
_cell_angle_beta                  89.731406
_cell_angle_gamma                 89.791883
_cell_volume                      3853.03158015

loop_
_atom_site_label
_atom_site_type_symbol
_atom_type_description
_atom_site_fract_x
_atom_site_fract_y
_atom_site_fract_z
_atom_type_partial_charge
C1    C     C_R   0.367573 0.500157 0.502585 0.830689
C2    C     C_R   0.632316 0.500005 0.499791 0.809685
C3    C     C_R   0.851563 0.505591 0.515840 0.038908
C4    C     C_R   0.147889 0.505330 0.523686 0.044952
C5    C     C_R   0.811563 0.550263 0.593833 -0.170178
C6    C     C_R   0.184143 0.562123 0.465758 -0.173008
C7    C     C_R   0.740063 0.548536 0.586784 -0.287400
C8    C     C_R   0.255650 0.560260 0.460252 -0.278798
C9    C     C_R   0.707450 0.500661 0.504264 -0.121063
C10   C     C_R   0.292181 0.500716 0.509825 -0.126691
C11   C     C_R   0.963388 0.572211 0.541044 -0.180007
C12   C     C_R   0.035126 0.572100 0.543148 -0.181690
C13   C     C_R   0.071941 0.505820 0.526478 0.129941
C14   C     C_R   0.927348 0.505979 0.522936 0.129650
C15   C     C_R   0.035715 0.439603 0.509835 -0.179458
C16   C     C_R   0.964232 0.439616 0.508993 -0.181892
C17   C     C_R   0.445842 0.721299 0.549535 -0.079165
C18   C     C_R   0.554275 0.720531 0.451114 -0.058946
C19   C     C_R   0.443323 0.799458 0.547572 0.390762
C20   C     C_R   0.557543 0.798829 0.455463 0.423193
C21   C     C_R   0.500831 0.838369 0.503585 0.016824
C22   C     C_R   0.505996 0.499956 0.262235 0.873801
C23   C     C_R   0.499703 0.500528 0.738506 0.836246
C24   C     C_R   0.510588 0.961947 0.611836 0.424202
C25   C     C_R   0.487919 0.959570 0.393702 0.392913
C26   C     C_R   0.505338 0.039765 0.610531 -0.247405
C27   C     C_R   0.487885 0.037358 0.392477 -0.254273
C28   C     C_R   0.496268 0.078355 0.500992 0.089885
C29   C     C_R   0.500231 0.921171 0.503185 0.035798
C30   C     C_R   0.444420 0.201691 0.442230 0.275226
C31   C     C_R   0.551698 0.200260 0.555230 0.291580
C32   C     C_R   0.447224 0.279994 0.444734 -0.042864
C33   C     C_R   0.551516 0.278125 0.554607 -0.053020
C34   C     C_R   0.497037 0.161316 0.500260 -0.003918
C35   C     C_R   0.536118 0.636518 0.117858 -0.225905
C36   C     C_R   0.470775 0.635589 0.893461 -0.272668
C37   C     C_R   0.521817 0.703615 0.061493 0.393676
C38   C     C_R   0.481079 0.703222 0.955093 0.349844
C39   C     C_R   0.496320 0.568435 0.941542 -0.018422
C40   C     C_R   0.516655 0.568563 0.064277 -0.057743
C41   C     C_R   0.516023 0.500715 0.128412 -0.239827
C42   C     C_R   0.504305 0.501779 0.872898 -0.241445
C43   C     C_R   0.520900 0.433733 0.061916 0.353206
C44   C     C_R   0.525024 0.436576 0.933964 0.353445
C45   C     C_R   0.746987 0.454696 0.426993 0.499520
C46   C     C_R   0.256352 0.442748 0.566999 0.490123
C47   C     C_R   0.818833 0.459696 0.430424 -0.257897
C48   C     C_R   0.184453 0.446775 0.576423 -0.259772
Cu1   Cu    Cu3+1 0.500000 0.573360 0.500000 0.928638
Cu2   Cu    Cu3+1 0.500000 0.426640 0.500000 0.995634
H1    H     H_    0.404325 0.690415 0.590026 0.141748
H2    H     H_    0.595030 0.688697 0.408921 0.147333
H3    H     H_    0.509017 0.070248 0.695762 0.181248
H4    H     H_    0.481004 0.065593 0.306499 0.175284
H5    H     H_    0.406851 0.312172 0.403492 0.146445
H6    H     H_    0.592721 0.308191 0.597533 0.151762
H7    H     H_    0.565690 0.638348 0.201104 0.181697
H8    H     H_    0.441731 0.636663 0.810048 0.173007
H9    H     H_    0.849065 0.428051 0.365064 0.143043
H10   H     H_    0.157189 0.404649 0.626655 0.138387
H11   H     H_    0.835466 0.585939 0.661013 0.138252
H12   H     H_    0.157231 0.607506 0.423052 0.136538
H13   H     H_    0.710012 0.583669 0.647460 0.158925
H14   H     H_    0.282456 0.604896 0.415219 0.164171
H15   H     H_    0.936232 0.624234 0.551179 0.125225
H16   H     H_    0.061740 0.623827 0.557756 0.124500
H17   H     H_    0.062613 0.387788 0.495155 0.124536
H18   H     H_    0.937779 0.387538 0.496982 0.123205
N1    N     N_R   0.500000 0.683620 0.500000 -0.218321
N2    N     N_R   0.500000 0.316380 0.500000 -0.202666
O1    O     O_R   0.400190 0.561980 0.499980 -0.603468
O2    O     O_R   0.599810 0.561980 0.500020 -0.601005
O3    O     O_R   0.400190 0.438070 0.500040 -0.548220
O4    O     O_R   0.599810 0.438070 0.499960 -0.584785
O5    O     O_R   0.500000 0.561970 0.319650 -0.595374
O6    O     O_R   0.500000 0.561970 0.680350 -0.596073
O7    O     O_R   0.500010 0.438060 0.319710 -0.527215
O8    O     O_R   0.499990 0.438060 0.680290 -0.522038
O9    O     O_3   0.512728 0.366621 0.121280 -0.559167
C49   C     C_3   0.572456 0.322276 0.112118 0.148015
H19   H     H_    0.620728 0.355428 0.111542 0.142605
H20   H     H_    0.569317 0.286918 0.029278 0.205823
C50   C     C_3   0.575149 0.270086 0.219850 -0.839797
H21   H     H_    0.527110 0.237516 0.225173 0.238740
H22   H     H_    0.618909 0.231028 0.208671 0.181307
H23   H     H_    0.581919 0.302263 0.305305 0.274247
O10   O     O_3   0.549836 0.375615 0.870210 -0.561876
C51   C     C_3   0.619959 0.388050 0.839209 0.041006
H24   H     H_    0.647635 0.423650 0.906682 0.114512
H25   H     H_    0.623096 0.415371 0.748947 0.165603
C52   C     C_3   0.658727 0.314726 0.830734 -0.839103
H26   H     H_    0.625489 0.270781 0.792270 0.286589
H27   H     H_    0.704925 0.320923 0.771682 0.206019
H28   H     H_    0.676068 0.297291 0.922549 0.216487
O11   O     O_3   0.387490 0.839747 0.592267 -0.572079
C53   C     C_3   0.324249 0.808924 0.555110 -0.389926
H29   H     H_    0.308854 0.763435 0.616783 0.161490
H30   H     H_    0.325285 0.789513 0.458376 0.158010
H31   H     H_    0.284018 0.852343 0.562392 0.196578
O12   O     O_3   0.612247 0.839044 0.407555 -0.564691
C54   C     C_3   0.676062 0.802527 0.420694 -0.380328
H32   H     H_    0.683470 0.760730 0.347013 0.175717
H33   H     H_    0.681812 0.776976 0.512353 0.157126
H34   H     H_    0.717651 0.843865 0.410918 0.191585
O13   O     O_3   0.520682 0.925048 0.720698 -0.566846
C55   C     C_3   0.585947 0.942512 0.770168 0.072302
H35   H     H_    0.581459 0.941673 0.870943 0.157469
H36   H     H_    0.605389 0.998596 0.747352 0.151745
C56   C     C_3   0.639054 0.885127 0.730362 -0.860117
H37   H     H_    0.651726 0.892944 0.632520 0.263386
H38   H     H_    0.686749 0.891964 0.784610 0.204478
H39   H     H_    0.618730 0.828511 0.743950 0.258798
O14   O     O_3   0.476804 0.920730 0.286647 -0.560540
C57   C     C_3   0.405283 0.910066 0.271049 0.065906
H40   H     H_    0.386015 0.950413 0.203275 0.146301
H41   H     H_    0.374062 0.916780 0.356464 0.153629
C58   C     C_3   0.393015 0.832425 0.222336 -0.769667
H42   H     H_    0.412037 0.790871 0.288164 0.247490
H43   H     H_    0.337224 0.823652 0.206933 0.176881
H44   H     H_    0.420917 0.824669 0.134994 0.294612
O15   O     O_3   0.388305 0.163154 0.396001 -0.578893
C59   C     C_3   0.364466 0.193002 0.284950 0.058249
H45   H     H_    0.407352 0.211892 0.225137 0.151203
H46   H     H_    0.328643 0.239707 0.303798 0.139675
C60   C     C_3   0.325152 0.133738 0.215547 -0.789655
H47   H     H_    0.281529 0.113549 0.271870 0.247270
H48   H     H_    0.304723 0.156867 0.129273 0.207467
H49   H     H_    0.359904 0.086705 0.193164 0.233732
O16   O     O_3   0.602780 0.161649 0.615308 -0.590091
C61   C     C_3   0.666167 0.170129 0.553778 0.048508
H50   H     H_    0.691207 0.222045 0.584492 0.135195
H51   H     H_    0.660367 0.170564 0.452305 0.134933
C62   C     C_3   0.712927 0.105728 0.586118 -0.789710
H52   H     H_    0.689157 0.052900 0.556299 0.250217
H53   H     H_    0.763414 0.111916 0.539553 0.195102
H54   H     H_    0.721188 0.104305 0.686405 0.245036
O17   O     O_3   0.542393 0.767761 0.121193 -0.572860
C63   C     C_3   0.575105 0.817014 0.040091 0.151603
H55   H     H_    0.536522 0.856955 0.005686 0.211289
H56   H     H_    0.600945 0.788418 0.961626 0.122580
C64   C     C_3   0.629727 0.860492 0.108309 -0.765199
H57   H     H_    0.668657 0.822167 0.146302 0.243261
H58   H     H_    0.655896 0.898971 0.044913 0.173267
H59   H     H_    0.605760 0.893180 0.183415 0.311511
O18   O     O_3   0.457664 0.769446 0.907317 -0.587741
C65   C     C_3   0.385568 0.767905 0.891505 0.069530
H60   H     H_    0.358673 0.740777 0.969382 0.121742
H61   H     H_    0.372742 0.738443 0.805381 0.150442
C66   C     C_3   0.358540 0.846783 0.882288 -0.702807
H62   H     H_    0.389154 0.878390 0.814993 0.316654
H63   H     H_    0.303896 0.846140 0.853312 0.188627
H64   H     H_    0.361927 0.875522 0.971755 0.211963
O19   O     O_3   0.715609 0.411624 0.338656 -0.583248
C67   C     C_3   0.726043 0.336451 0.366457 -0.366390
H65   H     H_    0.711382 0.302772 0.286053 0.188416
H66   H     H_    0.692889 0.320579 0.444620 0.158764
H67   H     H_    0.780634 0.322372 0.385977 0.146652
O20   O     O_3   0.292481 0.386758 0.624289 -0.569545
C68   C     C_3   0.275314 0.317953 0.571358 -0.278332
H68   H     H_    0.314007 0.276480 0.600145 0.207118
H69   H     H_    0.276415 0.319649 0.469651 0.133790
H70   H     H_    0.224351 0.298814 0.604357 0.149330

loop_
_geom_bond_atom_site_label_1
_geom_bond_atom_site_label_2
_ccdc_geom_bond_type
O10   C51   S    
C26   H3    S    
C17   N1    A    
C54   H32   S    
C62   H52   S    
C58   H42   S    
O13   C55   S    
O11   C53   S    
C23   O6    A    
C17   H1    S    
C58   H43   S    
C57   H40   S    
C27   H4    S    
C18   H2    S    
C9    C45   A    
C1    O1    A    
C23   C42   S    
C55   H36   S    
C35   C37   A    
C24   C26   A    
O14   C57   S    
C31   C34   A    
C36   H8    S    
C64   H58   S    
O18   C65   S    
C11   C14   A    
C22   C41   S    
C55   H35   S    
C43   O9    S    
C15   C16   A    
C46   O20   S    
C53   H31   S    
C18   C20   A    
C3    C47   A    
C4    C13   S    
C24   C29   A    
C56   H38   S    
C68   H68   S    
Cu1   O2    S    
C53   H30   S    
C10   C46   A    
C62   H54   S    
C31   C33   A    
C16   H18   S    
C44   O10   S    
C32   H5    S    
C67   H66   S    
C2    O4    A    
C51   H24   S    
C18   N1    A    
C28   C34   S    
C54   H33   S    
C37   O17   S    
C41   C43   A    
C42   C44   A    
C22   O5    A    
C49   C50   S    
C2    O2    A    
Cu2   O8    S    
C48   H10   S    
C39   C42   A    
C65   H61   S    
C45   C47   A    
C25   C29   A    
C46   C48   A    
C68   H70   S    
C30   C34   A    
C67   H67   S    
C4    C6    A    
C56   H39   S    
C52   H26   S    
C5    C7    A    
C6    C8    A    
C21   C29   S    
C61   H51   S    
C43   C44   A    
C38   O18   S    
C37   C38   A    
C25   O14   S    
C52   H27   S    
C65   C66   S    
C57   H41   S    
C50   H21   S    
C20   O12   S    
C30   O15   S    
C15   H17   S    
C53   H29   S    
C68   H69   S    
O15   C59   S    
Cu1   O6    S    
C5    H11   S    
C20   C21   A    
Cu2   O4    S    
C7    H13   S    
Cu1   O5    S    
C3    C14   S    
C63   H56   S    
C33   N2    A    
C8    H14   S    
C66   H64   S    
C49   H20   S    
C40   C41   A    
C50   H22   S    
C51   H25   S    
C54   H34   S    
C13   C15   A    
C60   H47   S    
C14   C16   A    
C58   H44   S    
C61   C62   S    
C45   O19   S    
C59   H46   S    
Cu2   O7    S    
C39   C40   A    
C19   O11   S    
C60   H48   S    
O16   C61   S    
C4    C48   A    
C7    C9    A    
C19   C21   A    
C36   C39   A    
C1    C10   S    
C22   O7    A    
C49   H19   S    
C3    C5    A    
C63   C64   S    
C32   N2    A    
C11   C12   A    
C64   H59   S    
C25   C27   A    
O17   C63   S    
C26   C28   A    
C35   H7    S    
C1    O3    A    
C6    H12   S    
C59   C60   S    
C66   H63   S    
C61   H50   S    
Cu2   N2    S    
C31   O16   S    
C64   H57   S    
C52   H28   S    
C30   C32   A    
O20   C68   S    
C51   C52   S    
C12   H16   S    
C33   H6    S    
C60   H49   S    
Cu2   O3    S    
C36   C38   A    
O12   C54   S    
C17   C19   A    
C35   C40   A    
C65   H60   S    
C23   O8    A    
C57   C58   S    
C63   H55   S    
C47   H9    S    
O9    C49   S    
C67   H65   S    
C50   H23   S    
C12   C13   A    
C8    C10   A    
Cu1   Cu2   S    
Cu1   O1    S    
C56   H37   S    
C27   C28   A    
C62   H53   S    
Cu1   N1    S    
C24   O13   S    
C59   H45   S    
C66   H62   S    
C2    C9    S    
C11   H15   S    
O19   C67   S    
C55   C56   S    
