data_mof_unit_7494.cif
_audit_creation_date              2012-10-26T20:51:10-0400
_audit_creation_method            fapswitch 2.2
_symmetry_space_group_name_H-M    P1
_symmetry_Int_Tables_number       1
_space_group_crystal_system       triclinic
_cell_length_a                    13.036505
_cell_length_b                    10.860834
_cell_length_c                    9.56932
_cell_angle_alpha                 91.19154
_cell_angle_beta                  95.574409
_cell_angle_gamma                 91.307643
_cell_volume                      1347.77513426

loop_
_atom_site_label
_atom_site_type_symbol
_atom_type_description
_atom_site_fract_x
_atom_site_fract_y
_atom_site_fract_z
_atom_type_partial_charge
C1    C     C_R   0.496761 0.262601 0.498313 0.545635
C2    C     C_R   0.465398 0.932213 0.371785 -0.174083
C3    C     C_R   0.488610 0.871118 0.499283 0.015844
C4    C     C_R   0.301017 0.496848 0.474402 0.538763
C5    C     C_R   0.497680 0.941090 0.623955 0.020557
C6    C     C_3   0.579672 0.946899 0.745335 0.157178
C7    C     C_3   0.574600 0.086899 0.744510 -0.229623
C8    C     C_R   0.519513 0.606613 0.079179 0.155080
C9    C     C_R   0.467177 0.399396 0.067609 -0.012323
C10   C     C_R   0.465810 0.400009 0.918923 -0.017352
C11   C     C_R   0.526329 0.604060 0.932953 0.152261
C12   C     C_R   0.028390 0.498181 0.566299 -0.037291
C13   C     C_3   0.630104 0.667056 0.955369 -0.279213
C14   C     C_3   0.612881 0.686731 0.108194 -0.299196
C15   C     C_R   0.498493 0.737838 0.500586 0.568032
C16   C     C_R   0.699328 0.491834 0.525664 0.588183
C17   C     C_R   0.812666 0.480010 0.541533 -0.040162
C18   C     C_R   0.189332 0.483368 0.460997 -0.008160
C19   C     C_R   0.031556 0.408826 0.331384 -0.109078
C20   C     C_R   0.137578 0.428022 0.340332 -0.143249
C21   C     C_R   0.135150 0.515632 0.574675 -0.110515
C22   C     C_3   0.812153 0.474430 0.194132 -0.094953
C23   C     C_R   0.974885 0.450266 0.440248 -0.004694
C24   C     C_3   0.729986 0.949675 0.618033 -0.109026
C25   C     C_3   0.809321 0.376735 0.835373 -0.099121
C26   C     C_3   0.019107 0.679149 0.840401 -0.114069
C27   C     C_R   0.866280 0.444776 0.426245 0.200410
C28   C     C_R   0.868508 0.502197 0.674082 0.232769
C29   C     C_R   0.975143 0.522626 0.683902 0.262640
C30   C     C_R   0.495139 0.068027 0.622325 -0.034461
C31   C     C_R   0.485848 0.129693 0.495997 0.005875
C32   C     C_R   0.464507 0.061045 0.370037 -0.163740
Cu1   Cu    Cu3+1 0.499990 0.499980 0.640670 0.967861
Cu2   Cu    Cu3+1 0.500010 0.500020 0.359330 0.951149
H1    H     H_    0.540583 0.125424 0.837598 0.090585
H2    H     H_    0.451605 0.106349 0.270338 0.123896
H3    H     H_    0.452273 0.881237 0.272972 0.131758
H4    H     H_    0.548602 0.910769 0.840678 0.103574
H5    H     H_    0.868411 0.446637 0.120916 0.127471
H6    H     H_    0.828540 0.572705 0.226593 0.099260
H7    H     H_    0.735366 0.466367 0.133977 0.149091
H8    H     H_    0.780316 0.024706 0.669406 0.111843
H9    H     H_    0.680400 0.985189 0.527693 0.127621
H10   H     H_    0.781172 0.881259 0.574941 0.132401
H11   H     H_    0.592469 0.782974 0.133452 0.119196
H12   H     H_    0.643960 0.138890 0.717947 0.126028
H13   H     H_    0.884306 0.342847 0.883074 0.134384
H14   H     H_    0.778744 0.314391 0.746224 0.099655
H15   H     H_    0.752698 0.371072 0.914183 0.122372
H16   H     H_    0.937811 0.702978 0.852401 0.162818
H17   H     H_    0.049835 0.735295 0.756973 0.094963
H18   H     H_    0.065425 0.703734 0.940947 0.136094
H19   H     H_    0.179417 0.396493 0.254451 0.133546
H20   H     H_    0.442091 0.317079 0.117381 0.110313
H21   H     H_    0.438430 0.318575 0.858700 0.119480
H22   H     H_    0.693461 0.603294 0.940461 0.187496
H23   H     H_    0.636257 0.753172 0.900063 0.189669
H24   H     H_    0.671518 0.649470 0.185201 0.152443
H25   H     H_    0.995433 0.359767 0.239777 0.145078
H26   H     H_    0.176581 0.554239 0.669832 0.171591
N1    N     N_R   0.500660 0.500930 0.148010 -0.231261
N2    N     N_R   0.500660 0.500890 0.852110 -0.231982
O1    O     O_R   0.500000 0.319640 0.618810 -0.520693
O2    O     O_3   0.674203 0.890788 0.718469 -0.569911
O3    O     O_3   0.820026 0.500806 0.796012 -0.555571
O4    O     O_3   0.028499 0.552062 0.812888 -0.559898
O5    O     O_R   0.500010 0.319680 0.381230 -0.512212
O6    O     O_R   0.348990 0.499960 0.599490 -0.509819
O7    O     O_R   0.349000 0.500000 0.361910 -0.503685
O8    O     O_R   0.499990 0.680320 0.618770 -0.483082
O9    O     O_R   0.500000 0.680360 0.381190 -0.518250
O10   O     O_R   0.651000 0.500000 0.638090 -0.455813
O11   O     O_R   0.651010 0.500040 0.400510 -0.473829
O12   O     O_3   0.812285 0.392547 0.306873 -0.558552

loop_
_geom_bond_atom_site_label_1
_geom_bond_atom_site_label_2
_ccdc_geom_bond_type
C12   C29   A    
C18   C21   A    
C24   H8    S    
C19   C20   A    
C16   O10   A    
C11   N2    A    
C12   C23   A    
C9    N1    A    
C32   H2    S    
C28   C29   A    
C26   H16   S    
C5    C6    S    
C22   H7    S    
C13   H23   S    
C1    C31   S    
C2    C32   A    
C6    O2    S    
Cu1   O10   S    
C16   C17   S    
C6    H4    S    
C23   C27   A    
C27   O12   S    
C9    C10   A    
C25   H13   S    
C8    N1    A    
C13   H22   S    
C4    C18   S    
C24   O2    S    
C7    C30   S    
C13   C14   S    
C10   N2    A    
C1    O1    A    
C4    O7    A    
C14   H11   S    
C14   H24   S    
C16   O11   A    
C17   C27   A    
C7    H12   S    
C25   O3    S    
C21   H26   S    
C4    O6    A    
Cu1   N2    S    
C19   H25   S    
C12   C21   A    
Cu2   N1    S    
C26   O4    S    
C19   C23   A    
C26   H18   S    
C31   C32   A    
Cu2   O7    S    
Cu1   O1    S    
C22   H6    S    
Cu1   Cu2   S    
C10   H21   S    
C25   H14   S    
Cu1   O8    S    
C24   H10   S    
C22   O12   S    
C3    C15   S    
C5    C30   A    
C15   O8    A    
C8    C14   S    
C17   C28   A    
C7    H1    S    
C20   H19   S    
C3    C5    A    
Cu2   O5    S    
C6    C7    S    
C15   O9    A    
C2    C3    A    
C26   H17   S    
C11   C13   S    
C2    H3    S    
C30   C31   A    
C8    C11   A    
C22   H5    S    
C1    O5    A    
C28   O3    S    
C18   C20   A    
C25   H15   S    
Cu2   O11   S    
C29   O4    S    
C24   H9    S    
C9    H20   S    
Cu2   O9    S    
Cu1   O6    S    
