data_mof_unit_6216.cif
_audit_creation_date              2012-12-11T17:22:50-0500
_audit_creation_method            fapswitch 2.2
_symmetry_space_group_name_H-M    P1
_symmetry_Int_Tables_number       1
_space_group_crystal_system       triclinic
_cell_length_a                    8.304577
_cell_length_b                    16.534132
_cell_length_c                    27.039452
_cell_angle_alpha                 96.4283
_cell_angle_beta                  92.032764
_cell_angle_gamma                 86.530006
_cell_volume                      3681.11091249

loop_
_atom_site_label
_atom_site_type_symbol
_atom_type_description
_atom_site_fract_x
_atom_site_fract_y
_atom_site_fract_z
_atom_type_partial_charge
Ba1   Ba    Ba6+2 0.851940 0.461560 0.523510 1.705094
Ba2   Ba    Ba6+2 0.337880 0.538370 0.476480 1.677791
C1    C     C_3   0.648709 0.173734 0.656825 -0.371735
C2    C     C_R   0.908063 0.575770 0.179605 0.609684
C3    C     C_2   0.745220 0.525534 0.270246 -0.013782
C4    C     C_3   0.149085 0.266152 0.657170 0.292141
C5    C     C_3   0.696620 0.518204 0.323137 -0.068349
C6    C     C_1   0.980163 0.485785 0.343478 0.037214
C7    C     C_2   0.023330 0.486219 0.296436 -0.096317
C8    C     C_2   0.900796 0.507963 0.256706 0.207632
C9    C     C_R   0.027118 0.506809 0.103530 -0.077357
C10   C     C_R   0.067475 0.438693 0.129438 -0.031014
C11   C     C_R   0.147405 0.370166 0.104112 -0.057152
C12   C     C_3   0.650028 0.255992 0.636805 0.312935
C13   C     C_R   0.947160 0.575776 0.129027 -0.048659
C14   C     C_2   0.841205 0.520869 0.358778 -0.273445
C15   C     C_2   0.352120 0.485164 0.642725 -0.291118
C16   C     C_3   0.111002 0.244648 0.708503 -0.383638
C17   C     C_R   0.184807 0.434630 0.975441 0.019870
C18   C     C_R   0.061824 0.574211 0.975175 0.020483
C19   C     C_R   0.142196 0.503929 0.949872 0.051548
C20   C     C_R   0.264375 0.366350 0.948312 -0.098180
C21   C     C_R   0.300814 0.366166 0.898372 -0.059185
C22   C     C_R   0.260133 0.433947 0.872764 -0.030992
C23   C     C_3   0.519726 0.668245 0.627306 0.241448
C24   C     C_R   0.180520 0.502970 0.898393 -0.076646
C25   C     C_R   0.139569 0.571103 0.872544 -0.041303
C26   C     C_R   0.179706 0.569717 0.821883 0.594392
C27   C     C_R   0.297687 0.433871 0.822002 0.581184
C28   C     C_3   0.180160 0.289433 0.415206 0.298344
C29   C     C_2   0.455470 0.484092 0.730456 -0.066027
C30   C     C_3   0.501065 0.489758 0.677043 -0.103532
C31   C     C_1   0.213675 0.520160 0.658318 -0.033850
C32   C     C_2   0.174694 0.522265 0.705817 -0.063659
C33   C     C_2   0.300551 0.501484 0.744828 0.213157
C34   C     C_3   0.498787 0.701086 0.681976 -0.271179
C35   C     C_R   0.146678 0.435646 0.026841 0.020052
C36   C     C_R   0.066127 0.505902 0.052110 0.053429
C37   C     C_R   0.023797 0.575237 0.026549 0.018588
C38   C     C_R   0.186208 0.368554 0.054236 -0.098461
C39   C     C_R   0.907255 0.643679 0.103470 -0.030866
C40   C     C_3   0.182739 0.197489 0.401797 -0.367804
C41   C     C_R   0.022067 0.641324 0.947830 -0.095521
C42   C     C_R   0.060171 0.639681 0.897939 -0.055585
C43   C     C_R   0.944365 0.643575 0.053636 -0.094219
C44   C     C_R   0.378912 0.262883 0.515378 -0.244297
C45   C     C_3   0.058747 0.770609 0.333119 0.180357
C46   C     C_R   0.527413 0.240093 0.494906 0.020606
C47   C     C_R   0.588407 0.158746 0.494208 -0.136171
C48   C     C_R   0.500305 0.101059 0.515555 0.258683
C49   C     C_R   0.351830 0.127402 0.537736 -0.175755
C50   C     C_R   0.291529 0.208551 0.537430 -0.000407
C51   C     C_R   0.627623 0.853260 0.508399 -0.085657
C52   C     C_3   0.014752 0.707630 0.579393 0.306420
C53   C     C_R   0.670590 0.769716 0.502247 -0.005199
C54   C     C_R   0.723514 0.909296 0.488679 0.256794
C55   C     C_R   0.804900 0.740629 0.474719 -0.267508
C56   C     C_3   0.993121 0.859893 0.334527 -0.284978
C57   C     C_R   0.904983 0.794339 0.455970 -0.033925
C58   C     C_R   0.865428 0.878936 0.463827 -0.191111
C59   C     C_3   0.997300 0.799676 0.592066 -0.349559
C60   C     C_3   0.685512 0.348513 0.373652 0.296609
C61   C     C_3   0.719409 0.313278 0.320301 -0.362044
C62   C     C_2   0.372449 0.770053 0.687221 0.555064
C63   C     C_2   0.147613 0.745091 0.285437 0.583140
C64   C     C_2   0.924770 0.713033 0.331959 0.424403
C65   C     C_2   0.505295 0.902397 0.386076 0.320765
C66   C     C_2   0.456041 0.844235 0.299453 0.600962
C67   C     C_3   0.545002 0.749179 0.365356 0.409432
C68   C     C_2   0.349641 0.423265 0.600219 0.908600
C69   C     C_3   0.551980 0.834172 0.346772 -0.211103
C70   C     C_R   0.025925 0.440034 0.180035 0.584129
H1    H     H_    0.760703 0.256802 0.615144 0.105757
H2    H     H_    0.604539 0.298123 0.300062 0.121901
H3    H     H_    0.542605 0.262520 0.611788 0.020027
H4    H     H_    0.650293 0.124371 0.625375 0.088092
H5    H     H_    0.401061 0.649297 0.611198 0.024522
H6    H     H_    0.606954 0.614405 0.625254 0.046349
H7    H     H_    0.463812 0.651593 0.703203 0.075819
H8    H     H_    0.615196 0.722980 0.698179 0.088657
H9    H     H_    0.538206 0.170664 0.678345 0.122979
H10   H     H_    0.184910 0.280083 0.737181 0.141405
H11   H     H_    0.093862 0.901251 0.335947 0.137969
H12   H     H_    0.235887 0.165711 0.433011 0.067345
H13   H     H_    0.915359 0.869622 0.301168 0.149885
H14   H     H_    0.446563 0.748584 0.391551 0.113387
H15   H     H_    0.678014 0.841814 0.338095 0.044794
H16   H     H_    0.118282 0.332403 0.656404 0.077172
H17   H     H_    0.146933 0.469534 0.286204 0.128365
H18   H     H_    0.180575 0.316761 0.122883 0.125492
H19   H     H_    0.361932 0.312024 0.879768 0.123675
H20   H     H_    0.300859 0.311285 0.964430 0.071808
H21   H     H_    0.652211 0.538289 0.242504 0.100782
H22   H     H_    0.846065 0.697854 0.122016 0.145615
H23   H     H_    0.057808 0.178112 0.393860 0.125069
H24   H     H_    0.960915 0.696863 0.963721 0.074577
H25   H     H_    0.280001 0.252252 0.651250 0.030764
H26   H     H_    0.026690 0.693080 0.879192 0.130012
H27   H     H_    0.908351 0.698748 0.037584 0.076088
H28   H     H_    0.828207 0.546819 0.397231 0.069944
H29   H     H_    0.522672 0.874164 0.529906 0.103913
H30   H     H_    0.700526 0.140469 0.475814 0.120345
H31   H     H_    0.945897 0.921284 0.451556 0.106017
H32   H     H_    0.324459 0.322116 0.510719 0.106165
H33   H     H_    0.981368 0.259667 0.715996 0.145583
H34   H     H_    0.896833 0.684490 0.566460 -0.003976
H35   H     H_    0.138696 0.178588 0.710800 0.126819
H36   H     H_    0.305314 0.307652 0.422453 0.010379
H37   H     H_    0.106494 0.305550 0.448762 0.055279
H38   H     H_    0.256250 0.179554 0.368394 0.132728
H39   H     H_    0.102794 0.693507 0.549358 0.070742
H40   H     H_    0.963689 0.829758 0.558379 0.054776
H41   H     H_    0.113635 0.822836 0.607440 0.123652
H42   H     H_    0.756683 0.164439 0.681391 0.142626
H43   H     H_    0.388170 0.825189 0.670029 -0.000515
H44   H     H_    0.226037 0.689978 0.282641 0.042139
H45   H     H_    0.902528 0.815747 0.620026 0.138281
H46   H     H_    0.913212 0.674127 0.360899 -0.070046
H47   H     H_    0.921748 0.877887 0.367946 0.037345
H48   H     H_    0.657980 0.737160 0.386776 -0.091346
H49   H     H_    0.585288 0.951727 0.395189 0.043625
H50   H     H_    0.346411 0.883298 0.299839 -0.007272
H51   H     H_    0.550140 0.472095 0.757842 0.103880
H52   H     H_    0.247541 0.313049 0.038353 0.072400
H53   H     H_    0.050893 0.537286 0.716515 0.123393
H54   H     H_    0.335822 0.360766 0.605866 -0.519093
H55   H     H_    0.281887 0.084408 0.553938 0.096724
H56   H     H_    0.800126 0.367653 0.392091 0.023853
H57   H     H_    0.838037 0.675987 0.471070 0.061020
H58   H     H_    0.596861 0.401467 0.373615 0.027420
H59   H     H_    0.799765 0.257064 0.320298 0.143128
H60   H     H_    0.780137 0.357274 0.300407 0.070609
N1    N     N_R   0.946712 0.508205 0.204813 -0.435045
N2    N     N_R   0.257955 0.501474 0.796949 -0.428544
N3    N     N_2   0.549931 0.016173 0.513209 -0.216002
N4    N     N_2   0.681546 0.995359 0.492861 -0.233767
O1    O     O_2   0.915540 0.542930 0.617950 -0.472257
O2    O     O_2   0.234928 0.785958 0.467714 -0.438467
O3    O     O_3   0.173882 0.764107 0.372602 -0.625136
O4    O     O_3   0.147530 0.542870 0.557780 -0.466673
O5    O     O_3   0.552080 0.402920 0.475380 -0.441008
O6    O     O_2   0.387280 0.697260 0.523450 -0.455417
O7    O     O_3   0.580565 0.729117 0.602214 -0.658769
O8    O     O_2   0.363044 0.561671 0.328145 -0.498968
O9    O     O_3   0.529518 0.688060 0.325017 -0.546795
O10   O     O_2   0.058034 0.379793 0.201691 -0.595564
O11   O     O_2   0.365092 0.373230 0.800057 -0.600978
O12   O     O_3   0.620658 0.288094 0.397565 -0.639249
O13   O     O_2   0.839911 0.636394 0.201203 -0.503551
O14   O     O_2   0.147015 0.629937 0.800246 -0.561832
O15   O     O_3   0.664390 0.396160 0.588360 -0.467749
O16   O     O_2   0.837266 0.435892 0.672080 -0.499493
O17   O     O_3   0.068068 0.673218 0.622385 -0.601004
O18   O     O_3   0.645905 0.318308 0.676708 -0.591637
O19   O     O_2   0.802410 0.302720 0.476520 -0.467810
O20   O     O_3   0.070880 0.354870 0.564040 -0.467388
O21   O     O_2   0.957917 0.210273 0.528922 -0.487303
O22   O     O_2   0.251849 0.764830 0.710934 -0.530713
O23   O     O_3   0.057321 0.219536 0.621259 -0.604632
O24   O     O_2   0.129330 0.783162 0.249216 -0.548209
O25   O     O_2   0.828239 0.708308 0.296858 -0.502516
O26   O     O_2   0.375632 0.905202 0.406295 -0.545515
O27   O     O_2   0.502081 0.809357 0.259815 -0.477134
O28   O     O_2   0.381234 0.441211 0.559451 -0.552463
O29   O     O_2   0.274150 0.457040 0.382020 -0.461317
O30   O     O_3   0.042160 0.457070 0.442220 -0.492337
O31   O     O_3   0.525310 0.603770 0.411640 -0.488488
O32   O     O_3   0.113735 0.327008 0.374937 -0.629845
O33   O     O_3   0.637620 0.597020 0.524620 -0.459554
O34   O     O_3   0.118810 0.645070 0.435950 -0.472894
P1    P     P_3+3 0.086060 0.566890 0.610430 1.021756
P2    P     P_3+3 0.625290 0.314770 0.461990 1.005800
P3    P     P_3+3 0.094868 0.247741 0.562447 0.975039
P4    P     P_3+3 0.103630 0.433040 0.389570 1.000577
P5    P     P_3+3 0.101882 0.750625 0.431671 0.975768
P6    P     P_3+3 0.665763 0.412439 0.653927 0.989705
P7    P     P_3+3 0.571614 0.699624 0.538061 0.960051
P8    P     P_3+3 0.529435 0.591887 0.346691 1.004823

loop_
_geom_bond_atom_site_label_1
_geom_bond_atom_site_label_2
_ccdc_geom_bond_type
C60   H56   S    
C19   C24   A    
C26   O14   D    
C11   H18   S    
Ba1   O20   S    
C67   O9    S    
C60   H58   S    
O3    P5    S    
C8    N1    S    
C52   O17   S    
C4    O23   S    
N3    N4    D    
O32   P4    S    
C2    O13   D    
C30   P6    S    
C24   C25   A    
C60   C61   S    
C23   H5    S    
C55   H57   S    
C17   C19   A    
C22   C24   A    
C32   C33   S    
C35   C38   A    
C57   P5    S    
C48   N3    S    
C66   C69   S    
C42   H26   S    
C36   C37   A    
C6    P4    S    
C55   C57   A    
O6    P7    D    
C3    C8    D    
C44   C50   A    
C4    H16   S    
C67   C69   S    
Ba1   Ba2   S    
C64   H46   S    
Ba1   O19   S    
C16   H35   S    
C11   C38   A    
C17   C35   A    
C16   H10   S    
C46   P2    S    
C9    C13   A    
C25   C42   A    
C29   C30   S    
C51   H29   S    
C6    C7    D    
C62   O22   D    
O9    P8    S    
C1    H9    S    
C21   C22   A    
C61   H59   S    
C58   H31   S    
C7    C8    S    
Ba2   O30   S    
C45   C64   S    
C65   C69   S    
C66   O27   D    
C37   C43   A    
C68   H54   S    
C27   N2    Am   
C10   C70   A    
C15   C68   S    
C6    C14   D    
C62   H43   S    
C60   O12   S    
C12   O18   S    
C53   P7    S    
C23   O7    S    
C15   C31   D    
C63   O24   D    
C4    C16   S    
C65   H49   S    
C33   N2    S    
O33   P7    S    
C54   N4    S    
O19   P2    D    
O34   P5    S    
C51   C53   A    
C38   H52   S    
C44   C46   A    
O20   P3    S    
O30   P4    S    
C52   H34   S    
C28   H37   S    
C59   H45   S    
C40   H23   S    
C4    H25   S    
C17   C20   A    
C40   H12   S    
C13   C39   A    
C26   N2    Am   
C34   H8    S    
C7    H17   S    
C47   H30   S    
C3    C5    S    
C18   C37   A    
C14   H28   S    
C23   C34   S    
C48   C49   A    
O29   P4    D    
C44   H32   S    
Ba1   P1    S    
O5    P2    S    
C23   H6    S    
C64   O25   D    
C9    C36   A    
C41   C42   A    
C12   H1    S    
C57   C58   A    
C35   C36   A    
C39   H22   S    
O17   P1    S    
C41   H24   S    
C61   H60   S    
C18   C19   A    
C1    H4    S    
Ba1   O4    S    
Ba2   O29   S    
C1    C12   S    
Ba2   O34   S    
C69   H15   S    
C5    C14   S    
C52   C59   S    
O8    P8    D    
O4    P1    S    
C53   C55   A    
C43   H27   S    
Ba2   O6    S    
C63   H44   S    
C21   H19   S    
C66   H50   S    
C31   P1    S    
C56   H13   S    
C25   C26   A    
C18   C41   A    
Ba1   O1    S    
C51   C54   A    
C15   C30   S    
C1    H42   S    
C46   C47   A    
C20   H20   S    
O15   P6    S    
C67   H48   S    
C28   H36   S    
C49   H55   S    
C34   H7    S    
C68   O28   D    
C27   O11   D    
C3    H21   S    
C9    C10   A    
C61   H2    S    
Ba1   P2    S    
O18   P6    S    
Ba2   O4    S    
C12   H3    S    
C2    C13   A    
C40   H38   S    
C16   H33   S    
C28   O32   S    
C49   C50   A    
C56   H11   S    
Ba2   P4    S    
C45   C56   S    
C59   H41   S    
C65   O26   D    
C70   N1    Am   
Ba1   O30   S    
C32   H53   S    
C70   O10   D    
C50   P3    S    
Ba1   O33   S    
C56   H47   S    
O12   P2    S    
C31   C32   D    
C52   H39   S    
Ba1   O15   S    
C29   C33   D    
O7    P7    S    
O1    P1    D    
Ba1   O5    S    
Ba2   O33   S    
C29   H51   S    
O16   P6    D    
C54   C58   A    
C22   C27   A    
O31   P8    S    
C10   C11   A    
C5    P8    S    
C47   C48   A    
O23   P3    S    
C45   O3    S    
O2    P5    D    
Ba2   O5    S    
C39   C43   A    
C20   C21   A    
C28   C40   S    
C34   C62   S    
C59   H40   S    
Ba2   O31   S    
C45   C63   S    
C67   H14   S    
O21   P3    D    
C2    N1    Am   
