data_mof_unit_37011.cif
_audit_creation_date              2012-12-11T15:47:07-0500
_audit_creation_method            fapswitch 2.2
_symmetry_space_group_name_H-M    P1
_symmetry_Int_Tables_number       1
_space_group_crystal_system       triclinic
_cell_length_a                    20.162242
_cell_length_b                    7.25739
_cell_length_c                    13.566272
_cell_angle_alpha                 89.981647
_cell_angle_beta                  103.00956
_cell_angle_gamma                 90.018855
_cell_volume                      1934.13580589

loop_
_atom_site_label
_atom_site_type_symbol
_atom_type_description
_atom_site_fract_x
_atom_site_fract_y
_atom_site_fract_z
_atom_type_partial_charge
O1    O     O_R   0.449560 0.506810 0.599700 -0.534737
O2    O     O_R   0.550440 0.006810 0.400300 -0.534720
O3    O     O_R   0.587960 0.180060 0.595760 -0.545927
O4    O     O_R   0.412040 0.680060 0.404240 -0.545939
C1    C     C_R   0.614901 0.344210 0.617573 0.681741
C2    C     C_R   0.385097 0.844198 0.382432 0.681727
O5    O     O_R   0.452380 0.177430 0.611700 -0.538599
O6    O     O_R   0.547620 0.677430 0.388300 -0.538607
O7    O     O_R   0.413900 0.001890 0.416350 -0.540861
O8    O     O_R   0.586100 0.501890 0.583650 -0.540869
C3    C     C_R   0.436438 0.345655 0.637663 0.685262
C4    C     C_R   0.563562 0.845742 0.362341 0.685264
O9    O     O_3   0.487530 0.337490 0.435890 -0.378984
O10   O     O_3   0.512470 0.837490 0.564110 -0.378962
V1    V     V_3+5 0.502310 0.064660 0.511890 1.408102
V2    V     V_3+5 0.497690 0.564660 0.488110 1.408033
C5    C     C_R   0.609354 0.875369 0.109702 -0.159077
C6    C     C_R   0.390682 0.369275 0.890489 -0.159092
H1    H     H_    0.515827 0.870186 0.160063 0.105624
H2    H     H_    0.484209 0.363893 0.840133 0.105582
H3    H     H_    0.692433 0.890104 0.983798 0.124031
H4    H     H_    0.307624 0.381219 0.016483 0.123990
H5    H     H_    0.583231 0.885221 0.030779 0.114919
H6    H     H_    0.416822 0.376178 0.969502 0.114932
C7    C     C_R   0.603351 0.854174 0.284940 -0.023848
C8    C     C_R   0.396653 0.353654 0.715078 -0.023818
C9    C     C_R   0.931535 0.847448 0.316423 -0.168296
C10   C     C_R   0.068447 0.351119 0.683472 -0.168300
C11   C     C_R   0.896049 0.838818 0.392933 -0.119591
C12   C     C_R   0.103924 0.343832 0.606921 -0.119615
C13   C     C_R   0.825134 0.842311 0.369831 -0.157108
C14   C     C_R   0.174847 0.345821 0.630070 -0.157091
C15   C     C_R   0.787535 0.854685 0.268270 0.076082
C16   C     C_R   0.212464 0.355288 0.731721 0.076083
C17   C     C_R   0.824359 0.863671 0.190134 0.067340
C18   C     C_R   0.175651 0.362458 0.809913 0.067329
C19   C     C_R   0.714799 0.858476 0.241641 0.071248
C20   C     C_R   0.285207 0.357845 0.758385 0.071251
C21   C     C_R   0.680766 0.871345 0.137908 0.140174
C22   C     C_R   0.319261 0.367093 0.862229 0.140181
C23   C     C_R   0.718064 0.880174 0.062959 -0.202262
C24   C     C_R   0.281976 0.374027 0.937238 -0.202226
C25   C     C_R   0.788658 0.876378 0.088437 -0.191281
C26   C     C_R   0.211374 0.371849 0.911714 -0.191252
C27   C     C_R   0.674380 0.849984 0.314255 -0.211055
C28   C     C_R   0.325614 0.351489 0.685704 -0.211041
C29   C     C_R   0.570882 0.866826 0.182898 -0.174583
C30   C     C_R   0.429144 0.362383 0.817240 -0.174584
C31   C     C_R   0.896451 0.859814 0.215413 -0.067606
C32   C     C_R   0.103550 0.360286 0.784582 -0.067577
H7    H     H_    0.986688 0.844450 0.336001 0.103484
H8    H     H_    0.013286 0.349588 0.663847 0.103456
H9    H     H_    0.801545 0.835123 0.433441 0.107766
H10   H     H_    0.198429 0.339742 0.566427 0.107765
H11   H     H_    0.815056 0.883608 0.027307 0.116911
H12   H     H_    0.184984 0.377572 0.972890 0.116879
C33   C     C_R   0.217430 0.023150 0.223388 -0.153548
C34   C     C_R   0.782735 0.523086 0.776183 -0.153470
H13   H     H_    0.193508 0.156029 0.204553 0.119238
H14   H     H_    0.806795 0.655918 0.794660 0.119383
C35   C     C_R   0.282612 0.018707 0.286805 -0.160958
C36   C     C_R   0.717550 0.518663 0.712778 -0.160868
H15   H     H_    0.306566 0.147775 0.314898 0.118037
H16   H     H_    0.693730 0.647690 0.684338 0.118022
C37   C     C_R   0.316158 0.850165 0.313680 -0.038513
C38   C     C_R   0.683838 0.350183 0.686330 -0.038516
C39   C     C_R   0.282705 0.686179 0.275011 -0.158015
C40   C     C_R   0.717129 0.186244 0.725419 -0.158159
C41   C     C_R   0.217525 0.690582 0.211589 -0.156722
C42   C     C_R   0.782313 0.190627 0.788832 -0.156876
H17   H     H_    0.193690 0.561422 0.183409 0.118141
H18   H     H_    0.806013 0.061512 0.817361 0.118066
C43   C     C_R   0.183816 0.859104 0.185038 -0.035557
C44   C     C_R   0.816186 0.359083 0.814954 -0.035562
O11   O     O_R   0.913920 0.203370 0.916260 -0.539781
O12   O     O_R   0.086080 0.703370 0.083740 -0.539719
O13   O     O_R   0.047620 0.535540 0.888290 -0.537837
O14   O     O_R   0.952380 0.035540 0.111710 -0.537891
C45   C     C_R   0.063761 0.368335 0.862390 0.679704
C46   C     C_R   0.936243 0.868250 0.137612 0.679689
O15   O     O_R   0.912040 0.532780 0.904220 -0.545721
O16   O     O_R   0.087960 0.032780 0.095780 -0.545784
O17   O     O_R   0.949550 0.708160 0.099720 -0.534744
O18   O     O_R   0.050450 0.208160 0.900280 -0.534815
C47   C     C_R   0.885409 0.364919 0.883074 0.673793
C48   C     C_R   0.114592 0.864932 0.116921 0.673784
O19   O     O_3   0.012480 0.375300 0.064060 -0.378457
O20   O     O_3   0.987520 0.875300 0.935940 -0.378435
V3    V     V_3+5 0.997690 0.648180 0.988110 1.409990
V4    V     V_3+5 0.002310 0.148180 0.011890 1.409724
H19   H     H_    0.306745 0.553419 0.293788 0.118279
H20   H     H_    0.692952 0.053533 0.706994 0.118380
H21   H     H_    0.696176 0.840093 0.394225 0.093315
H22   H     H_    0.303801 0.344530 0.605643 0.093312
H23   H     H_    0.923739 0.829292 0.471022 0.120716
H24   H     H_    0.076219 0.336624 0.528758 0.120725

loop_
_geom_bond_atom_site_label_1
_geom_bond_atom_site_label_2
_ccdc_geom_bond_type
C34   C36   A    
C38   C40   A    
O12   C48   A    
C9    C11   A    
O1    C3    A    
C27   H21   S    
C32   C45   S    
C2    O7    A    
O3    V1    S    
C21   C23   A    
O14   V4    S    
O5    C3    A    
O13   V3    S    
C5    H5    S    
O18   V4    S    
C6    H6    S    
C45   O18   A    
O14   C46   A    
C33   H13   S    
C34   H14   S    
C35   H15   S    
C5    C21   A    
C33   C43   A    
C41   H17   S    
C6    C22   A    
C36   H16   S    
O11   V4    S    
C15   C17   A    
C10   C32   A    
O11   C47   A    
C2    C37   S    
C37   C39   A    
C42   C44   A    
C12   H24   S    
C13   C15   A    
C41   C43   A    
C12   C14   A    
C17   C25   A    
C7    C29   A    
C16   C18   A    
C8    C30   A    
O12   V3    S    
O15   V3    S    
O5    V1    S    
O2    C4    A    
O6    V2    S    
C23   C25   A    
C24   C26   A    
C46   O17   A    
C14   H10   S    
C9    H7    S    
O13   C45   A    
O17   V3    S    
C36   C38   A    
O4    C2    A    
C11   H23   S    
C3    C8    S    
O16   C48   A    
C15   C19   A    
C39   C41   A    
C14   C16   A    
O4    V2    S    
C17   C31   A    
C26   H12   S    
C28   H22   S    
O6    C4    A    
C39   H19   S    
O1    V2    S    
C13   H9    S    
O2    V1    S    
H2    C30   S    
H3    C23   S    
C25   H11   S    
C18   C26   A    
C19   C27   A    
C7    C27   A    
C18   C32   A    
C34   C44   A    
C16   C20   A    
C5    C29   A    
C1    C38   S    
O3    C1    A    
C6    C30   A    
O9    V2    S    
C33   C35   A    
O16   V4    S    
C31   C46   S    
C4    C7    S    
C10   C12   A    
O7    V1    S    
C1    O8    A    
C11   C13   A    
O8    V2    S    
C20   C22   A    
C10   H8    S    
H4    C24   S    
C22   C24   A    
C40   H20   S    
H1    C29   S    
C44   C47   S    
C43   C48   S    
C20   C28   A    
C8    C28   A    
C35   C37   A    
O20   V3    S    
C19   C21   A    
O19   V4    S    
C40   C42   A    
O10   V1    S    
C42   H18   S    
O15   C47   A    
C9    C31   A    
