data_mof_unit_49931.cif
_audit_creation_date              2012-12-10T19:30:33-0500
_audit_creation_method            fapswitch 2.2
_symmetry_space_group_name_H-M    P1
_symmetry_Int_Tables_number       1
_space_group_crystal_system       triclinic
_cell_length_a                    14.934856
_cell_length_b                    15.719131
_cell_length_c                    16.761115
_cell_angle_alpha                 90.009514
_cell_angle_beta                  84.279839
_cell_angle_gamma                 89.92991
_cell_volume                      3915.29229927

loop_
_atom_site_label
_atom_site_type_symbol
_atom_type_description
_atom_site_fract_x
_atom_site_fract_y
_atom_site_fract_z
_atom_type_partial_charge
C1    C     C_R   0.500019 0.662442 0.499806 0.879579
C2    C     C_R   0.500000 0.337477 0.500069 0.904026
C3    C     C_3   0.456976 0.027694 0.437766 -0.313610
C4    C     C_3   0.542680 0.971739 0.563332 -0.322154
C5    C     C_3   0.543401 0.972012 0.430297 -0.327098
C6    C     C_3   0.456275 0.027443 0.570804 -0.328392
C7    C     C_1   0.500160 0.751154 0.499864 -0.205170
C8    C     C_1   0.499816 0.248604 0.500420 -0.172637
C9    C     C_3   0.416386 0.971700 0.507576 0.578481
C10   C     C_3   0.583321 0.027697 0.493529 0.585182
C11   C     C_3   0.501170 0.916987 0.500238 0.079667
C12   C     C_3   0.498567 0.082546 0.500846 0.076082
C13   C     C_1   0.500649 0.826326 0.500021 -0.007278
C14   C     C_1   0.499227 0.173340 0.500706 0.007572
C15   C     C_3   0.037541 0.531403 0.427739 -0.507646
C16   C     C_3   0.962331 0.469386 0.572168 -0.503652
C17   C     C_3   0.977328 0.451224 0.440794 0.448619
C18   C     C_3   0.022506 0.549636 0.559171 0.447825
C19   C     C_3   0.970567 0.578892 0.489185 0.434398
C20   C     C_3   0.029260 0.421920 0.510715 0.439386
C21   C     C_3   0.910061 0.499249 0.500897 -0.114964
C22   C     C_3   0.089864 0.501553 0.499061 -0.115485
C23   C     C_R   0.486773 0.503972 0.653550 0.881317
C24   C     C_R   0.513251 0.504002 0.346421 0.882919
C25   C     C_1   0.810109 0.499587 0.500304 0.190421
C26   C     C_1   0.189872 0.500802 0.499683 0.190402
C27   C     C_R   0.477320 0.528083 0.737795 -0.139392
C28   C     C_R   0.522831 0.528124 0.262122 -0.139232
C29   C     C_R   0.547262 0.508578 0.784147 -0.286816
C30   C     C_R   0.451342 0.512086 0.216524 -0.286173
C31   C     C_R   0.545636 0.539410 0.861565 -0.146025
C32   C     C_R   0.453546 0.542942 0.139097 -0.145257
C33   C     C_R   0.473994 0.591029 0.893882 0.135096
C34   C     C_R   0.527408 0.591063 0.105908 0.136423
C35   C     C_R   0.403063 0.609361 0.848385 -0.289828
C36   C     C_R   0.599737 0.606061 0.150679 -0.290521
C37   C     C_R   0.405024 0.580131 0.769569 0.477185
C38   C     C_R   0.597340 0.576792 0.229514 0.479919
C39   C     C_2   0.465533 0.615657 0.978492 -0.210647
C40   C     C_2   0.536537 0.614688 0.021035 -0.210627
H1    H     H_    0.603458 0.469408 0.760335 0.172555
H2    H     H_    0.393490 0.475514 0.240872 0.172749
H3    H     H_    0.068057 0.556458 0.369381 0.162889
H4    H     H_    0.931773 0.444133 0.630434 0.163186
H5    H     H_    0.604283 0.618561 0.990922 0.148345
H6    H     H_    0.397938 0.622262 0.008411 0.148726
H7    H     H_    0.346098 0.646553 0.873922 0.144331
H8    H     H_    0.658367 0.640306 0.124398 0.143743
H9    H     H_    0.398521 0.526090 0.104868 0.141241
H10   H     H_    0.599292 0.520055 0.896448 0.142186
H11   H     H_    0.579450 0.947071 0.373988 0.148274
H12   H     H_    0.420191 0.052224 0.627154 0.153706
H13   H     H_    0.421198 0.052645 0.387708 0.154297
H14   H     H_    0.578373 0.946697 0.613406 0.153347
N1    N     N_1   0.731990 0.500000 0.499970 -0.098151
N2    N     N_1   0.268010 0.500000 0.500030 -0.097380
O1    O     O_R   0.425540 0.623220 0.500000 -0.613492
O2    O     O_R   0.574460 0.376780 0.500000 -0.599728
O3    O     O_R   0.574480 0.623220 0.499990 -0.620480
O4    O     O_R   0.425520 0.376780 0.500010 -0.609925
O5    O     O_R   0.416730 0.500010 0.615810 -0.556849
O6    O     O_R   0.583270 0.499990 0.384190 -0.554857
O7    O     O_R   0.565670 0.500010 0.615790 -0.628609
O8    O     O_R   0.434330 0.499990 0.384210 -0.629049
Zn1   Zn    Zn3+2 0.400550 0.500000 0.500010 0.995653
Zn2   Zn    Zn3+2 0.599450 0.500000 0.499990 0.997742
O9    O     O_3   0.066513 0.340219 0.518923 -0.612212
C41   C     C_3   0.997323 0.281047 0.540009 0.133465
H15   H     H_    0.943437 0.284309 0.498712 0.174918
H16   H     H_    0.967501 0.292374 0.602602 0.143938
C42   C     C_3   0.036853 0.191750 0.535077 -0.853906
H17   H     H_    0.091047 0.186004 0.575594 0.261329
H18   H     H_    0.983600 0.144472 0.553374 0.207138
H19   H     H_    0.065208 0.177844 0.472629 0.254786
O10   O     O_3   0.932841 0.660332 0.480679 -0.620441
C43   C     C_3   0.001683 0.719829 0.459667 0.129052
H20   H     H_    0.033216 0.707447 0.397798 0.142886
H21   H     H_    0.054295 0.718217 0.502295 0.173145
C44   C     C_3   0.961000 0.808645 0.461866 -0.865689
H22   H     H_    0.930697 0.823653 0.523495 0.256903
H23   H     H_    0.014029 0.856221 0.443797 0.208979
H24   H     H_    0.908078 0.812607 0.419898 0.257264
O11   O     O_3   0.669246 0.593094 0.273377 -0.587330
C45   C     C_3   0.664946 0.678747 0.299100 0.080894
H25   H     H_    0.599321 0.692568 0.334441 0.126010
H26   H     H_    0.674271 0.723020 0.247101 0.125295
C46   C     C_3   0.739823 0.695418 0.352388 -0.711016
H27   H     H_    0.806441 0.684470 0.318210 0.250379
H28   H     H_    0.736186 0.762308 0.373852 0.177847
H29   H     H_    0.732802 0.652334 0.405055 0.279423
O12   O     O_3   0.335164 0.600652 0.724605 -0.587264
C47   C     C_3   0.345871 0.685706 0.698114 0.088518
H30   H     H_    0.412509 0.694871 0.663008 0.125951
H31   H     H_    0.339620 0.730748 0.749656 0.126247
C48   C     C_3   0.272737 0.707248 0.644349 -0.711344
H32   H     H_    0.205704 0.703424 0.679148 0.257811
H33   H     H_    0.282865 0.772805 0.620447 0.217861
H34   H     H_    0.274799 0.661970 0.593402 0.276154
O13   O     O_3   0.669795 0.064613 0.486828 -0.601553
C49   C     C_3   0.735518 0.999900 0.477685 0.102880
H35   H     H_    0.731956 0.965287 0.420154 0.133863
H36   H     H_    0.727384 0.953913 0.528424 0.135058
C50   C     C_3   0.828323 0.039898 0.476484 -0.824396
H37   H     H_    0.834159 0.074179 0.533667 0.253029
H38   H     H_    0.880859 0.989692 0.469180 0.207685
H39   H     H_    0.839385 0.085497 0.425851 0.262178
O14   O     O_3   0.330289 0.934008 0.514426 -0.614800
C51   C     C_3   0.263883 0.998047 0.523162 0.098958
H40   H     H_    0.270627 0.042690 0.471339 0.140608
H41   H     H_    0.268031 0.034230 0.579754 0.139557
C52   C     C_3   0.171491 0.956793 0.526701 -0.836857
H42   H     H_    0.161994 0.912474 0.578464 0.255416
H43   H     H_    0.118347 0.006461 0.533599 0.211782
H44   H     H_    0.165027 0.920792 0.470560 0.254784
O15   O     O_3   0.947690 0.397635 0.381261 -0.602851
C53   C     C_3   0.021845 0.371813 0.328072 0.116694
H45   H     H_    0.077635 0.346295 0.360524 0.167170
H46   H     H_    0.047050 0.426118 0.289671 0.142820
C54   C     C_3   0.992049 0.301636 0.274199 -0.817236
H47   H     H_    0.937255 0.325142 0.239726 0.267130
H48   H     H_    0.049684 0.281126 0.231518 0.201458
H49   H     H_    0.967312 0.246159 0.311066 0.254259
O16   O     O_3   0.051633 0.603200 0.619000 -0.612154
C55   C     C_3   0.976901 0.629244 0.671464 0.125792
H50   H     H_    0.949785 0.574689 0.708586 0.144885
H51   H     H_    0.922541 0.656466 0.638319 0.169860
C56   C     C_3   0.006418 0.697686 0.727306 -0.855145
H52   H     H_    0.034161 0.753052 0.691850 0.251480
H53   H     H_    0.947886 0.719113 0.768493 0.209417
H54   H     H_    0.058711 0.672035 0.763462 0.264893

loop_
_geom_bond_atom_site_label_1
_geom_bond_atom_site_label_2
_ccdc_geom_bond_type
C45   H26   S    
C46   H27   S    
C16   C21   S    
C38   O11   S    
C27   C29   A    
C48   H32   S    
C11   C13   S    
C20   O9    S    
C52   H42   S    
C43   C44   S    
C35   H7    S    
C6    C9    S    
C48   H34   S    
O16   C55   S    
C52   H43   S    
C53   H45   S    
C15   C19   S    
C33   C39   S    
C34   C40   S    
C35   C37   A    
C43   H21   S    
C5    C11   S    
C1    O3    A    
O3    Zn2   S    
C6    C12   S    
C2    O4    A    
N2    Zn1   S    
C17   C20   S    
C51   H40   S    
C18   C19   S    
C47   H30   S    
C3    C12   S    
O2    Zn2   S    
C15   C22   S    
O13   C49   S    
C53   H46   S    
C41   H15   S    
C24   O6    A    
O14   C51   S    
C45   C46   S    
C23   C27   S    
C52   H44   S    
C16   H4    S    
C18   O16   S    
C29   H1    S    
C23   O7    A    
O7    Zn2   S    
C24   O8    A    
C1    C7    S    
C10   O13   S    
C49   H36   S    
C54   H48   S    
C40   H5    S    
C31   C33   A    
O6    Zn2   S    
O9    C41   S    
C53   C54   S    
C25   N1    T    
C43   H20   S    
C4    C6    S    
C5    H11   S    
O12   C47   S    
C42   H18   S    
C37   O12   S    
C49   C50   S    
C17   C21   S    
C32   C34   A    
O10   C43   S    
C56   H53   S    
C3    C9    S    
C1    O1    A    
C44   H24   S    
O11   C45   S    
C7    C13   T    
C16   C20   S    
C47   H31   S    
C50   H38   S    
C45   H25   S    
C4    C11   S    
C9    C11   S    
C10   C12   S    
C39   H6    S    
C16   C18   S    
C12   C14   S    
O4    Zn1   S    
C55   C56   S    
C20   C22   S    
C31   H10   S    
C4    C10   S    
C56   H52   S    
C39   C40   D    
N1    Zn2   S    
C17   O15   S    
C55   H51   S    
C19   O10   S    
C54   H49   S    
C15   C17   S    
C21   C25   S    
C8    C14   T    
C4    H14   S    
C18   C22   S    
C2    C8    S    
C24   C28   S    
O1    Zn1   S    
C3    C5    S    
C26   N2    T    
C42   H19   S    
C54   H47   S    
C48   H33   S    
C9    O14   S    
C44   H23   S    
C51   C52   S    
O8    Zn1   S    
C36   C38   A    
C56   H54   S    
C15   H3    S    
C5    C10   S    
C29   C31   A    
C30   C32   A    
C3    H13   S    
C27   C37   A    
C41   C42   S    
C28   C30   A    
C49   H35   S    
C33   C35   A    
C51   H41   S    
C36   H8    S    
C50   H39   S    
C34   C36   A    
C47   C48   S    
C2    O2    A    
C32   H9    S    
C44   H22   S    
O5    Zn1   S    
C23   O5    A    
C42   H17   S    
C41   H16   S    
C22   C26   S    
C46   H29   S    
C50   H37   S    
C46   H28   S    
C30   H2    S    
C6    H12   S    
C28   C38   A    
O15   C53   S    
C55   H50   S    
C19   C21   S    
