data_mof_unit_22169.cif
_audit_creation_date              2012-12-10T16:57:02-0500
_audit_creation_method            fapswitch 2.2
_symmetry_space_group_name_H-M    P1
_symmetry_Int_Tables_number       1
_space_group_crystal_system       triclinic
_cell_length_a                    7.899224
_cell_length_b                    8.608084
_cell_length_c                    16.68693
_cell_angle_alpha                 93.514015
_cell_angle_beta                  77.966583
_cell_angle_gamma                 93.351489
_cell_volume                      1106.4313331

loop_
_atom_site_label
_atom_site_type_symbol
_atom_type_description
_atom_site_fract_x
_atom_site_fract_y
_atom_site_fract_z
_atom_type_partial_charge
C1    C     C_R   0.545054 0.794416 0.499533 0.985131
C2    C     C_R   0.489988 0.551214 0.206891 -0.192384
C3    C     C_R   0.522661 0.435681 0.865347 0.486239
C4    C     C_R   0.499903 0.502199 0.124552 0.472867
C5    C     C_R   0.354923 0.393067 0.908358 0.014288
C6    C     C_R   0.499198 0.340461 0.102682 0.045833
C7    C     C_R   0.222037 0.365444 0.864506 -0.278718
C8    C     C_R   0.550310 0.237806 0.155481 -0.209080
C9    C     C_R   0.254803 0.400143 0.781176 -0.068741
C10   C     C_R   0.594970 0.299483 0.228855 -0.122418
C11   C     C_2   0.326061 0.363882 0.997151 -0.070795
C12   C     C_R   0.454254 0.205804 0.503119 0.986699
C13   C     C_2   0.445124 0.284691 0.024406 -0.048474
C14   C     C_2   0.682863 0.287371 0.746038 0.971690
C15   C     C_2   0.404417 0.697662 0.239293 0.977626
C16   C     C_2   0.680211 0.202303 0.277648 0.907216
C17   C     C_2   0.112594 0.381360 0.736337 0.990477
C18   C     C_2   0.536750 0.157772 0.970110 1.035499
C19   C     C_2   0.186802 0.446013 0.055744 0.991308
C20   C     C_2   0.057001 0.287034 0.903589 1.025751
C21   C     C_2   0.545644 0.066643 0.137850 1.009465
C22   C     C_2   0.567955 0.958044 0.501812 -0.355726
C23   C     C_2   0.429685 0.042737 0.506465 -0.256681
C24   C     C_R   0.468897 0.484770 0.653702 0.933089
C25   C     C_R   0.526171 0.491248 0.345739 0.934113
C26   C     C_R   0.428022 0.437121 0.739636 -0.221021
C27   C     C_R   0.544506 0.450791 0.258437 -0.204431
C28   C     C_R   0.560766 0.411968 0.780014 -0.182914
H1    H     H_    0.698901 0.008334 0.497550 0.190117
H2    H     H_    0.015454 0.445208 0.163818 0.376298
H3    H     H_    0.949259 0.487914 0.949266 0.350710
H4    H     H_    0.801863 0.048437 0.132288 0.352085
H5    H     H_    0.535081 0.713294 0.086253 0.396651
H6    H     H_    0.748643 0.530207 0.867623 0.373249
H7    H     H_    0.298652 0.992579 0.510921 0.185646
H8    H     H_    0.022800 0.377791 0.438145 0.214968
H9    H     H_    0.977131 0.621969 0.561982 0.207545
H10   H     H_    0.835571 0.123813 0.770487 0.366538
H11   H     H_    0.204513 0.834351 0.241250 0.376401
H12   H     H_    0.672111 0.006865 0.338021 0.359829
H13   H     H_    0.024094 0.268714 0.642547 0.361062
H14   H     H_    0.526096 0.987000 0.882521 0.367171
N1    N     N_2   0.953500 0.457650 0.478520 -0.156224
N2    N     N_2   0.046500 0.542350 0.521480 -0.169165
O1    O     O_R   0.388470 0.738640 0.505270 -0.599179
O2    O     O_R   0.770406 0.217339 0.797907 -0.756807
O3    O     O_2   0.456211 0.779823 0.292261 -0.593395
O4    O     O_R   0.258173 0.737228 0.211484 -0.721713
O5    O     O_2   0.827101 0.239002 0.286851 -0.586951
O6    O     O_R   0.595014 0.067865 0.311220 -0.764294
O7    O     O_2   0.002866 0.478924 0.746766 -0.653802
O8    O     O_R   0.114184 0.259476 0.676908 -0.788410
O9    O     O_2   0.684147 0.128389 0.973720 -0.515056
O10   O     O_R   0.451850 0.070334 0.915519 -0.763922
O11   O     O_2   0.145478 0.574175 0.040816 -0.539315
O12   O     O_R   0.611530 0.261360 0.494730 -0.599280
O13   O     O_R   0.106749 0.377893 0.128870 -0.766109
O14   O     O_2   0.039400 0.145507 0.895816 -0.474382
O15   O     O_R   0.923974 0.371461 0.951462 -0.703650
O16   O     O_2   0.410770 0.000010 0.127457 -0.552065
O17   O     O_R   0.693261 0.980553 0.130840 -0.728220
O18   O     O_3   0.502525 0.608221 0.065237 -0.674107
O19   O     O_3   0.649763 0.484980 0.907405 -0.674757
O20   O     O_R   0.679650 0.711510 0.491500 -0.628072
O21   O     O_R   0.320350 0.288490 0.508500 -0.624547
O22   O     O_R   0.337210 0.515200 0.623500 -0.611829
O23   O     O_R   0.662790 0.484800 0.376500 -0.585680
O24   O     O_R   0.628380 0.488060 0.609730 -0.587290
O25   O     O_R   0.371620 0.511940 0.390270 -0.609128
O26   O     O_2   0.695002 0.234964 0.675383 -0.633121
Zn1   Zn    Zn3+2 0.305580 0.518120 0.509190 1.003734
Zn2   Zn    Zn3+2 0.694420 0.481880 0.490810 1.022558

loop_
_geom_bond_atom_site_label_1
_geom_bond_atom_site_label_2
_ccdc_geom_bond_type
C10   C27   A    
H4    O17   S    
C2    C4    A    
N1    N2    D    
H2    O13   S    
N1    Zn2   S    
C22   H1    S    
C3    O19   S    
O1    Zn1   S    
C14   O26   D    
C12   O21   A    
H11   O4    S    
H13   O8    S    
C26   C28   A    
O22   Zn1   S    
C25   O23   A    
C15   O3    D    
O24   Zn2   S    
C11   C19   S    
C17   O7    D    
H9    N2    S    
C8    C21   S    
C3    C5    A    
C5    C7    A    
C1    C22   S    
C14   O2    S    
C10   C16   S    
H14   O10   S    
C6    C13   S    
C2    C15   S    
C11   C13   D    
C12   C23   S    
C1    O1    A    
C2    C27   A    
C15   O4    S    
N2    Zn1   S    
H12   O6    S    
C13   C18   S    
C17   O8    S    
C8    C10   A    
C3    C28   A    
C12   O12   A    
C16   O6    S    
C9    C26   A    
C5    C11   S    
C23   H7    S    
O20   Zn2   S    
H10   O2    S    
C4    C6    A    
C25   C27   S    
C18   O10   S    
C20   O14   D    
C16   O5    D    
C1    O20   A    
C4    O18   S    
C25   O25   A    
C24   O22   A    
C21   O16   D    
O25   Zn1   S    
O23   Zn2   S    
C9    C17   S    
C7    C9    A    
C19   O11   D    
C22   C23   D    
H6    O19   S    
H8    N1    S    
C6    C8    A    
C18   O9    D    
C14   C28   S    
O21   Zn1   S    
C24   O24   A    
C21   O17   S    
C7    C20   S    
C19   O13   S    
C20   O15   S    
C24   C26   S    
H5    O18   S    
O12   Zn2   S    
H3    O15   S    
