data_mof_unit_48105.cif
_audit_creation_date              2012-12-11T14:56:34-0500
_audit_creation_method            fapswitch 2.2
_symmetry_space_group_name_H-M    P1
_symmetry_Int_Tables_number       1
_space_group_crystal_system       triclinic
_cell_length_a                    10.53715
_cell_length_b                    10.729673
_cell_length_c                    17.113941
_cell_angle_alpha                 80.222804
_cell_angle_beta                  90.00385
_cell_angle_gamma                 119.668157
_cell_volume                      1648.84381332

loop_
_atom_site_label
_atom_site_type_symbol
_atom_type_description
_atom_site_fract_x
_atom_site_fract_y
_atom_site_fract_z
_atom_type_partial_charge
C1    C     C_R   0.222983 0.854422 0.128746 0.544785
C2    C     C_R   0.708151 0.238701 0.310016 -0.115536
C3    C     C_R   0.697693 0.204286 0.234942 -0.135254
C4    C     C_R   0.610647 0.235254 0.182837 0.022498
C5    C     C_1   0.685124 0.832482 0.201866 -0.044292
C6    C     C_1   0.703259 0.807951 0.270515 -0.043277
C7    C     C_1   0.181095 0.826026 0.211337 -0.033613
C8    C     C_1   0.151745 0.820450 0.279841 -0.030147
C9    C     C_1   0.642902 0.318424 0.777546 -0.023592
C10   C     C_1   0.649591 0.339913 0.706951 -0.012780
C11   C     C_R   0.614820 0.710888 0.806955 -0.122169
C12   C     C_R   0.609525 0.208550 0.102128 0.554552
C13   C     C_R   0.592456 0.696012 0.729117 0.080616
C14   C     C_R   0.669897 0.819659 0.667351 0.061473
C15   C     C_R   0.764754 0.957002 0.685740 -0.149882
C16   C     C_R   0.774675 0.972726 0.764657 -0.117307
C17   C     C_R   0.693966 0.849657 0.825144 0.010481
C18   C     C_R   0.207240 0.963809 0.759939 0.079245
C19   C     C_R   0.211649 0.954437 0.681408 -0.133324
C20   C     C_R   0.168467 0.820476 0.659752 0.005278
C21   C     C_R   0.150796 0.700410 0.717556 0.072286
C22   C     C_R   0.164009 0.715042 0.796570 -0.135026
C23   C     C_R   0.643596 0.856111 0.124379 0.542898
C24   C     C_R   0.187535 0.843940 0.818821 0.009081
C25   C     C_R   0.711235 0.772777 0.353457 0.556857
C26   C     C_R   0.681847 0.384367 0.399179 0.531972
C27   C     C_R   0.103797 0.810580 0.359221 0.543793
C28   C     C_R   0.678238 0.798283 0.586722 0.569910
C29   C     C_R   0.677319 0.380000 0.623987 0.555496
C30   C     C_R   0.102601 0.802740 0.585124 0.560238
C31   C     C_R   0.224983 0.865380 0.898515 0.561673
C32   C     C_R   0.637088 0.283142 0.860508 0.559700
C33   C     C_R   0.648724 0.866560 0.900208 0.550948
C34   C     C_R   0.523529 0.288710 0.209096 -0.120239
C35   C     C_R   0.535729 0.325341 0.283855 -0.134748
C36   C     C_R   0.633789 0.307263 0.333027 0.024261
Cr1   Cr    Cr6+3 0.402240 0.783890 0.019450 1.032792
Cr2   Cr    Cr6+3 0.382360 0.097900 0.991800 1.051532
Cr3   Cr    Cr6+3 0.715380 0.118170 0.988700 1.043033
Cr4   Cr    Cr6+3 0.936650 0.882420 0.465510 1.029843
Cr5   Cr    Cr6+3 0.605770 0.565620 0.493360 1.058638
Cr6   Cr    Cr6+3 0.921340 0.550490 0.496380 1.061310
H1    H     H_    0.451898 0.309654 0.170564 0.146858
H2    H     H_    0.230628 0.048974 0.637427 0.169681
H3    H     H_    0.153849 0.624691 0.840904 0.157749
H4    H     H_    0.476751 0.377159 0.300592 0.138821
H5    H     H_    0.782235 0.220689 0.347903 0.146191
H6    H     H_    0.760985 0.157790 0.216623 0.132535
H7    H     H_    0.553779 0.614808 0.853605 0.141337
H8    H     H_    0.828249 0.052128 0.639079 0.150023
H9    H     H_    0.836821 0.081421 0.777883 0.179056
O1    O     O_R   0.521780 0.757110 0.108900 -0.505535
O2    O     O_R   0.513330 0.228330 0.898660 -0.482397
O3    O     O_R   0.739230 0.266130 0.888050 -0.496186
O4    O     O_R   0.712580 0.991850 0.918770 -0.496376
O5    O     O_3   0.499990 0.999980 0.999980 -0.283673
O6    O     O_R   0.083770 0.911170 0.376030 -0.514505
O7    O     O_R   0.808770 0.880340 0.383890 -0.498118
O8    O     O_R   0.584340 0.689460 0.394160 -0.502360
O9    O     O_R   0.614320 0.443940 0.423590 -0.522415
O10   O     O_R   0.805020 0.410040 0.421340 -0.518840
O11   O     O_R   0.049240 0.685450 0.403290 -0.493300
O12   O     O_R   0.275160 0.783810 0.101120 -0.492352
O13   O     O_R   0.077520 0.903010 0.551800 -0.523422
O14   O     O_R   0.802980 0.872780 0.546830 -0.508619
O15   O     O_R   0.578090 0.681300 0.569920 -0.453775
O16   O     O_R   0.608530 0.436370 0.586530 -0.482182
O17   O     O_R   0.798770 0.401880 0.597100 -0.488613
O18   O     O_R   0.043450 0.677890 0.566230 -0.462565
O19   O     O_3   0.821250 0.666180 0.485090 -0.284672
O20   O     O_R   0.237900 0.972600 0.090980 -0.515591
O21   O     O_R   0.511190 0.220540 0.061620 -0.507287
O22   O     O_R   0.736920 0.257720 0.063840 -0.504315
O23   O     O_R   0.710450 0.984050 0.081720 -0.516172
O24   O     O_R   0.524090 0.765520 0.933110 -0.519002
O25   O     O_R   0.277300 0.791600 0.938160 -0.505247
O26   O     O_R   0.240210 0.981010 0.915190 -0.474017
I1    I     I_    0.100173 0.492028 0.695309 -0.327116
N1    N     N_3   0.487738 0.555238 0.713988 -0.547330
H10   H     H_    0.516656 0.480158 0.741851 0.236412
H11   H     H_    0.386314 0.525691 0.742249 0.267221
I2    I     I_    0.219801 0.163081 0.776583 -0.363906

loop_
_geom_bond_atom_site_label_1
_geom_bond_atom_site_label_2
_ccdc_geom_bond_type
C33   O4    A    
C13   N1    S    
C30   O13   A    
C35   C36   A    
C16   H9    S    
C31   O25   A    
C7    C8    T    
Cr5   O16   S    
C20   C30   S    
C1    O20   A    
Cr4   O19   S    
C18   C24   A    
C26   O10   A    
C34   C35   A    
C5    C6    T    
Cr3   O23   S    
Cr3   O3    S    
C15   C16   A    
C3    H6    S    
Cr6   O19   S    
C18   C19   A    
C15   H8    S    
C12   O22   A    
C9    C32   S    
C29   O16   A    
Cr1   O5    S    
C33   O24   A    
Cr3   O4    S    
C19   C20   A    
C16   C17   A    
C21   I1    S    
C4    C12   S    
C9    C10   T    
Cr6   O11   S    
Cr1   O24   S    
C13   C14   A    
Cr6   O17   S    
C17   C33   S    
C1    O12   A    
C32   O3    A    
Cr1   O12   S    
C31   O26   A    
Cr2   O21   S    
C4    C34   A    
Cr4   O7    S    
Cr5   O8    S    
C27   O6    A    
N1    H11   S    
Cr1   O1    S    
Cr6   O18   S    
C28   O15   A    
C11   H7    S    
C27   O11   A    
C29   O17   A    
Cr3   O5    S    
C5    C23   S    
Cr6   O10   S    
C26   C36   S    
Cr1   O25   S    
Cr4   O14   S    
C22   C24   A    
C25   O7    A    
C23   O23   A    
C3    C4    A    
C32   O2    A    
C30   O18   A    
C19   H2    S    
C2    C36   A    
Cr2   O20   S    
C11   C17   A    
Cr4   O6    S    
C1    C7    S    
C34   H1    S    
Cr5   O9    S    
Cr5   O15   S    
Cr2   O26   S    
C2    H5    S    
Cr4   O13   S    
C2    C3    A    
C24   C31   S    
C11   C13   A    
C10   C29   S    
C23   O1    A    
Cr2   O2    S    
C18   I2    S    
C28   O14   A    
Cr3   O22   S    
C12   O21   A    
N1    H10   S    
C6    C25   S    
C22   H3    S    
Cr2   O5    S    
C20   C21   A    
C8    C27   S    
C14   C15   A    
C25   O8    A    
C14   C28   S    
C21   C22   A    
C35   H4    S    
C26   O9    A    
Cr5   O19   S    
