data_mof_unit_68231.cif
_audit_creation_date              2013-03-05T16:10:11-0500
_audit_creation_method            fapswitch 2.2
_symmetry_space_group_name_H-M    P1
_symmetry_Int_Tables_number       1
_space_group_crystal_system       triclinic
_cell_length_a                    14.382882
_cell_length_b                    7.425322
_cell_length_c                    14.374423
_cell_angle_alpha                 89.992161
_cell_angle_beta                  98.62999
_cell_angle_gamma                 90.00629
_cell_volume                      1517.77181423

loop_
_atom_site_label
_atom_site_type_symbol
_atom_site_description
_atom_site_fract_x
_atom_site_fract_y
_atom_site_fract_z
_atom_type_partial_charge
O1    O     O_R   0.648180 0.355050 0.151550 -0.599256
O2    O     O_R   0.351820 0.644950 0.848450 -0.591037
O3    O     O_R   0.851820 0.855050 0.348450 -0.599845
O4    O     O_R   0.148180 0.144950 0.651550 -0.591152
O5    O     O_R   0.835240 0.681980 0.154280 -0.595813
O6    O     O_R   0.164760 0.318020 0.845720 -0.590701
O7    O     O_R   0.664760 0.181980 0.345720 -0.595842
O8    O     O_R   0.335240 0.818020 0.654280 -0.590777
H1    H     H_    0.680223 0.089782 0.807225 0.155729
H2    H     H_    0.315513 0.049245 0.209728 0.172865
H3    H     H_    0.819815 0.589497 0.692743 0.155287
H4    H     H_    0.184479 0.549546 0.290250 0.172861
C1    C     C_R   0.859495 0.516528 0.129157 1.052285
C2    C     C_R   0.136206 0.483041 0.865584 1.050167
C3    C     C_R   0.640491 0.016512 0.370829 1.052551
C4    C     C_R   0.363803 0.983057 0.634428 1.050190
O9    O     O_R   0.647870 0.684600 0.139630 -0.588809
O10   O     O_R   0.352130 0.315400 0.860370 -0.599661
O11   O     O_R   0.852130 0.184600 0.360370 -0.588762
O12   O     O_R   0.147870 0.815400 0.639630 -0.599558
O13   O     O_R   0.663110 0.857440 0.333700 -0.594844
O14   O     O_R   0.336890 0.142560 0.666300 -0.608715
O15   O     O_R   0.836890 0.357440 0.166300 -0.594777
O16   O     O_R   0.163110 0.642560 0.833700 -0.608852
C5    C     C_R   0.614732 0.515614 0.113573 0.972797
C6    C     C_R   0.385261 0.484222 0.886443 1.002966
C7    C     C_R   0.885265 0.015613 0.386428 0.972412
C8    C     C_R   0.114738 0.984221 0.613560 1.003084
O17   O     O_3   0.755220 0.522230 0.313690 -0.319225
O18   O     O_3   0.244780 0.477770 0.686310 -0.327567
O19   O     O_3   0.744780 0.022230 0.186310 -0.318953
O20   O     O_3   0.255220 0.977770 0.813690 -0.327612
V1    V     V_3+5 0.749030 0.796100 0.238190 1.127531
V2    V     V_3+5 0.250970 0.203900 0.761810 1.107392
V3    V     V_3+5 0.750970 0.296100 0.261810 1.127776
V4    V     V_3+5 0.249030 0.703900 0.738190 1.107381
C9    C     C_1   0.966207 0.004462 0.467021 -0.221571
C10   C     C_1   0.033347 0.994533 0.533394 -0.227228
C11   C     C_1   0.533789 0.504467 0.032982 -0.221787
C12   C     C_1   0.466649 0.494536 0.966609 -0.227214
C13   C     C_R   0.566075 0.028712 0.703085 -0.032261
C14   C     C_R   0.436464 0.996874 0.308918 -0.054046
C15   C     C_R   0.933950 0.528558 0.796907 -0.032603
C16   C     C_R   0.063521 0.497120 0.191076 -0.054166
C17   C     C_R   0.659484 0.065649 0.734083 -0.341615
C18   C     C_R   0.340198 0.016709 0.280734 -0.464784
C19   C     C_R   0.840558 0.565520 0.765892 -0.341165
C20   C     C_R   0.159790 0.516950 0.219256 -0.464837
C21   C     C_R   0.723905 0.091151 0.673527 0.438418
C22   C     C_R   0.276322 0.997173 0.343331 0.497661
C23   C     C_R   0.776137 0.591155 0.826416 0.438331
C24   C     C_R   0.223669 0.497230 0.156678 0.497725
C25   C     C_R   0.693962 0.091320 0.576198 0.373759
C26   C     C_R   0.309100 0.948687 0.435021 0.362099
C27   C     C_R   0.806042 0.591307 0.923755 0.373770
C28   C     C_R   0.190880 0.448683 0.065002 0.361991
C29   C     C_R   0.599683 0.038379 0.539257 -0.118628
C30   C     C_R   0.406328 0.971131 0.471483 -0.142286
C31   C     C_R   0.900315 0.538359 0.960723 -0.118630
C32   C     C_R   0.093663 0.471178 0.028529 -0.142404
C33   C     C_R   0.533045 0.015044 0.604309 0.026571
C34   C     C_R   0.472544 0.989582 0.406597 0.078624
C35   C     C_R   0.966967 0.515001 0.895687 0.026752
C36   C     C_R   0.027445 0.489712 0.093400 0.079016
C37   C     C_R   0.570366 0.012894 0.440010 -0.248411
C38   C     C_R   0.436015 0.986020 0.569528 -0.213743
C39   C     C_R   0.929622 0.512916 0.059974 -0.248316
C40   C     C_R   0.063988 0.485983 0.930479 -0.213672
N1    N     N_3   0.506402 0.010090 0.774444 -0.199948
H5    H     H_    0.534160 0.910986 0.822052 0.112367
H6    H     H_    0.510420 0.127979 0.814399 0.097449
N2    N     N_3   0.495550 0.980668 0.237458 -0.195556
H7    H     H_    0.468985 0.880432 0.189800 0.148768
H8    H     H_    0.498608 0.103035 0.202644 0.103360
N3    N     N_3   0.993612 0.509722 0.725552 -0.199957
H9    H     H_    0.989636 0.627560 0.685529 0.097412
H10   H     H_    0.965780 0.410593 0.677994 0.112729
N4    N     N_3   0.004427 0.480938 0.262533 -0.195601
H11   H     H_    0.030982 0.380740 0.310224 0.148712
H12   H     H_    0.001334 0.603325 0.297298 0.103441
O21   O     O_3   0.182549 0.043691 0.320040 -0.665928
C41   C     C_3   0.135951 0.931234 0.249372 0.188657
H13   H     H_    0.096444 0.830353 0.283776 0.122026
H14   H     H_    0.184112 0.861477 0.207807 0.115442
C42   C     C_3   0.066102 0.043023 0.183468 -0.271264
H15   H     H_    0.001993 0.070346 0.215805 0.196413
H16   H     H_    0.099589 0.171773 0.172225 0.217640
C43   C     C_3   0.039529 0.954490 0.087922 -1.079957
H17   H     H_    0.101750 0.900920 0.059878 0.268239
H18   H     H_    0.004819 0.055280 0.037319 0.284835
H19   H     H_    0.991069 0.842551 0.094744 0.292112
O22   O     O_3   0.812314 0.152005 0.710099 -0.680715
C44   C     C_3   0.869530 0.005739 0.742837 0.189153
H20   H     H_    0.884727 0.922458 0.682432 0.106479
H21   H     H_    0.835583 0.922539 0.792030 0.127549
C45   C     C_3   0.960842 0.080521 0.795854 -0.347979
H22   H     H_    0.996985 0.159080 0.747035 0.220988
H23   H     H_    0.945929 0.166317 0.854767 0.229693
C46   C     C_3   0.027372 0.934108 0.834854 -0.950588
H24   H     H_    0.094523 0.993256 0.866280 0.288458
H25   H     H_    0.041169 0.848324 0.776430 0.277720
H26   H     H_    0.998776 0.856876 0.889485 0.263928
O23   O     O_3   0.317477 0.543531 0.179984 -0.665855
C47   C     C_3   0.363968 0.431009 0.250695 0.188794
H27   H     H_    0.403533 0.330173 0.216344 0.122003
H28   H     H_    0.315723 0.361173 0.292154 0.115582
C48   C     C_3   0.433746 0.542724 0.316720 -0.271396
H29   H     H_    0.497972 0.569913 0.284544 0.196409
H30   H     H_    0.400300 0.671552 0.327846 0.217717
C49   C     C_3   0.460047 0.454196 0.412317 -1.080319
H31   H     H_    0.397718 0.400684 0.440203 0.268304
H32   H     H_    0.494686 0.554940 0.462978 0.284705
H33   H     H_    0.508491 0.342202 0.405650 0.292125
O24   O     O_3   0.687770 0.652086 0.789767 -0.680761
C50   C     C_3   0.630498 0.505863 0.757095 0.189782
H34   H     H_    0.615132 0.422876 0.817557 0.106421
H35   H     H_    0.664489 0.422377 0.708068 0.127266
C51   C     C_3   0.539317 0.580716 0.703833 -0.348093
H36   H     H_    0.503222 0.659901 0.752434 0.221222
H37   H     H_    0.554427 0.665949 0.644752 0.229616
C52   C     C_3   0.472608 0.434328 0.665136 -0.950487
H38   H     H_    0.405528 0.493573 0.633601 0.288360
H39   H     H_    0.458692 0.348997 0.723710 0.277591
H40   H     H_    0.501102 0.356587 0.610640 0.264026
O25   O     O_3   0.755861 0.150534 0.517393 -0.676748
C53   C     C_3   0.775168 0.337850 0.529851 0.281024
H41   H     H_    0.825335 0.379314 0.482772 0.149115
H42   H     H_    0.812994 0.367654 0.599622 0.124752
C54   C     C_3   0.687372 0.455277 0.507619 -0.383705
H43   H     H_    0.657727 0.440509 0.433070 0.271352
H44   H     H_    0.632898 0.414635 0.549651 0.188311
C55   C     C_3   0.707477 0.653018 0.524222 -0.990683
H45   H     H_    0.707615 0.691869 0.598261 0.260421
H46   H     H_    0.647149 0.721776 0.484765 0.283596
H47   H     H_    0.773158 0.696274 0.498647 0.284134
O26   O     O_3   0.246235 0.858561 0.482760 -0.654446
C56   C     C_3   0.258582 0.670638 0.470414 0.273186
H48   H     H_    0.314521 0.620007 0.524122 0.135258
H49   H     H_    0.281376 0.638644 0.402609 0.044926
C57   C     C_3   0.168218 0.564188 0.475059 -0.330686
H50   H     H_    0.141921 0.579558 0.542105 0.262196
H51   H     H_    0.112311 0.613842 0.420251 0.172395
C58   C     C_3   0.184226 0.363172 0.463757 -0.934665
H52   H     H_    0.212050 0.335987 0.397983 0.270337
H53   H     H_    0.116938 0.290033 0.462392 0.280651
H54   H     H_    0.235952 0.311773 0.522666 0.291886
O27   O     O_3   0.744119 0.650420 0.982548 -0.676817
C59   C     C_3   0.724671 0.837661 0.970002 0.280331
H55   H     H_    0.674422 0.879003 0.017009 0.148935
H56   H     H_    0.686877 0.867388 0.900206 0.125211
C60   C     C_3   0.812346 0.955390 0.992281 -0.382243
H57   H     H_    0.841731 0.941274 0.066924 0.271304
H58   H     H_    0.867043 0.914428 0.950632 0.188277
C61   C     C_3   0.792131 0.152897 0.974974 -0.992964
H59   H     H_    0.793272 0.190980 0.901076 0.261288
H60   H     H_    0.851683 0.222508 0.015185 0.284217
H61   H     H_    0.725759 0.195969 0.999090 0.282881
O28   O     O_3   0.253714 0.358476 0.017283 -0.654420
C62   C     C_3   0.241276 0.170570 0.029632 0.273135
H62   H     H_    0.185278 0.120022 0.975948 0.135129
H63   H     H_    0.218512 0.138592 0.097463 0.044875
C63   C     C_3   0.331597 0.064049 0.024943 -0.330534
H64   H     H_    0.357884 0.079502 0.957896 0.262260
H65   H     H_    0.387536 0.113600 0.079747 0.172372
C64   C     C_3   0.315530 0.863035 0.036212 -0.934528
H66   H     H_    0.287672 0.835814 0.101968 0.270173
H67   H     H_    0.382802 0.789854 0.037592 0.280715
H68   H     H_    0.263808 0.811719 0.977283 0.291838

loop_
_geom_bond_atom_site_label_1
_geom_bond_atom_site_label_2
_geom_bond_distance
_ccdc_geom_bond_type
C30   C34   1.436043 A    
C58   H54   1.107738 S    
C16   C20   1.390903 A    
C24   O23   1.383880 S    
H1    C17   1.064135 S    
C53   H41   1.104456 S    
C27   C31   1.435019 A    
H3    C19   1.064012 S    
O27   C59   1.424307 S    
O10   C6    1.373076 A    
C57   C58   1.522714 S    
C13   C33   1.431638 A    
H4    C20   1.057065 S    
C51   H37   1.106451 S    
C47   H28   1.108825 S    
O24   C50   1.400646 S    
C15   C35   1.431576 A    
C42   H15   1.111802 S    
C16   C36   1.423000 A    
C56   H49   1.099937 S    
C64   H66   1.099267 S    
C59   H56   1.089524 S    
C63   H64   1.092822 S    
C14   C18   1.390889 A    
N4    H12   1.041329 S    
O13   V1    2.031972 S    
O3    V1    2.046007 S    
C50   H34   1.114171 S    
C3    C37   1.519177 S    
C45   C46   1.500316 S    
C1    O15   1.355743 A    
O8    V4    2.039279 S    
C60   C61   1.508472 S    
C2    O16   1.347500 A    
N1    H6    1.043843 S    
C49   H31   1.109029 S    
C52   H40   1.100604 S    
C28   O28   1.386433 S    
C31   C39   1.438150 A    
C51   H36   1.101054 S    
C33   C38   1.426383 A    
C30   C38   1.414303 A    
C46   H24   1.094889 S    
C55   H45   1.102426 S    
C50   H35   1.106136 S    
O5    V1    2.039530 S    
H2    C18   1.057063 S    
C53   H42   1.089533 S    
C48   H29   1.111819 S    
C62   H63   1.099989 S    
C8    C10   1.516335 S    
O11   C7    1.374174 A    
C14   C34   1.423028 A    
C61   H60   1.089171 S    
C54   C55   1.508556 S    
O7    C3    1.341372 A    
O8    C4    1.336758 A    
O1    C5    1.368216 A    
C48   H30   1.093292 S    
O9    V1    2.047194 S    
C47   H27   1.101263 S    
O4    C8    1.369357 A    
O21   C41   1.405033 S    
C63   H65   1.101401 S    
C42   H16   1.093283 S    
C15   N3    1.439490 S    
O14   V2    2.031971 S    
C56   C57   1.531090 S    
O4    V2    2.046008 S    
C23   O24   1.377207 S    
O19   V1    1.834450 S    
C36   C39   1.427340 A    
C16   N4    1.433123 S    
C59   C60   1.528256 S    
C57   H50   1.092853 S    
C61   H61   1.110477 S    
N2    H8    1.041346 S    
C11   C12   1.253681 T    
C25   C29   1.434957 A    
N4    H11   1.044373 S    
N2    H7    1.044402 S    
C19   C23   1.376093 A    
O12   C8    1.373072 A    
C53   C54   1.528404 S    
O6    V2    2.039531 S    
C45   H23   1.106203 S    
C51   C52   1.500429 S    
O20   V2    1.834451 S    
O28   C62   1.421154 S    
N3    H9    1.043962 S    
C9    C10   1.253683 T    
O6    C2    1.336798 A    
C63   C64   1.522683 S    
O10   V2    2.047193 S    
C27   O27   1.387872 S    
C62   H62   1.094787 S    
C43   H19   1.098470 S    
C17   C21   1.376237 A    
C60   H57   1.097597 S    
C50   C51   1.521076 S    
C26   O26   1.386456 S    
C45   H22   1.101018 S    
C14   N2    1.433129 S    
C52   H38   1.094818 S    
C62   C63   1.531092 S    
O2    C6    1.369322 A    
C44   H20   1.114102 S    
O16   V4    2.031828 S    
C59   H55   1.104441 S    
N3    H10   1.042754 S    
C49   H33   1.098361 S    
C61   H59   1.101695 S    
C25   O25   1.387840 S    
C55   H46   1.089747 S    
C46   H25   1.095713 S    
C43   H18   1.108773 S    
C64   H68   1.107722 S    
C41   H14   1.108802 S    
O25   C53   1.424362 S    
C48   C49   1.518991 S    
C4    C38   1.496752 S    
C21   O22   1.377246 S    
O1    V3    2.045985 S    
C13   N1    1.439456 S    
C54   H43   1.097751 S    
C26   C30   1.427606 A    
C42   C43   1.518933 S    
O2    V4    2.045982 S    
C58   H53   1.107315 S    
O17   V3    1.834625 S    
C35   C40   1.426326 A    
C4    O14   1.347556 A    
C34   C37   1.427359 A    
O5    C1    1.341431 A    
C1    C39   1.519213 S    
C29   C37   1.438177 A    
O26   C56   1.421170 S    
C29   C33   1.446350 A    
C57   H51   1.101386 S    
C44   C45   1.521021 S    
C41   C42   1.519903 S    
C56   H48   1.094651 S    
C18   C22   1.386623 A    
C31   C35   1.446385 A    
O18   V4    1.834625 S    
C32   C36   1.436014 A    
O9    C5    1.374165 A    
O3    C7    1.368240 A    
C22   C26   1.379280 A    
O11   V3    2.047166 S    
C5    C11   1.516399 S    
C6    C12   1.516331 S    
C44   H21   1.106123 S    
C3    O13   1.355798 A    
C7    C9    1.516400 S    
C55   H47   1.111249 S    
C21   C25   1.400701 A    
O7    V3    2.039281 S    
O22   C44   1.400733 S    
C23   C27   1.400766 A    
C60   H58   1.100576 S    
C2    C40   1.496783 S    
N1    H5    1.042673 S    
O15   V3    2.031826 S    
C49   H32   1.108732 S    
C52   H39   1.095831 S    
O12   V4    2.047167 S    
C24   C28   1.379317 A    
C20   C24   1.386650 A    
C46   H26   1.100665 S    
C28   C32   1.427552 A    
C43   H17   1.109058 S    
C32   C40   1.414254 A    
C64   H67   1.107337 S    
C41   H13   1.101220 S    
O23   C47   1.405075 S    
C13   C17   1.378057 A    
C15   C19   1.377949 A    
C47   C48   1.519953 S    
C58   H52   1.099273 S    
C22   O21   1.383848 S    
C54   H44   1.100883 S    
