data_mof_unit_38687.cif
_audit_creation_date              2012-12-11T17:34:16-0500
_audit_creation_method            fapswitch 2.2
_symmetry_space_group_name_H-M    P1
_symmetry_Int_Tables_number       1
_space_group_crystal_system       triclinic
_cell_length_a                    23.784277
_cell_length_b                    7.223388
_cell_length_c                    20.642941
_cell_angle_alpha                 89.992666
_cell_angle_beta                  105.394957
_cell_angle_gamma                 89.992354
_cell_volume                      3419.26687162

loop_
_atom_site_label
_atom_site_type_symbol
_atom_type_description
_atom_site_fract_x
_atom_site_fract_y
_atom_site_fract_z
_atom_type_partial_charge
O1    O     O_R   0.449110 0.494310 0.552140 -0.537679
O2    O     O_R   0.550890 0.994310 0.447860 -0.537676
O3    O     O_R   0.440010 0.824420 0.415850 -0.533725
O4    O     O_R   0.559990 0.324420 0.584150 -0.533708
C1    C     C_R   0.425311 0.655761 0.391003 0.682972
C2    C     C_R   0.574686 0.155716 0.608995 0.682983
O5    O     O_R   0.442260 0.824040 0.549660 -0.540218
O6    O     O_R   0.557740 0.324040 0.450340 -0.540219
O7    O     O_R   0.553160 0.993960 0.582620 -0.531436
O8    O     O_R   0.446840 0.493960 0.417380 -0.531448
C3    C     C_R   0.428630 0.655391 0.567621 0.678127
C4    C     C_R   0.571369 0.155388 0.432379 0.678088
O9    O     O_3   0.536380 0.660670 0.510660 -0.372771
O10   O     O_3   0.463620 0.160670 0.489340 -0.372793
V1    V     V_3+5 0.493250 0.935680 0.498020 1.407842
V2    V     V_3+5 0.506750 0.435680 0.501980 1.407823
C5    C     C_R   0.823343 0.910440 0.170632 -0.137363
C6    C     C_R   0.176632 0.410428 0.829335 -0.137353
H1    H     H_    0.806353 0.784422 0.186743 0.105836
H2    H     H_    0.193603 0.284408 0.813197 0.105825
C7    C     C_R   0.862610 0.898526 0.130583 -0.167091
C8    C     C_R   0.137367 0.398512 0.869384 -0.167061
H3    H     H_    0.874984 0.762780 0.116870 0.122186
H4    H     H_    0.124972 0.262764 0.883071 0.122151
C9    C     C_R   0.885779 0.059848 0.109051 -0.052155
C10   C     C_R   0.114221 0.559838 0.890949 -0.052109
C11   C     C_R   0.868120 0.233054 0.128514 -0.169462
C12   C     C_R   0.131904 0.733045 0.871517 -0.169515
H5    H     H_    0.884694 0.360682 0.113145 0.125638
H6    H     H_    0.115350 0.860675 0.886914 0.125622
C13   C     C_R   0.828911 0.244460 0.168457 -0.140648
C14   C     C_R   0.171112 0.744454 0.831574 -0.140644
H7    H     H_    0.816299 0.379366 0.182794 0.106003
H8    H     H_    0.183743 0.879362 0.817261 0.105997
C15   C     C_R   0.806404 0.083463 0.189908 0.131776
C16   C     C_R   0.193595 0.583455 0.810090 0.131790
C17   C     C_1   0.766293 0.096475 0.231872 -0.061078
C18   C     C_1   0.233706 0.596472 0.768126 -0.061080
C19   C     C_1   0.732858 0.108182 0.267017 -0.061128
C20   C     C_1   0.267140 0.608186 0.732981 -0.061127
C21   C     C_R   0.670031 0.960128 0.330153 -0.140386
C22   C     C_R   0.329949 0.460134 0.669820 -0.140387
H9    H     H_    0.682309 0.825278 0.315384 0.105906
H10   H     H_    0.317656 0.325281 0.684569 0.105901
C23   C     C_R   0.631020 0.971454 0.370345 -0.168901
C24   C     C_R   0.368959 0.471461 0.629629 -0.168901
H11   H     H_    0.614233 0.843822 0.385430 0.125113
H12   H     H_    0.385732 0.343827 0.614523 0.125106
C25   C     C_R   0.613849 0.144585 0.390444 -0.052127
C26   C     C_R   0.386149 0.644596 0.609555 -0.052114
C27   C     C_R   0.637211 0.305918 0.369164 -0.168957
C28   C     C_R   0.362805 0.805933 0.630858 -0.168952
H13   H     H_    0.625179 0.441615 0.383319 0.121982
H14   H     H_    0.374853 0.941633 0.616725 0.121964
C29   C     C_R   0.676280 0.294082 0.328867 -0.137173
C30   C     C_R   0.323736 0.794096 0.671156 -0.137167
H15   H     H_    0.693472 0.420106 0.313021 0.105863
H16   H     H_    0.306559 0.920123 0.687022 0.105856
C31   C     C_R   0.692807 0.121132 0.309057 0.131968
C32   C     C_R   0.307191 0.621141 0.690941 0.131973
C33   C     C_R   0.642260 0.191998 0.795317 -0.158628
C34   C     C_R   0.357598 0.694605 0.204777 -0.158688
H17   H     H_    0.556155 0.220235 0.729810 0.106662
H18   H     H_    0.443691 0.722928 0.270285 0.106745
H19   H     H_    0.726626 0.190563 0.908761 0.127132
H20   H     H_    0.273171 0.694379 0.091389 0.127116
H21   H     H_    0.627578 0.223082 0.839535 0.114686
H22   H     H_    0.372210 0.726954 0.160611 0.114697
C35   C     C_R   0.618559 0.149528 0.674804 -0.034703
C36   C     C_R   0.381430 0.649799 0.325194 -0.034841
C37   C     C_R   0.901996 0.015332 0.768163 -0.159148
C38   C     C_R   0.098105 0.513558 0.231783 -0.159062
C39   C     C_R   0.863641 0.011719 0.704310 -0.118384
C40   C     C_R   0.136500 0.509174 0.295604 -0.118426
C41   C     C_R   0.804334 0.044966 0.695247 -0.157035
C42   C     C_R   0.195770 0.543058 0.304686 -0.157045
C43   C     C_R   0.781536 0.083588 0.750494 0.077039
C44   C     C_R   0.218489 0.583161 0.249492 0.077056
C45   C     C_R   0.821478 0.089145 0.816169 0.068817
C46   C     C_R   0.178499 0.589585 0.183856 0.068834
C47   C     C_R   0.720535 0.116529 0.742747 0.073029
C48   C     C_R   0.279456 0.616735 0.257256 0.072997
C49   C     C_R   0.701382 0.156183 0.800894 0.137335
C50   C     C_R   0.298522 0.657978 0.199172 0.137376
C51   C     C_R   0.741227 0.160761 0.864381 -0.198649
C52   C     C_R   0.258634 0.663377 0.135722 -0.198673
C53   C     C_R   0.800186 0.127405 0.872016 -0.191289
C54   C     C_R   0.199712 0.629331 0.128065 -0.191452
C55   C     C_R   0.677652 0.112458 0.679577 -0.213026
C56   C     C_R   0.322386 0.611846 0.320387 -0.213088
C57   C     C_R   0.601411 0.189959 0.732878 -0.164591
C58   C     C_R   0.398482 0.691867 0.267186 -0.164516
C59   C     C_R   0.881947 0.054260 0.824502 -0.079389
C60   C     C_R   0.118069 0.553983 0.175498 -0.079516
H23   H     H_    0.688661 0.083535 0.633219 0.094724
H24   H     H_    0.311441 0.581743 0.366697 0.094842
H25   H     H_    0.947799 0.987160 0.773736 0.105409
H26   H     H_    0.052340 0.484752 0.226189 0.105483
H27   H     H_    0.777509 0.039220 0.644278 0.109165
H28   H     H_    0.222634 0.536611 0.355625 0.109161
H29   H     H_    0.880022 0.981852 0.661252 0.120609
H30   H     H_    0.120184 0.478141 0.338619 0.120616
H31   H     H_    0.829095 0.132249 0.922302 0.112670
H32   H     H_    0.170768 0.634851 0.077808 0.112933
O11   O     O_R   0.053190 0.709680 0.082610 -0.531518
O12   O     O_R   0.946810 0.209680 0.917390 -0.531476
O13   O     O_R   0.057740 0.380240 0.950340 -0.539658
O14   O     O_R   0.942260 0.880240 0.049660 -0.539665
C61   C     C_R   0.071471 0.548977 0.932526 0.674048
C62   C     C_R   0.928530 0.048980 0.067474 0.674011
O15   O     O_R   0.060000 0.379940 0.084150 -0.532365
O16   O     O_R   0.940000 0.879940 0.915850 -0.532369
O17   O     O_R   0.949110 0.210100 0.052140 -0.538015
O18   O     O_R   0.050890 0.710100 0.947860 -0.538048
C63   C     C_R   0.074749 0.548234 0.109002 0.676503
C64   C     C_R   0.925256 0.048279 0.890999 0.676555
O19   O     O_3   0.963630 0.543720 0.989330 -0.371962
O20   O     O_3   0.036370 0.043720 0.010670 -0.372000
V3    V     V_3+5 0.006750 0.268680 0.001980 1.411660
V4    V     V_3+5 0.993250 0.768680 0.998020 1.411577

loop_
_geom_bond_atom_site_label_1
_geom_bond_atom_site_label_2
_ccdc_geom_bond_type
C2    C35   S    
O4    V2    S    
C20   C32   S    
C29   C31   A    
O12   V3    S    
C11   H5    S    
C39   C41   A    
O14   V4    S    
O1    C3    A    
O2    C4    A    
C2    O7    A    
C45   C53   A    
C4    C25   S    
C38   H26   S    
O5    C3    A    
C37   H25   S    
C40   C42   A    
C14   C16   A    
C15   C17   S    
C42   C44   A    
C45   C59   A    
C44   C46   A    
O15   V3    S    
C22   C24   A    
C33   H21   S    
O20   V3    S    
C7    C9    A    
C54   H32   S    
O17   V3    S    
O14   C62   A    
C25   C27   A    
C34   C58   A    
C26   C28   A    
C13   H7    S    
O11   V4    S    
C43   C47   A    
C27   C29   A    
C40   H30   S    
C38   C60   A    
C23   H11   S    
O6    V2    S    
C21   H9    S    
C36   C56   A    
C22   H10   S    
C35   C55   A    
O13   V3    S    
C47   C49   A    
C28   H14   S    
C51   C53   A    
C24   H12   S    
C52   C54   A    
C11   C13   A    
C12   C14   A    
C21   C31   A    
C38   C40   A    
C33   C49   A    
O19   V4    S    
C22   C32   A    
C37   C39   A    
O5    V1    S    
C5    C7    A    
C30   C32   A    
O12   C64   A    
C27   H13   S    
C59   C64   S    
C14   H8    S    
C55   H23   S    
C29   H15   S    
C1    C36   S    
C44   C48   A    
C62   O17   A    
C23   C25   A    
O6    C4    A    
C19   C31   S    
C41   H27   S    
C43   C45   A    
O1    V2    S    
C56   H24   S    
O2    V1    S    
C41   C43   A    
C10   C61   S    
C61   O18   A    
C53   H31   S    
C9    C62   S    
O4    C2    A    
C49   C51   A    
C48   C50   A    
C7    H3    S    
C8    H4    S    
C42   H28   S    
H18   C58   S    
C46   C60   A    
C16   C18   S    
O16   C64   A    
O3    V1    S    
O16   V4    S    
C34   C50   A    
C6    C8    A    
O11   C63   A    
C36   C58   A    
C50   C52   A    
O3    C1    A    
H20   C52   S    
C60   C63   S    
H19   C51   S    
C37   C59   A    
C9    C11   A    
C24   C26   A    
C10   C12   A    
C48   C56   A    
C34   H22   S    
C12   H6    S    
O7    V1    S    
C47   C55   A    
C1    O8    A    
C46   C54   A    
C3    C26   S    
O8    V2    S    
C18   C20   T    
O13   C61   A    
C13   C15   A    
C39   H29   S    
C5    H1    S    
C30   H16   S    
C6    H2    S    
C28   C30   A    
C17   C19   T    
C8    C10   A    
O9    V2    S    
H17   C57   S    
C21   C23   A    
O10   V1    S    
O15   C63   A    
C5    C15   A    
C35   C57   A    
C6    C16   A    
O18   V4    S    
C33   C57   A    
