data_mof_unit_23624.cif
_audit_creation_date              2012-12-10T20:27:56-0500
_audit_creation_method            fapswitch 2.2
_symmetry_space_group_name_H-M    P1
_symmetry_Int_Tables_number       1
_space_group_crystal_system       triclinic
_cell_length_a                    12.83382
_cell_length_b                    10.661836
_cell_length_c                    9.915924
_cell_angle_alpha                 89.681975
_cell_angle_beta                  96.94245
_cell_angle_gamma                 90.946301
_cell_volume                      1346.67612002

loop_
_atom_site_label
_atom_site_type_symbol
_atom_type_description
_atom_site_fract_x
_atom_site_fract_y
_atom_site_fract_z
_atom_type_partial_charge
C1    C     C_R   0.493168 0.260432 0.499348 0.927195
C2    C     C_R   0.437517 0.932687 0.382843 -0.181704
C3    C     C_R   0.484164 0.871229 0.499520 -0.249763
C4    C     C_R   0.298427 0.500369 0.473477 0.857732
C5    C     C_R   0.506297 0.936231 0.620869 0.131679
C6    C     C_3   0.600692 0.932415 0.725400 0.150329
C7    C     C_3   0.597864 0.075371 0.724775 0.232628
C8    C     C_R   0.437466 0.417425 0.061716 0.156486
C9    C     C_R   0.569325 0.573532 0.079676 0.464377
C10   C     C_R   0.569098 0.571824 0.936886 -0.055483
C11   C     C_R   0.438238 0.416747 0.919707 0.118310
C12   C     C_R   0.027217 0.466830 0.554658 0.187492
C13   C     C_3   0.321966 0.404384 0.893299 -0.534189
C14   C     C_3   0.320262 0.407454 0.046167 0.224961
C15   C     C_R   0.498397 0.739860 0.499628 0.897867
C16   C     C_R   0.701554 0.499988 0.526591 0.893488
C17   C     C_R   0.813491 0.495967 0.542796 -0.055306
C18   C     C_R   0.186496 0.505396 0.457603 -0.036057
C19   C     C_R   0.025640 0.586076 0.342953 -0.218236
C20   C     C_R   0.133164 0.572601 0.349780 -0.195569
C21   C     C_R   0.133711 0.450903 0.558226 -0.281593
C22   C     C_R   0.972685 0.534319 0.445612 0.187651
C23   C     C_R   0.865938 0.548547 0.440778 -0.277186
C24   C     C_R   0.867293 0.432576 0.653293 -0.163222
C25   C     C_R   0.974627 0.417419 0.658919 -0.216501
C26   C     C_R   0.503108 0.063787 0.620336 -0.078159
C27   C     C_R   0.474380 0.128675 0.499852 -0.243224
C28   C     C_R   0.428842 0.062385 0.383246 0.433924
H1    H     H_    0.823334 0.599048 0.356719 0.177900
H2    H     H_    0.175887 0.397825 0.640349 0.146175
H3    H     H_    0.409342 0.880875 0.291565 0.205709
H4    H     H_    0.695378 0.092997 0.586909 0.330206
H5    H     H_    0.626002 0.658042 0.244121 0.382693
H6    H     H_    0.197931 0.504120 0.065471 0.327960
H7    H     H_    0.289919 0.319973 0.090226 0.123676
H8    H     H_    0.174958 0.618371 0.274329 0.197031
H9    H     H_    0.347589 0.197689 0.296748 0.325446
H10   H     H_    0.640399 0.884881 0.911669 0.347803
H11   H     H_    0.670537 0.889566 0.688342 0.099365
H12   H     H_    0.579939 0.117797 0.821384 0.173656
H13   H     H_    0.623406 0.631534 0.889727 0.180726
H14   H     H_    0.285230 0.487275 0.839447 0.242929
H15   H     H_    0.296754 0.312173 0.847660 0.167796
H16   H     H_    0.825937 0.391294 0.732059 0.187098
H17   H     H_    0.984461 0.638689 0.259672 0.156527
H18   H     H_    0.016112 0.366452 0.743274 0.146296
N1    N     N_R   0.499290 0.499140 0.142710 -0.147435
N2    N     N_R   0.499290 0.499180 0.857070 -0.136376
O1    O     O_R   0.500010 0.316790 0.614690 -0.594816
O2    O     O_3   0.640685 0.654143 0.149846 -0.792272
O3    O     O_3   0.274839 0.517152 0.087311 -0.728142
O4    O     O_3   0.379634 0.119718 0.268449 -0.760428
O5    O     O_3   0.574808 0.881133 0.847562 -0.733547
O6    O     O_R   0.500000 0.316760 0.385350 -0.613478
O7    O     O_R   0.346360 0.499990 0.595720 -0.625310
O8    O     O_R   0.346350 0.499960 0.366370 -0.582537
O9    O     O_R   0.500000 0.683240 0.614650 -0.579020
O10   O     O_R   0.499990 0.683210 0.385310 -0.642227
O11   O     O_R   0.653650 0.500040 0.633630 -0.622544
O12   O     O_R   0.653640 0.500010 0.404280 -0.636956
O13   O     O_3   0.685497 0.132366 0.674967 -0.771481
Zn1   Zn    Zn3+2 0.500010 0.500020 0.653130 0.981356
Zn2   Zn    Zn3+2 0.499990 0.499980 0.346870 0.988291

loop_
_geom_bond_atom_site_label_1
_geom_bond_atom_site_label_2
_ccdc_geom_bond_type
C2    C28   A    
C1    O6    A    
C19   H17   S    
C6    C7    S    
C12   C21   A    
C18   C21   A    
C28   O4    S    
C9    C10   A    
C21   H2    S    
N2    Zn1   S    
C14   O3    S    
C12   C25   A    
C7    H12   S    
C4    C18   S    
C2    C3    A    
C11   N2    A    
C8    N1    A    
O9    Zn1   S    
C13   C14   S    
C4    O8    A    
C10   H13   S    
C10   N2    A    
C15   O9    A    
H6    O3    S    
C17   C23   A    
H10   O5    S    
C7    C26   S    
C8    C11   A    
C23   H1    S    
C13   H14   S    
H4    O13   S    
C9    N1    A    
C18   C20   A    
O12   Zn2   S    
C4    O7    A    
C26   C27   A    
C5    C6    S    
C24   H16   S    
C15   O10   A    
O8    Zn2   S    
C11   C13   S    
C16   C17   S    
O6    Zn2   S    
C6    O5    S    
C5    C26   A    
C17   C24   A    
O7    Zn1   S    
C12   C22   A    
C13   H15   S    
C19   C22   A    
C3    C15   S    
C24   C25   A    
C16   O12   A    
O10   Zn2   S    
C1    C27   S    
H9    O4    S    
C22   C23   A    
C7    O13   S    
O11   Zn1   S    
C8    C14   S    
O1    Zn1   S    
C3    C5    A    
H5    O2    S    
C6    H11   S    
C1    O1    A    
C25   H18   S    
C14   H7    S    
C9    O2    S    
C19   C20   A    
N1    Zn2   S    
C2    H3    S    
C27   C28   A    
C16   O11   A    
C20   H8    S    
