data_mof_unit_10314.cif
_audit_creation_date              2012-12-10T18:51:30-0500
_audit_creation_method            fapswitch 2.2
_symmetry_space_group_name_H-M    P1
_symmetry_Int_Tables_number       1
_space_group_crystal_system       triclinic
_cell_length_a                    10.650357
_cell_length_b                    9.865568
_cell_length_c                    10.501829
_cell_angle_alpha                 89.563902
_cell_angle_beta                  90.103194
_cell_angle_gamma                 89.950702
_cell_volume                      1103.4121252

loop_
_atom_site_label
_atom_site_type_symbol
_atom_type_description
_atom_site_fract_x
_atom_site_fract_y
_atom_site_fract_z
_atom_type_partial_charge
C1    C     C_R   0.872016 0.499879 0.500055 -0.075319
C2    C     C_3   0.396759 0.435995 0.042686 -0.186550
C3    C     C_3   0.396555 0.563762 0.956893 -0.182227
C4    C     C_3   0.603445 0.436238 0.043107 -0.182227
C5    C     C_3   0.500038 0.498443 0.877751 0.041607
C6    C     C_3   0.499962 0.501557 0.122249 0.041607
C7    C     C_R   0.577018 0.071142 0.580150 -0.078291
C8    C     C_R   0.422982 0.928858 0.419850 -0.078292
C9    C     C_R   0.422965 0.072592 0.419859 -0.068777
C10   C     C_R   0.577035 0.927408 0.580140 -0.068777
C11   C     C_R   0.065083 0.429430 0.403931 0.018802
C12   C     C_R   0.127983 0.500120 0.499945 -0.075319
C13   C     C_R   0.934917 0.570568 0.596069 0.018803
C14   C     C_R   0.934737 0.429325 0.403977 0.020133
C15   C     C_R   0.065263 0.570675 0.596023 0.020132
C16   C     C_R   0.260415 0.500048 0.499979 0.953178
C17   C     C_R   0.739585 0.499952 0.500021 0.953179
C18   C     C_R   0.499931 0.500542 0.257264 0.868921
C19   C     C_R   0.500069 0.499458 0.742735 0.868922
C20   C     C_3   0.499756 0.629470 0.039145 -0.141930
C21   C     C_3   0.500244 0.370530 0.960854 -0.141930
C22   C     C_3   0.603241 0.564005 0.957314 -0.186550
H1    H     H_    0.638646 0.124872 0.644317 0.124488
H2    H     H_    0.312915 0.383856 0.082038 0.133742
H3    H     H_    0.109666 0.403155 0.217709 0.165427
H4    H     H_    0.111104 0.258885 0.307278 0.181732
H5    H     H_    0.888896 0.741108 0.692733 0.181731
H6    H     H_    0.890333 0.596831 0.782293 0.165427
H7    H     H_    0.889525 0.403267 0.217775 0.164218
H8    H     H_    0.888933 0.258863 0.307115 0.188996
H9    H     H_    0.111068 0.741138 0.692883 0.188996
H10   H     H_    0.110475 0.596735 0.782225 0.164219
H11   H     H_    0.361354 0.875128 0.355683 0.124488
H12   H     H_    0.361289 0.127480 0.355725 0.130614
H13   H     H_    0.638711 0.872520 0.644275 0.130614
H14   H     H_    0.312543 0.615739 0.917258 0.136426
H15   H     H_    0.687456 0.384261 0.082742 0.136426
H16   H     H_    0.499521 0.735040 0.075049 0.140483
H17   H     H_    0.500479 0.264960 0.924951 0.140483
H18   H     H_    0.687085 0.616144 0.917962 0.133743
N1    N     N_R   0.500000 0.857200 0.500000 -0.078941
N2    N     N_R   0.500000 0.142800 0.500000 -0.078941
N3    N     N_3   0.134697 0.361687 0.306034 -0.469201
N4    N     N_3   0.865302 0.638306 0.693970 -0.469202
N5    N     N_3   0.864944 0.361602 0.306041 -0.458853
N6    N     N_3   0.135056 0.638398 0.693958 -0.458852
O1    O     O_R   0.316770 0.614620 0.499990 -0.614708
O2    O     O_R   0.683230 0.385380 0.500010 -0.614708
O3    O     O_R   0.683230 0.614620 0.500010 -0.613792
O4    O     O_R   0.316770 0.385380 0.499990 -0.613792
O5    O     O_R   0.499970 0.614650 0.313950 -0.636634
O6    O     O_R   0.500030 0.385350 0.686050 -0.636634
O7    O     O_R   0.500030 0.614650 0.686050 -0.616112
O8    O     O_R   0.499970 0.385350 0.313950 -0.616112
Zn1   Zn    Zn3+2 0.500000 0.653120 0.500000 0.952569
Zn2   Zn    Zn3+2 0.500000 0.346880 0.500000 0.952569

loop_
_geom_bond_atom_site_label_1
_geom_bond_atom_site_label_2
_ccdc_geom_bond_type
C18   O5    A    
C7    C10   A    
C11   C12   A    
C17   O2    A    
C11   N3    S    
C10   H13   S    
C5    C19   S    
C20   H16   S    
H8    N5    S    
C1    C17   S    
C21   H17   S    
C12   C15   A    
C22   H18   S    
C19   O7    A    
C2    C21   S    
O7    Zn1   S    
C2    C3    S    
C5    C21   S    
C3    C20   S    
C8    N1    A    
C10   N1    A    
C4    C21   S    
H3    N3    S    
C9    N2    A    
C2    C6    S    
C3    H14   S    
C7    H1    S    
H5    N4    S    
C16   O1    A    
O1    Zn1   S    
C20   C22   S    
H4    N3    S    
C14   N5    S    
O5    Zn1   S    
C8    H11   S    
C13   C15   A    
C2    H2    S    
C9    H12   S    
C6    C18   S    
C11   C14   A    
O8    Zn2   S    
H7    N5    S    
C1    C13   A    
C18   O8    A    
C12   C16   S    
C6    C20   S    
C4    H15   S    
C4    C6    S    
C7    N2    A    
C17   O3    A    
O2    Zn2   S    
C4    C22   S    
N1    Zn1   S    
C1    C14   A    
C15   N6    S    
N2    Zn2   S    
O3    Zn1   S    
H10   N6    S    
C19   O6    A    
H6    N4    S    
C13   N4    S    
O4    Zn2   S    
C5    C22   S    
O6    Zn2   S    
C16   O4    A    
C8    C9    A    
C3    C5    S    
H9    N6    S    
