data_mof_unit_59966.cif
_audit_creation_date              2013-03-05T16:18:08-0500
_audit_creation_method            fapswitch 2.2
_symmetry_space_group_name_H-M    P1
_symmetry_Int_Tables_number       1
_space_group_crystal_system       triclinic
_cell_length_a                    10.801978
_cell_length_b                    9.792838
_cell_length_c                    15.793769
_cell_angle_alpha                 90.138533
_cell_angle_beta                  88.616738
_cell_angle_gamma                 90.352169
_cell_volume                      1670.17407779

loop_
_atom_site_label
_atom_site_type_symbol
_atom_site_description
_atom_site_fract_x
_atom_site_fract_y
_atom_site_fract_z
_atom_type_partial_charge
O1    O     O_R   0.314910 0.616040 0.499980 -0.634752
O2    O     O_R   0.314910 0.383960 0.499980 -0.640871
C1    C     C_R   0.259536 0.499544 0.507677 0.853517
O3    O     O_R   0.500120 0.616090 0.377110 -0.575768
O4    O     O_R   0.500120 0.383910 0.377110 -0.563672
C2    C     C_R   0.497933 0.499747 0.338262 0.975178
Zn1   Zn    Zn3+2 0.500150 0.654960 0.499960 1.013852
Zn2   Zn    Zn3+2 0.500150 0.345040 0.499960 1.014820
O5    O     O_R   0.685320 0.616040 0.499960 -0.554177
O6    O     O_R   0.685320 0.383960 0.499960 -0.582151
O7    O     O_R   0.500110 0.615990 0.622830 -0.615531
O8    O     O_R   0.500110 0.384010 0.622830 -0.621090
C3    C     C_R   0.743869 0.500342 0.499585 1.021095
C4    C     C_R   0.498722 0.500057 0.661267 0.948248
C5    C     C_3   0.413904 0.608801 0.046466 0.068404
C6    C     C_3   0.458830 0.360772 0.046321 0.049208
C7    C     C_3   0.450988 0.367736 0.948987 -0.458908
C8    C     C_3   0.436373 0.623490 0.949450 -0.443950
H1    H     H_    0.344682 0.626126 0.918595 0.187337
H2    H     H_    0.351509 0.368545 0.931711 0.186208
H3    H     H_    0.318453 0.565948 0.054554 0.146603
H4    H     H_    0.361410 0.349193 0.070679 0.153973
H5    H     H_    0.487564 0.273729 0.918686 0.265614
H6    H     H_    0.483023 0.720633 0.931961 0.275349
C9    C     C_1   0.501403 0.499998 0.749408 -0.049935
C10   C     C_3   0.508854 0.500959 0.081490 -0.141882
C11   C     C_3   0.514322 0.501132 0.915181 0.051688
C12   C     C_3   0.654454 0.512317 0.945706 -0.305100
C13   C     C_3   0.647047 0.538084 0.047842 0.352261
C14   C     C_1   0.506236 0.500005 0.824128 0.095133
C15   C     C_1   0.500455 0.499317 0.173646 0.140900
C16   C     C_1   0.497723 0.499118 0.249108 0.052525
C17   C     C_3   0.074667 0.612264 0.567929 -0.451916
C18   C     C_3   0.074676 0.362740 0.543990 -0.436740
H7    H     H_    0.133831 0.705325 0.567975 0.225860
H8    H     H_    0.102449 0.281272 0.497827 0.222745
H9    H     H_    0.082857 0.579127 0.634681 0.212367
H10   H     H_    0.121307 0.334821 0.603507 0.214162
C19   C     C_3   0.938007 0.642267 0.545734 -0.125051
C20   C     C_3   0.931698 0.369131 0.556335 -0.123916
H11   H     H_    0.116482 0.621834 0.396694 0.251069
H12   H     H_    0.142196 0.451137 0.372662 0.210218
C21   C     C_3   0.086265 0.517689 0.415830 -0.409689
C22   C     C_3   0.125344 0.498600 0.508879 0.043926
C23   C     C_3   0.883456 0.501026 0.501297 -0.242226
C24   C     C_3   0.943346 0.495140 0.405896 -0.242776
C25   C     C_3   0.373370 0.079824 0.514207 -0.232925
C26   C     C_3   0.374730 0.918763 0.519326 -0.224167
H13   H     H_    0.307270 0.113212 0.466331 0.231294
H14   H     H_    0.301685 0.874112 0.480086 0.244365
H15   H     H_    0.334317 0.121415 0.574769 0.158298
H16   H     H_    0.345720 0.887273 0.584607 0.152430
C27   C     C_3   0.551786 0.079074 0.417094 0.159498
C28   C     C_3   0.544466 0.918926 0.415347 0.150521
C29   C     C_3   0.574483 0.081657 0.567907 -0.323144
C30   C     C_3   0.580066 0.920203 0.565013 -0.326780
N1    N     N_3   0.499750 0.138610 0.498180 -0.116883
N2    N     N_3   0.499750 0.861390 0.498180 -0.116654
H17   H     H_    0.668451 0.124772 0.565852 0.218067
H18   H     H_    0.676644 0.887240 0.555832 0.224242
H19   H     H_    0.535015 0.114425 0.630409 0.203142
H20   H     H_    0.551422 0.879059 0.628127 0.210906
H21   H     H_    0.651620 0.105492 0.413726 0.146288
H22   H     H_    0.639466 0.882127 0.404526 0.135686
C31   C     C_2   0.939527 0.769917 0.488064 0.913937
O9    O     O_2   0.036090 0.829747 0.468708 -0.589911
O10   O     O_R   0.830234 0.822356 0.458118 -0.844345
H23   H     H_    0.844738 0.906781 0.421982 0.366684
C32   C     C_2   0.891361 0.221805 0.536826 0.895081
O11   O     O_2   0.837384 0.190017 0.473145 -0.647065
O12   O     O_R   0.924249 0.118442 0.593140 -0.771147
H24   H     H_    0.893401 0.025049 0.575415 0.364728
C33   C     C_2   0.892456 0.602359 0.345054 0.961108
O13   O     O_2   0.962037 0.672132 0.300371 -0.521864
O14   O     O_R   0.764912 0.616238 0.336579 -0.756066
H25   H     H_    0.742895 0.698042 0.301192 0.399387
C34   C     C_2   0.918115 0.361895 0.358687 1.012330
O15   O     O_2   0.000603 0.279462 0.343544 -0.561102
O16   O     O_R   0.798879 0.334099 0.330239 -0.712752
H26   H     H_    0.794722 0.244393 0.298324 0.404982
N3    N     N_R   0.499220 0.136820 0.340160 0.259632
O17   O     O_R   0.380475 0.144504 0.329293 -0.304326
O18   O     O_R   0.573532 0.165471 0.276591 -0.286322
N4    N     N_R   0.476206 0.868530 0.341798 0.259898
O19   O     O_R   0.355950 0.867476 0.339908 -0.287883
O20   O     O_R   0.537991 0.847160 0.271331 -0.264995
N5    N     N_R   0.523314 0.237879 0.074567 0.279742
O21   O     O_R   0.463978 0.153304 0.124544 -0.200481
O22   O     O_R   0.622609 0.194523 0.035101 -0.274415
N6    N     N_R   0.409285 0.740292 0.092086 0.287396
O23   O     O_R   0.357389 0.743014 0.167228 -0.274064
O24   O     O_R   0.420550 0.855520 0.051599 -0.240761
N7    N     N_R   0.670855 0.683099 0.072097 0.239758
O25   O     O_R   0.699867 0.710865 0.149678 -0.286064
O26   O     O_R   0.656712 0.785887 0.021329 -0.298895
N8    N     N_R   0.743992 0.458029 0.090494 0.243889
O27   O     O_R   0.717687 0.365887 0.147362 -0.298942
O28   O     O_R   0.858546 0.500082 0.084385 -0.234951
C35   C     C_2   0.730001 0.624840 0.899924 0.974668
O29   O     O_2   0.683956 0.698278 0.846758 -0.601296
O30   O     O_R   0.854387 0.644499 0.920032 -0.707357
H27   H     H_    0.895312 0.720996 0.886227 0.361837
C36   C     C_2   0.726628 0.382450 0.918045 0.973420
O31   O     O_2   0.828844 0.358798 0.946000 -0.501052
O32   O     O_R   0.684146 0.298662 0.852783 -0.788622
H28   H     H_    0.742347 0.220560 0.838634 0.379002
C37   C     C_2   0.873322 0.691304 0.627726 0.866981
O33   O     O_2   0.773283 0.645698 0.652004 -0.588953
O34   O     O_R   0.929449 0.794778 0.674925 -0.791734
H29   H     H_    0.878564 0.821506 0.727076 0.372154
C38   C     C_2   0.892022 0.384310 0.649964 0.938375
O35   O     O_2   0.782280 0.373524 0.670169 -0.596330
O36   O     O_R   0.978768 0.401357 0.713610 -0.805722
H30   H     H_    0.938830 0.408604 0.772188 0.376089

loop_
_geom_bond_atom_site_label_1
_geom_bond_atom_site_label_2
_geom_bond_distance
_ccdc_geom_bond_type
C5    C8    1.552445 S    
C2    C16   1.408133 S    
N5    O21   1.300775 A    
N7    O25   1.299763 A    
C29   H17   1.096744 S    
C19   C31   1.548241 S    
C33   O13   1.224839 D    
C38   O35   1.224172 D    
C29   C30   1.583120 S    
C28   N4    1.473322 S    
N3    O17   1.300874 A    
C25   H13   1.103904 S    
C23   C24   1.626381 S    
C19   C37   1.534001 S    
C7    H5    1.107173 S    
C8    H6    1.106289 S    
C12   C13   1.632246 S    
N4    O20   1.301002 A    
O4    C2    1.291589 A    
O7    C4    1.288557 A    
C7    H2    1.115113 S    
C13   N8    1.487198 S    
C27   N3    1.469413 S    
C8    H1    1.114809 S    
C32   O12   1.402092 S    
O5    C3    1.300897 A    
C38   O36   1.399680 S    
C15   C16   1.191484 T    
C6    C7    1.543346 S    
C31   O10   1.384475 S    
N8    O28   1.303163 A    
C6    N5    1.469847 S    
C37   O33   1.220293 D    
Zn1   N2    2.021833 S    
C19   C23   1.660773 S    
C26   H14   1.102679 S    
C10   C15   1.456259 S    
N7    O26   1.300449 A    
O1    Zn1   2.034623 S    
C11   C14   1.442826 S    
H11   C21   1.109354 S    
O3    Zn1   1.976354 S    
N3    O18   1.300308 A    
C20   C38   1.536750 S    
C34   O16   1.399255 S    
C6    C10   1.576972 S    
C20   C23   1.652580 S    
C1    C22   1.449183 S    
C20   C32   1.537173 S    
O10   H23   1.014968 S    
C7    C11   1.560241 S    
O30   H27   1.013959 S    
C18   C22   1.535296 S    
N4    O19   1.300040 A    
O3    C2    1.293085 A    
C27   N1    1.503864 S    
C5    C10   1.586433 S    
C25   H15   1.113320 S    
C34   O15   1.224912 D    
C17   H9    1.109542 S    
C30   H18   1.100084 S    
O1    C1    1.289501 A    
Zn1   O7    1.978642 S    
O14   H25   1.010736 S    
Zn2   N1    2.021644 S    
C25   N1    1.494481 S    
N6    O24   1.301940 A    
C35   O29   1.223577 D    
C26   H16   1.114033 S    
Zn2   O8    1.976832 S    
N8    O27   1.300023 A    
C36   O32   1.400135 S    
C17   C19   1.555371 S    
C26   N2    1.495868 S    
C12   C35   1.538617 S    
C35   O30   1.400124 S    
O8    C4    1.287115 A    
C29   N1    1.492290 S    
C21   C22   1.550836 S    
C30   H20   1.112298 S    
H12   C21   1.112382 S    
C33   O14   1.394928 S    
C11   C12   1.602708 S    
C3    C23   1.508679 S    
O36   H30   1.013843 S    
C28   N2    1.493989 S    
C9    C14   1.182526 T    
Zn1   O5    2.038492 S    
C6    H4    1.116897 S    
C18   H10   1.112597 S    
C17   C22   1.544744 S    
O2    Zn2   2.039225 S    
C8    C11   1.557213 S    
C25   C26   1.579686 S    
O6    C3    1.299984 A    
O4    Zn2   1.978161 S    
C27   C28   1.570020 S    
C24   C34   1.527602 S    
O32   H28   1.014127 S    
N5    O22   1.300490 A    
O2    C1    1.287592 A    
O12   H24   1.012615 S    
O34   H29   1.013865 S    
C5    N6    1.474542 S    
C13   N7    1.492395 S    
C27   H21   1.107513 S    
C12   C36   1.552129 S    
N6    O23   1.300500 A    
C37   O34   1.400238 S    
C28   H22   1.099055 S    
C29   H19   1.113106 S    
C17   H7    1.109878 S    
C30   N2    1.494554 S    
C18   H8    1.116979 S    
C4    C9    1.393074 S    
C32   O11   1.213674 D    
C21   C24   1.569737 S    
O16   H26   1.013066 S    
C5    H3    1.115383 S    
C10   C13   1.612102 S    
Zn2   O6    2.033890 S    
C31   O9    1.225846 D    
C36   O31   1.222648 D    
C18   C20   1.553646 S    
C24   C33   1.538009 S    
