data_mof_unit_22434.cif
_audit_creation_date              2012-12-11T16:35:26-0500
_audit_creation_method            fapswitch 2.2
_symmetry_space_group_name_H-M    P1
_symmetry_Int_Tables_number       1
_space_group_crystal_system       triclinic
_cell_length_a                    6.929064
_cell_length_b                    17.642502
_cell_length_c                    19.535643
_cell_angle_alpha                 109.125679
_cell_angle_beta                  90.389762
_cell_angle_gamma                 90.606849
_cell_volume                      2256.07379934

loop_
_atom_site_label
_atom_site_type_symbol
_atom_type_description
_atom_site_fract_x
_atom_site_fract_y
_atom_site_fract_z
_atom_type_partial_charge
O1    O     O_R   0.505700 0.440210 0.561730 -0.544441
O2    O     O_R   0.169350 0.406300 0.412660 -0.537749
O3    O     O_R   0.005650 0.559790 0.438270 -0.544816
C1    C     C_R   0.337983 0.382921 0.385020 0.695891
O4    O     O_R   0.175560 0.430650 0.559600 -0.541976
O5    O     O_R   0.011900 0.584320 0.586250 -0.534111
C2    C     C_R   0.344688 0.415363 0.580985 0.680620
O6    O     O_R   0.499450 0.415680 0.413750 -0.533951
O7    O     O_3   0.341370 0.550390 0.508570 -0.366773
V1    V     V_3+5 0.063940 0.490650 0.498410 1.412398
O8    O     O_R   0.682570 0.593700 0.587340 -0.538664
C3    C     C_R   0.852718 0.616972 0.614746 0.698642
O9    O     O_R   0.676370 0.569350 0.440400 -0.541754
C4    C     C_R   0.845269 0.584369 0.418807 0.680657
V2    V     V_3+5 0.564750 0.509350 0.501590 1.414200
O10   O     O_3   0.837190 0.449610 0.491430 -0.367022
C5    C     C_R   0.037975 0.680172 0.284278 -0.148323
H1    H     H_    0.169951 0.678206 0.254468 0.103609
C6    C     C_R   0.026826 0.635145 0.331313 -0.169108
H2    H     H_    0.151213 0.600842 0.336821 0.118120
C7    C     C_R   0.856711 0.633243 0.369648 -0.052243
C8    C     C_R   0.698260 0.677966 0.360006 -0.163365
H3    H     H_    0.565320 0.678233 0.388925 0.121688
C9    C     C_R   0.710251 0.723957 0.313694 -0.144425
H4    H     H_    0.586602 0.759073 0.309218 0.100019
C10   C     C_R   0.880175 0.725606 0.274866 0.090107
C11   C     C_R   0.728963 0.785170 0.186144 -0.145549
H5    H     H_    0.591665 0.757582 0.190869 0.101644
C12   C     C_R   0.740379 0.830934 0.139709 -0.173192
H6    H     H_    0.611143 0.838041 0.111023 0.122091
C13   C     C_R   0.916448 0.866095 0.129677 -0.053571
C14   C     C_R   0.080704 0.854645 0.167593 -0.158710
H7    H     H_    0.218240 0.881500 0.161721 0.118161
C15   C     C_R   0.068786 0.809800 0.214848 -0.144608
H8    H     H_    0.197529 0.804303 0.244456 0.098737
C16   C     C_R   0.892764 0.774123 0.224766 0.089603
H9    H     H_    0.609897 0.651787 0.928171 0.114837
C17   C     C_R   0.060653 0.896403 0.750398 -0.210652
C18   C     C_R   0.129219 0.906207 0.686527 0.177975
C19   C     C_R   0.109815 0.841987 0.621472 -0.112138
C20   C     C_R   0.023913 0.769825 0.620535 -0.187046
C21   C     C_R   0.956123 0.758820 0.684767 0.070939
C22   C     C_R   0.975017 0.823421 0.751042 0.051893
C23   C     C_R   0.866879 0.685530 0.683506 -0.177244
C24   C     C_R   0.796234 0.677084 0.748658 0.067211
C25   C     C_R   0.815437 0.741756 0.815048 0.067506
C26   C     C_R   0.904902 0.814877 0.816234 -0.174679
C27   C     C_R   0.709725 0.604270 0.749441 -0.142758
C28   C     C_R   0.642300 0.595765 0.813573 -0.123528
C29   C     C_R   0.661167 0.658872 0.878364 -0.118835
C30   C     C_R   0.747513 0.730953 0.879488 -0.132259
H10   H     H_    0.074397 0.947301 0.799612 0.110615
H11   H     H_    0.159372 0.846794 0.570691 0.125395
H12   H     H_    0.009928 0.723049 0.568529 0.114788
H13   H     H_    0.694197 0.552871 0.700813 0.106110
H14   H     H_    0.576313 0.539654 0.813020 0.120245
H15   H     H_    0.761775 0.777597 0.931551 0.103205
H16   H     H_    0.059892 0.450823 0.180775 0.120041
C31   C     C_R   0.511176 0.233136 0.382614 -0.125533
C32   C     C_R   0.605843 0.164069 0.383187 -0.122424
C33   C     C_R   0.639920 0.102846 0.318620 -0.122465
C34   C     C_R   0.579336 0.110121 0.252948 -0.147032
C35   C     C_R   0.484524 0.179862 0.250431 0.067012
C36   C     C_R   0.449827 0.242886 0.316749 0.072318
C37   C     C_R   0.420754 0.186684 0.183570 -0.188869
C38   C     C_R   0.322952 0.257073 0.183386 0.072398
C39   C     C_R   0.288213 0.320083 0.249706 0.068334
C40   C     C_R   0.352074 0.313283 0.316565 -0.188785
C41   C     C_R   0.261501 0.266815 0.117525 -0.125348
C42   C     C_R   0.166733 0.335868 0.116964 -0.121179
C43   C     C_R   0.132610 0.397077 0.181539 -0.123079
C44   C     C_R   0.193216 0.389785 0.247199 -0.145885
H17   H     H_    0.484618 0.278174 0.434488 0.101396
H18   H     H_    0.651746 0.157797 0.434122 0.114364
H19   H     H_    0.712565 0.049098 0.319411 0.119692
H20   H     H_    0.607383 0.060279 0.204448 0.112757
H21   H     H_    0.288031 0.221782 0.065644 0.101207
H22   H     H_    0.120770 0.342129 0.066031 0.114803
H23   H     H_    0.164991 0.439566 0.295706 0.108229
C45   C     C_R   0.539978 0.316614 0.713023 -0.148734
H24   H     H_    0.674113 0.317739 0.742073 0.103571
C46   C     C_R   0.528569 0.362456 0.666702 -0.168889
H25   H     H_    0.654998 0.396352 0.660873 0.117501
C47   C     C_R   0.355886 0.365668 0.629497 -0.052372
C48   C     C_R   0.195236 0.321134 0.639375 -0.162687
H26   H     H_    0.060321 0.321732 0.611240 0.121394
C49   C     C_R   0.207409 0.274282 0.684965 -0.145389
H27   H     H_    0.081784 0.239455 0.689759 0.100752
C50   C     C_R   0.379792 0.271596 0.722847 0.087069
C51   C     C_R   0.230465 0.213231 0.812663 -0.146856
H28   H     H_    0.094711 0.241169 0.808309 0.102684
C52   C     C_R   0.242263 0.168442 0.859887 -0.183603
H29   H     H_    0.114609 0.162267 0.889421 0.124156
C53   C     C_R   0.416714 0.132981 0.869558 -0.058909
C54   C     C_R   0.578765 0.142872 0.830250 -0.163428
H30   H     H_    0.714722 0.115479 0.835611 0.116101
C55   C     C_R   0.566320 0.186743 0.782202 -0.142881
H31   H     H_    0.693142 0.191181 0.751629 0.097820
C56   C     C_R   0.392173 0.223042 0.772914 0.092203
O11   O     O_R   0.273230 0.084330 0.086440 -0.534575
O12   O     O_R   0.596660 0.069390 0.940470 -0.541384
O13   O     O_R   0.760270 0.915710 0.913690 -0.536273
C57   C     C_R   0.427534 0.084349 0.918901 0.678754
O14   O     O_R   0.603330 0.093680 0.087390 -0.536581
O15   O     O_R   0.766990 0.940160 0.061660 -0.545085
C58   C     C_R   0.434763 0.117053 0.115115 0.697510
O16   O     O_R   0.266510 0.059870 0.938470 -0.544674
O17   O     O_3   0.431050 0.949630 0.991510 -0.367387
V3    V     V_3+5 0.708490 0.009340 0.001580 1.409289
O18   O     O_R   0.096270 0.930570 0.059390 -0.541332
C59   C     C_R   0.927437 0.915395 0.080897 0.681511
O19   O     O_R   0.089600 0.906290 0.912460 -0.537566
C60   C     C_R   0.919385 0.883220 0.885054 0.699202
V4    V     V_3+5 0.207670 0.990600 0.998190 1.411085
O20   O     O_3   0.935250 0.050360 0.008480 -0.367018
C61   C     C_3   0.220416 0.986573 0.691727 -0.349567
C62   C     C_3   0.291219 0.994614 0.620466 -0.768505
H32   H     H_    0.404869 0.949977 0.596772 0.225686
H33   H     H_    0.169186 0.986598 0.581464 0.223164
H34   H     H_    0.354327 0.055566 0.630938 0.228537
H35   H     H_    0.113367 0.034419 0.715063 0.182089
H36   H     H_    0.345325 0.997853 0.729896 0.188248

loop_
_geom_bond_atom_site_label_1
_geom_bond_atom_site_label_2
_ccdc_geom_bond_type
C27   H13   S    
C49   H27   S    
C35   C37   A    
C11   C12   A    
C20   C21   A    
C37   C58   S    
C41   H21   S    
C54   H30   S    
C1    O6    A    
O19   V4    S    
V4    O20   S    
C48   H26   S    
O17   V3    S    
C31   C36   A    
C12   H6    S    
C61   H36   S    
C50   C56   S    
C5    C10   A    
C36   C40   A    
C4    C7    S    
C6    C7    A    
C9    C10   A    
C39   C44   A    
C44   H23   S    
C62   H33   S    
O5    C3    A    
O14   V3    S    
H16   C43   S    
C38   C41   A    
C42   H22   S    
O12   V3    S    
V2    O10   S    
O18   V4    S    
C61   C62   S    
C15   H8    S    
O17   V4    S    
C45   C50   A    
O18   C59   A    
O8    V2    S    
C6    H2    S    
C42   C43   A    
C30   H15   S    
O7    V1    S    
C31   H17   S    
C2    C47   S    
O15   C59   A    
C31   C32   A    
O12   C57   A    
O9    C4    A    
C34   H20   S    
C41   C42   A    
C21   C23   A    
O14   C58   A    
O19   C60   A    
C55   C56   A    
C55   H31   S    
C48   C49   A    
C61   H35   S    
C39   C40   A    
O11   V4    S    
C9    H4    S    
C45   C46   A    
C62   H34   S    
C18   C19   A    
C1    C40   S    
C29   C30   A    
C24   C25   A    
C25   C30   A    
C33   H19   S    
C32   C33   A    
C14   C15   A    
O2    C1    A    
O16   V4    S    
C34   C35   A    
C51   C52   A    
C13   C14   A    
C52   C53   A    
C5    H1    S    
C53   C54   A    
C47   C48   A    
O3    C4    A    
O1    V2    S    
C10   C16   S    
C19   C20   A    
C53   C57   S    
C28   C29   A    
O6    V2    S    
C46   C47   A    
C49   C50   A    
C8    C9    A    
C21   C22   A    
O2    V1    S    
C51   C56   A    
C23   C24   A    
O4    C2    A    
C24   C27   A    
C26   C60   S    
O15   V3    S    
C25   C26   A    
C27   C28   A    
O1    C2    A    
C45   H24   S    
O5    V1    S    
O8    C3    A    
C54   C55   A    
C11   C16   A    
C28   H14   S    
O11   C58   A    
C14   H7    S    
O9    V2    S    
O7    V2    S    
C17   C22   A    
C12   C13   A    
O3    V1    S    
V1    O10   S    
C62   H32   S    
H9    C29   S    
C51   H28   S    
C17   C18   A    
C18   C61   S    
C32   H18   S    
C52   H29   S    
C5    C6    A    
C38   C39   A    
C15   C16   A    
C37   C38   A    
C33   C34   A    
C20   H12   S    
V3    O20   S    
C19   H11   S    
C35   C36   A    
O4    V1    S    
C17   H10   S    
C3    C23   S    
C46   H25   S    
C11   H5    S    
O13   C60   A    
C13   C59   S    
C8    H3    S    
O13   V3    S    
C57   O16   A    
C43   C44   A    
C7    C8    A    
C22   C26   A    
