data_mof_unit_51394.cif
_audit_creation_date              2013-03-05T15:49:13-0500
_audit_creation_method            fapswitch 2.2
_symmetry_space_group_name_H-M    P1
_symmetry_Int_Tables_number       1
_space_group_crystal_system       triclinic
_cell_length_a                    17.408866
_cell_length_b                    24.571455
_cell_length_c                    14.897022
_cell_angle_alpha                 89.986456
_cell_angle_beta                  125.888416
_cell_angle_gamma                 90.083744
_cell_volume                      5162.63136612

loop_
_atom_site_label
_atom_site_type_symbol
_atom_site_description
_atom_site_fract_x
_atom_site_fract_y
_atom_site_fract_z
_atom_type_partial_charge
C1    C     C_R   0.306993 0.120458 0.908494 -0.094203
C2    C     C_R   0.307173 0.878854 0.908013 -0.090409
C3    C     C_R   0.807089 0.620822 0.908052 -0.089908
C4    C     C_R   0.807069 0.378994 0.907949 -0.087538
H1    H     H_    0.248513 0.126854 0.823036 0.141214
H2    H     H_    0.249472 0.871688 0.822593 0.144154
H3    H     H_    0.749558 0.628021 0.822656 0.147173
H4    H     H_    0.749291 0.372026 0.822440 0.143623
N1    N     N_R   0.392450 0.103580 0.942190 -0.056838
N2    N     N_R   0.392450 0.896420 0.942190 -0.056750
N3    N     N_R   0.892450 0.603580 0.942190 -0.058494
N4    N     N_R   0.892450 0.396420 0.942190 -0.053877
C5    C     C_R   0.401654 0.878118 0.093518 -0.148279
C6    C     C_R   0.401812 0.121522 0.093850 -0.142136
C7    C     C_R   0.901539 0.378205 0.093465 -0.148564
C8    C     C_R   0.901484 0.621664 0.093470 -0.148695
H5    H     H_    0.431466 0.871920 0.179783 0.097368
H6    H     H_    0.431349 0.127234 0.180130 0.095247
H7    H     H_    0.931269 0.372081 0.179734 0.097646
H8    H     H_    0.931164 0.627880 0.179691 0.096387
N5    N     N_R   0.450490 0.896000 0.057360 -0.040615
N6    N     N_R   0.450490 0.104000 0.057360 -0.041203
N7    N     N_R   0.950490 0.396000 0.057360 -0.040169
N8    N     N_R   0.950490 0.604000 0.057360 -0.041739
C9    C     C_R   0.549997 0.045242 0.305746 -0.151730
C10   C     C_R   0.550454 0.954747 0.305993 -0.162719
C11   C     C_R   0.050524 0.545206 0.306028 -0.153191
C12   C     C_R   0.051103 0.454733 0.306213 -0.161271
H9    H     H_    0.563332 0.087247 0.331935 0.088706
H10   H     H_    0.565041 0.912855 0.333093 0.093634
H11   H     H_    0.063552 0.587221 0.332233 0.088127
H12   H     H_    0.065800 0.412819 0.333145 0.093624
N9    N     N_R   0.525490 0.028390 0.207550 -0.033377
N10   N     N_R   0.525490 0.971610 0.207550 -0.032160
N11   N     N_R   0.025490 0.528390 0.207550 -0.032892
N12   N     N_R   0.025490 0.471610 0.207550 -0.032702
C13   C     C_R   0.240104 0.954083 0.696724 -0.092958
C14   C     C_R   0.240255 0.045312 0.695697 -0.127096
C15   C     C_R   0.740143 0.454628 0.695670 -0.119248
C16   C     C_R   0.740222 0.545858 0.696770 -0.095509
H13   H     H_    0.226058 0.912460 0.667585 0.081696
H14   H     H_    0.225387 0.086789 0.665708 0.093010
H15   H     H_    0.725130 0.413149 0.665581 0.094582
H16   H     H_    0.726352 0.587470 0.667697 0.083239
N13   N     N_R   0.317450 0.971190 0.792000 -0.039134
N14   N     N_R   0.317450 0.028810 0.792000 -0.037528
N15   N     N_R   0.817450 0.471190 0.792000 -0.037389
N16   N     N_R   0.817450 0.528810 0.792000 -0.040337
C17   C     C_R   0.312563 0.135592 0.002254 0.065659
C18   C     C_R   0.312057 0.864256 0.001506 0.079431
C19   C     C_R   0.811758 0.635272 0.001493 0.082624
C20   C     C_R   0.811852 0.364434 0.001426 0.078255
C21   C     C_R   0.567578 0.999988 0.369713 0.080093
C22   C     C_R   0.068619 0.499934 0.370175 0.081283
C23   C     C_R   0.191437 0.999483 0.636946 0.050513
C24   C     C_R   0.691447 0.500431 0.636966 0.049249
C25   C     C_R   0.525661 0.045671 0.758689 -0.097096
C26   C     C_R   0.524207 0.954629 0.756844 -0.181376
C27   C     C_R   0.024871 0.545656 0.757687 -0.101919
C28   C     C_R   0.022986 0.454523 0.755512 -0.184080
H17   H     H_    0.533694 0.087751 0.745305 0.114039
H18   H     H_    0.529494 0.912624 0.740505 0.106036
H19   H     H_    0.032741 0.587717 0.744014 0.112574
H20   H     H_    0.027644 0.412461 0.738848 0.106228
N17   N     N_R   0.473900 0.028390 0.792280 -0.051133
N18   N     N_R   0.473900 0.971610 0.792280 -0.039166
N19   N     N_R   0.973900 0.528390 0.792280 -0.050884
N20   N     N_R   0.973900 0.471610 0.792280 -0.037858
C29   C     C_R   0.769654 0.954439 0.248805 -0.138381
C30   C     C_R   0.769391 0.046162 0.249464 -0.113423
C31   C     C_R   0.269376 0.453976 0.249585 -0.123392
C32   C     C_R   0.269713 0.545691 0.248908 -0.132292
H21   H     H_    0.793626 0.912719 0.265563 0.102472
H22   H     H_    0.792547 0.088056 0.266318 0.095421
H23   H     H_    0.292575 0.412149 0.266744 0.095645
H24   H     H_    0.293725 0.587450 0.265651 0.101364
N21   N     N_R   0.682310 0.971180 0.208170 -0.038046
N22   N     N_R   0.682310 0.028820 0.208170 -0.039612
N23   N     N_R   0.182310 0.471180 0.208170 -0.039145
N24   N     N_R   0.182310 0.528820 0.208170 -0.038754
C33   C     C_R   0.651845 0.150575 0.093434 -0.187995
C34   C     C_R   0.652718 0.849727 0.093308 -0.193693
C35   C     C_R   0.152357 0.650387 0.093522 -0.187156
C36   C     C_R   0.153434 0.349921 0.092490 -0.171729
H25   H     H_    0.693251 0.163253 0.179152 0.101053
H26   H     H_    0.694115 0.837008 0.178956 0.102404
H27   H     H_    0.193957 0.663008 0.179284 0.100107
H28   H     H_    0.195877 0.337155 0.178110 0.098782
N25   N     N_R   0.606470 0.103570 0.057210 -0.035144
N26   N     N_R   0.606470 0.896430 0.057210 -0.034696
N27   N     N_R   0.106470 0.603570 0.057210 -0.034707
N28   N     N_R   0.106470 0.396430 0.057210 -0.033759
C37   C     C_R   0.559330 0.848318 0.909132 -0.053235
C38   C     C_R   0.557794 0.152171 0.909451 -0.031671
C39   C     C_R   0.059620 0.348800 0.908199 -0.122986
C40   C     C_R   0.058319 0.652006 0.909433 -0.031427
H29   H     H_    0.515797 0.834173 0.824310 0.095704
H30   H     H_    0.513325 0.166419 0.824808 0.086885
H31   H     H_    0.014505 0.334812 0.823385 0.146398
H32   H     H_    0.014027 0.666276 0.824798 0.088181
N29   N     N_R   0.549740 0.896000 0.943240 -0.047772
N30   N     N_R   0.549740 0.104000 0.943240 -0.048600
N31   N     N_R   0.049740 0.396000 0.943240 -0.044830
N32   N     N_R   0.049740 0.604000 0.943240 -0.048876
Ni1   Ni    Ni4+2 0.433780 0.065390 0.868430 0.203254
Ni2   Ni    Ni4+2 0.433780 0.934610 0.868430 0.205017
Ni3   Ni    Ni4+2 0.933780 0.565390 0.868430 0.204469
Ni4   Ni    Ni4+2 0.933780 0.434610 0.868430 0.209610
Ni5   Ni    Ni4+2 0.565800 0.934190 0.131570 0.212611
Ni6   Ni    Ni4+2 0.565800 0.065810 0.131570 0.212843
Ni7   Ni    Ni4+2 0.065800 0.434190 0.131570 0.213413
Ni8   Ni    Ni4+2 0.065800 0.565810 0.131570 0.211270
C41   C     C_R   0.558388 0.000294 0.735043 0.047082
C42   C     C_R   0.056865 0.500186 0.733402 0.053179
C43   C     C_R   0.824434 0.000543 0.274066 0.029146
C44   C     C_R   0.324449 0.499661 0.274176 0.030523
C45   C     C_R   0.624577 0.181323 0.002017 0.060561
C46   C     C_R   0.626371 0.819276 0.001738 0.064627
C47   C     C_R   0.125408 0.681001 0.002077 0.061392
C48   C     C_R   0.127078 0.319716 0.000215 0.025372
C49   C     C_3   0.034417 0.949263 0.486045 -0.143710
C50   C     C_3   0.021548 0.034565 0.520023 -0.115577
C51   C     C_3   0.521270 0.465444 0.519814 -0.112157
C52   C     C_3   0.534871 0.550777 0.486493 -0.144700
C53   C     C_3   0.956153 0.984722 0.473551 -0.098287
C54   C     C_3   0.456308 0.515363 0.473750 -0.097994
H33   H     H_    0.907846 0.972206 0.495672 0.140194
H34   H     H_    0.408117 0.527890 0.495974 0.138134
H35   H     H_    0.053245 0.907588 0.521439 0.135262
H36   H     H_    0.030831 0.062722 0.584051 0.172803
H37   H     H_    0.530334 0.437218 0.583636 0.176052
H38   H     H_    0.554012 0.592421 0.522182 0.136701
C55   C     C_3   0.925465 0.000820 0.357388 0.160421
C56   C     C_3   0.425471 0.499407 0.357456 0.160413
C57   C     C_3   0.002717 0.965303 0.368590 -0.171631
C58   C     C_3   0.990398 0.050837 0.403279 -0.178010
C59   C     C_3   0.489975 0.449312 0.402932 -0.180563
C60   C     C_3   0.503021 0.534877 0.368903 -0.171411
C61   C     C_3   0.070224 0.015438 0.416909 -0.148509
C62   C     C_3   0.570094 0.484669 0.416812 -0.149176
C63   C     C_3   0.099369 0.999225 0.532176 0.153617
C64   C     C_3   0.599388 0.500732 0.532218 0.153377
H39   H     H_    0.992087 0.937268 0.303756 0.114228
H40   H     H_    0.970670 0.092351 0.367158 0.114583
H41   H     H_    0.469922 0.407835 0.366489 0.113346
H42   H     H_    0.492626 0.562993 0.304299 0.117377
H43   H     H_    0.120166 0.027873 0.397281 0.112712
H44   H     H_    0.619916 0.472224 0.397072 0.113737
C65   C     C_3   0.301856 0.798620 0.122453 -0.485830
C66   C     C_3   0.304573 0.202768 0.122683 -0.490049
C67   C     C_3   0.801235 0.298954 0.122384 -0.485027
C68   C     C_3   0.800251 0.700363 0.122387 -0.488247
H45   H     H_    0.376026 0.784538 0.162421 0.181456
H46   H     H_    0.380985 0.212787 0.165868 0.183465
H47   H     H_    0.875437 0.284851 0.162536 0.181629
H48   H     H_    0.874793 0.714329 0.164118 0.180439
H49   H     H_    0.303461 0.832439 0.173277 0.170983
H50   H     H_    0.299189 0.170954 0.172031 0.170609
H51   H     H_    0.802771 0.332832 0.173076 0.171713
H52   H     H_    0.800531 0.666262 0.171821 0.172038
C69   C     C_3   0.744491 0.251636 0.122488 -0.508298
C70   C     C_3   0.743379 0.747718 0.121943 -0.512015
C71   C     C_3   0.245178 0.751285 0.122556 -0.510561
C72   C     C_3   0.255566 0.254486 0.119825 -0.510506
H53   H     H_    0.209184 0.764319 0.160851 0.189292
H54   H     H_    0.229912 0.247995 0.172130 0.187150
H55   H     H_    0.708570 0.264688 0.160884 0.189999
H56   H     H_    0.705309 0.734397 0.157588 0.190609
H57   H     H_    0.795602 0.218865 0.175344 0.166936
H58   H     H_    0.794710 0.780029 0.176865 0.165946
H59   H     H_    0.296304 0.718544 0.175445 0.167085
H60   H     H_    0.308106 0.288415 0.156651 0.169607
H61   H     H_    0.841595 0.263863 0.972587 0.148675
H62   H     H_    0.845288 0.735776 0.977264 0.148946
H63   H     H_    0.342076 0.763815 0.972293 0.147916
H64   H     H_    0.344805 0.243358 0.989967 0.124434
H65   H     H_    0.788915 0.194882 0.016434 0.058436
H66   H     H_    0.792620 0.804975 0.020586 0.050429
H67   H     H_    0.289963 0.694723 0.016738 0.057335
H68   H     H_    0.251135 0.316228 0.954077 -0.024773
C73   C     C_3   0.765704 0.270750 0.938293 -0.566544
C74   C     C_3   0.768844 0.729327 0.940908 -0.552503
C75   C     C_3   0.266227 0.770554 0.938262 -0.568319
C76   C     C_3   0.269402 0.229864 0.941334 -0.481339
C77   C     C_3   0.151321 0.831653 0.948730 0.276437
C78   C     C_3   0.152952 0.168377 0.950842 0.269666
C79   C     C_3   0.650826 0.332043 0.948477 0.280780
C80   C     C_3   0.650426 0.668593 0.946242 0.274770
C81   C     C_3   0.257526 0.817999 0.001460 0.169455
C82   C     C_3   0.259188 0.182300 0.002704 0.172434
C83   C     C_3   0.757058 0.318277 0.001366 0.167958
C84   C     C_3   0.757424 0.681610 0.001417 0.165868
H69   H     H_    0.150672 0.859083 0.007931 0.073676
H70   H     H_    0.152642 0.137566 0.005581 0.062057
H71   H     H_    0.650197 0.359653 0.007485 0.073627
H72   H     H_    0.647883 0.641609 0.004681 0.076003
C85   C     C_3   0.670074 0.231539 0.001540 0.186732
C86   C     C_3   0.671442 0.768815 0.001297 0.194805
C87   C     C_3   0.170890 0.731165 0.001641 0.185982
C88   C     C_3   0.171335 0.268939 0.998933 0.215792
C89   C     C_3   0.725364 0.218251 0.950715 0.556816
C90   C     C_3   0.729059 0.782001 0.953544 0.560549
C91   C     C_3   0.226270 0.717943 0.950932 0.558459
C92   C     C_3   0.207537 0.278256 0.925593 0.567389
C93   C     C_3   0.597627 0.278981 0.939604 -0.545188
C94   C     C_3   0.597899 0.722192 0.935443 -0.552220
C95   C     C_3   0.098282 0.778494 0.939545 -0.541956
C96   C     C_3   0.101307 0.220024 0.951300 -0.476843
H73   H     H_    0.060849 0.785602 0.978634 0.156846
H74   H     H_    0.075986 0.212504 0.003638 0.133382
H75   H     H_    0.560527 0.286252 0.979064 0.154393
H76   H     H_    0.556967 0.715369 0.970315 0.154104
H77   H     H_    0.540411 0.268414 0.852869 0.184622
H78   H     H_    0.544413 0.733586 0.847958 0.186711
H79   H     H_    0.041438 0.767882 0.852703 0.186036
H80   H     H_    0.037178 0.229317 0.866784 0.216580
H81   H     H_    0.730654 0.282226 0.851049 0.201604
H82   H     H_    0.735154 0.718273 0.853640 0.197110
H83   H     H_    0.230899 0.782040 0.850984 0.200645
H84   H     H_    0.252085 0.216718 0.860629 0.185056
C97   C     C_3   0.624632 0.053301 0.646505 0.608781
C98   C     C_3   0.631143 0.949831 0.651588 0.541774
C99   C     C_3   0.126864 0.552152 0.648336 0.602641
C100  C     C_3   0.127340 0.448652 0.649189 0.567703
H85   H     H_    0.577694 0.088699 0.627906 -0.013963
H86   H     H_    0.602104 0.911336 0.658992 -0.006492
H87   H     H_    0.082112 0.588392 0.631733 -0.012845
H88   H     H_    0.094124 0.411113 0.652532 -0.031188
C101  C     C_3   0.636265 0.047975 0.550898 -0.554877
C102  C     C_3   0.617843 0.946122 0.539489 -0.489030
C103  C     C_3   0.138313 0.547105 0.552521 -0.559058
C104  C     C_3   0.116329 0.445554 0.538423 -0.502203
H89   H     H_    0.711449 0.040383 0.583783 0.209527
H90   H     H_    0.686608 0.937383 0.552857 0.198669
H91   H     H_    0.213300 0.538879 0.585284 0.208815
H92   H     H_    0.185637 0.436484 0.553436 0.198493
H93   H     H_    0.615413 0.087419 0.506355 0.118259
H94   H     H_    0.569459 0.911464 0.491215 0.118862
H95   H     H_    0.118620 0.586807 0.508931 0.119261
H96   H     H_    0.067552 0.411314 0.488520 0.120178
H97   H     H_    0.426047 0.031491 0.535952 0.194004
H98   H     H_    0.437239 0.959237 0.530982 0.194604
H99   H     H_    0.927256 0.534219 0.535142 0.193947
H100  H     H_    0.933994 0.461718 0.528274 0.197648
H101  H     H_    0.444168 0.046729 0.400290 0.171268
H102  H     H_    0.425016 0.974838 0.374178 0.179188
H103  H     H_    0.945953 0.547971 0.399832 0.171491
H104  H     H_    0.924852 0.476213 0.373211 0.179928
C105  C     C_3   0.471447 0.998902 0.537893 -0.598109
C106  C     C_3   0.970775 0.500559 0.536544 -0.602553
C107  C     C_3   0.574104 0.000695 0.647457 0.074252
C108  C     C_3   0.073127 0.500521 0.646458 0.081418
C109  C     C_3   0.574939 0.999995 0.473153 0.277502
C110  C     C_3   0.075499 0.499887 0.473317 0.279305
C111  C     C_3   0.472640 0.005861 0.437706 -0.415202
C112  C     C_3   0.973119 0.506933 0.437109 -0.413156
N33   N     N_R   0.103182 0.860691 0.842611 0.231609
O1    O     O_R   0.082292 0.836726 0.753053 -0.476640
O2    O     O_R   0.077388 0.911015 0.836582 -0.377690
N34   N     N_R   0.102826 0.144638 0.839465 0.228128
O3    O     O_R   0.083255 0.173527 0.755285 -0.412006
O4    O     O_R   0.073834 0.094389 0.823225 -0.405842
N35   N     N_R   0.602785 0.360908 0.842157 0.229097
O5    O     O_R   0.582104 0.336775 0.752822 -0.482818
O6    O     O_R   0.576978 0.411268 0.835738 -0.382312
N36   N     N_R   0.603159 0.639199 0.840528 0.227651
O7    O     O_R   0.584298 0.662628 0.751450 -0.482135
O8    O     O_R   0.575882 0.589144 0.834234 -0.386922
O9    O     O_3   0.680274 0.181342 0.858927 -0.630097
C113  C     C_3   0.620012 0.205076 0.752863 -0.264531
H105  H     H_    0.575527 0.237777 0.749210 0.187515
H106  H     H_    0.570591 0.173479 0.694175 0.140890
H107  H     H_    0.661361 0.219456 0.722419 0.147758
O10   O     O_3   0.685285 0.819285 0.862756 -0.653225
C114  C     C_3   0.630101 0.796295 0.755627 -0.281542
H108  H     H_    0.589086 0.760584 0.748815 0.192285
H109  H     H_    0.675512 0.786695 0.727974 0.169958
H110  H     H_    0.577192 0.826625 0.697282 0.140615
O11   O     O_3   0.181367 0.680916 0.859352 -0.630714
C115  C     C_3   0.121495 0.704557 0.753179 -0.271246
H111  H     H_    0.077440 0.737608 0.749319 0.188625
H112  H     H_    0.071683 0.673060 0.694607 0.141835
H113  H     H_    0.163193 0.718470 0.722888 0.147333
O12   O     O_3   0.128561 0.283091 0.812403 -0.606322
C116  C     C_3   0.154883 0.298150 0.742203 -0.214413
H114  H     H_    0.160489 0.261455 0.703017 0.168838
H115  H     H_    0.222135 0.321682 0.784272 0.116026
H116  H     H_    0.096807 0.322592 0.673389 0.151109
O13   O     O_3   0.712577 0.060834 0.751672 -0.596386
C117  C     C_3   0.761953 0.107327 0.754466 -0.094630
H117  H     H_    0.816168 0.094839 0.741720 0.153466
H118  H     H_    0.800049 0.126049 0.837899 0.181748
H119  H     H_    0.715531 0.138804 0.692081 0.084438
O14   O     O_3   0.730126 0.953857 0.736833 -0.582439
C118  C     C_3   0.753041 0.942685 0.843026 -0.078317
H120  H     H_    0.702839 0.914839 0.842450 0.147605
H121  H     H_    0.757200 0.981156 0.884672 0.167918
H122  H     H_    0.824053 0.923351 0.893860 0.153127
O15   O     O_3   0.215255 0.557502 0.753835 -0.591910
C119  C     C_3   0.266087 0.604102 0.760297 -0.090884
H123  H     H_    0.320341 0.592014 0.747358 0.153338
H124  H     H_    0.304049 0.621489 0.844863 0.179141
H125  H     H_    0.220894 0.636554 0.699919 0.084669
O16   O     O_3   0.225976 0.449974 0.736898 -0.578548
C120  C     C_3   0.245223 0.436628 0.840581 -0.134928
H126  H     H_    0.197422 0.405058 0.835940 0.089123
H127  H     H_    0.242443 0.473666 0.881137 0.180585
H128  H     H_    0.318456 0.420454 0.894902 0.150033

loop_
_geom_bond_atom_site_label_1
_geom_bond_atom_site_label_2
_geom_bond_distance
_ccdc_geom_bond_type
C76   C92   1.528503 S    
C86   C94   1.561293 S    
C117  H119  1.111731 S    
C77   C95   1.557524 S    
C57   C61   1.556021 S    
N4    N7    1.390039 A    
H63   C75   1.115252 S    
O12   C116  1.414819 S    
C71   H53   1.113752 S    
C9    C21   1.377221 A    
C38   C45   1.372846 A    
C39   H31   1.080440 S    
H102  C111  1.114747 S    
C93   H75   1.113611 S    
C106  C108  1.560574 S    
N14   Ni1   1.870120 S    
C33   C45   1.376011 A    
H64   C76   1.114357 S    
O10   C114  1.410773 S    
C35   C47   1.375848 A    
C65   H45   1.114148 S    
C110  C112  1.539915 S    
C14   C23   1.371840 A    
C68   H48   1.114094 S    
C67   C69   1.525169 S    
C30   H22   1.079571 S    
C26   C41   1.393921 A    
C101  H93   1.108938 S    
C67   H47   1.114387 S    
C4    N4    1.327473 A    
C100  O16   1.423454 S    
C94   H78   1.105323 S    
C88   C96   1.554441 S    
H99   C106  1.114325 S    
C74   C84   1.560667 S    
C75   C81   1.560944 S    
N2    N5    1.390039 A    
C9    H9    1.079198 S    
C59   C62   1.549641 S    
C11   H11   1.079487 S    
C12   H12   1.080426 S    
H97   C105  1.114348 S    
C37   N29   1.326285 A    
N4    Ni4   1.878850 S    
C12   C22   1.375972 A    
C51   C54   1.532376 S    
C11   N11   1.327798 A    
N13   N14   1.415810 A    
C78   C82   1.567634 S    
C66   C82   1.554145 S    
C15   C24   1.372293 A    
C8    H8    1.077889 S    
N24   Ni8   1.879781 S    
N12   Ni7   1.884843 S    
C5    N5    1.319746 A    
C49   C57   1.545859 S    
C50   C58   1.540489 S    
C60   C62   1.556132 S    
C105  C111  1.514396 S    
C40   N32   1.324665 A    
C1    H1    1.078280 S    
C34   C46   1.377307 A    
C13   N13   1.327493 A    
C119  H123  1.109848 S    
C15   N15   1.330623 A    
C52   C60   1.545840 S    
N35   O6    1.301301 A    
C75   H83   1.100548 S    
H98   C105  1.114291 S    
C27   H19   1.077315 S    
C73   C89   1.530052 S    
C36   H28   1.080160 S    
N28   Ni7   1.873811 S    
C25   H17   1.077302 S    
C30   C43   1.378466 A    
C35   N27   1.321013 A    
C70   C86   1.558795 S    
C65   C81   1.562342 S    
C78   C96   1.558639 S    
C28   H20   1.077193 S    
C68   C84   1.562022 S    
C102  H90   1.113592 S    
C3    N3    1.327455 A    
C94   H76   1.113281 S    
C76   H84   1.102549 S    
C54   C56   1.533802 S    
C116  H115  1.111653 S    
C53   H33   1.111074 S    
N32   Ni3   1.890646 S    
C99   C108  1.565668 S    
C97   H85   1.112442 S    
C29   N21   1.330526 A    
N8    Ni8   1.880319 S    
C8    C19   1.386057 A    
C102  C109  1.556805 S    
H62   C74   1.115301 S    
C31   N23   1.327445 A    
C118  H121  1.109566 S    
H101  C111  1.114479 S    
C99   H87   1.112242 S    
N16   Ni3   1.870120 S    
N1    Ni1   1.880161 S    
C104  H92   1.113501 S    
C113  H106  1.106277 S    
C52   H38   1.110082 S    
N33   O1    1.299959 A    
C18   C81   1.479585 S    
C2    C18   1.391665 A    
C27   N19   1.329607 A    
C120  H127  1.109173 S    
C86   C90   1.566104 S    
C119  H125  1.111602 S    
C69   H57   1.113765 S    
H103  C112  1.114465 S    
C57   H39   1.109952 S    
C71   C87   1.558496 S    
C55   C57   1.529178 S    
C22   C110  1.469500 S    
N17   Ni1   1.879500 S    
C39   N31   1.324119 A    
C106  C112  1.513655 S    
C114  H110  1.105599 S    
C115  H111  1.095977 S    
C25   C41   1.388959 A    
C17   C82   1.480220 S    
N6    Ni6   1.880319 S    
C99   O15   1.421015 S    
N25   Ni6   1.872526 S    
C20   C83   1.480572 S    
C67   H51   1.113765 S    
N27   Ni8   1.872526 S    
C49   C53   1.534992 S    
C97   O13   1.421230 S    
C88   C92   1.565249 S    
C25   N17   1.330464 A    
C79   C93   1.558251 S    
O13   C117  1.414528 S    
C89   O9    1.431251 S    
N21   Ni5   1.877173 S    
C28   N20   1.325294 A    
C69   H55   1.114054 S    
N36   O8    1.301190 A    
C70   H56   1.113655 S    
H67   C91   1.114996 S    
C10   H10   1.080466 S    
C73   H81   1.100700 S    
H65   C89   1.115311 S    
C72   H60   1.114589 S    
C46   C86   1.470356 S    
C37   H29   1.080982 S    
C52   C54   1.534946 S    
N29   Ni2   1.893340 S    
C29   C43   1.382281 A    
C54   H34   1.111136 S    
C78   H70   1.114880 S    
N34   O3    1.300725 A    
N5    Ni5   1.877648 S    
C77   C81   1.564297 S    
C66   C72   1.518256 S    
C51   C59   1.540524 S    
C41   C107  1.481849 S    
C5    H5    1.078044 S    
C80   C84   1.565562 S    
C6    N6    1.319186 A    
C50   C53   1.532182 S    
C24   C64   1.439273 S    
C32   N24   1.330798 A    
C61   C63   1.530849 S    
C60   H42   1.109994 S    
C40   H32   1.080705 S    
C31   C44   1.377969 A    
C76   C82   1.556542 S    
C13   H13   1.081313 S    
C14   N14   1.330236 A    
N2    Ni2   1.878850 S    
C100  C108  1.573271 S    
C93   H77   1.104346 S    
C5    C18   1.385568 A    
C13   C23   1.368575 A    
C16   H16   1.081312 S    
C98   C102  1.548336 S    
N15   Ni4   1.872705 S    
C95   H73   1.113354 S    
C103  H91   1.112191 S    
N9    Ni6   1.883581 S    
C36   N28   1.322620 A    
C50   C63   1.529057 S    
C33   H25   1.080558 S    
N11   Ni8   1.883581 S    
C9    N9    1.327178 A    
C26   H18   1.076854 S    
C35   H27   1.080585 S    
C23   C63   1.439469 S    
C40   C47   1.372816 A    
C85   C93   1.562169 S    
N11   N12   1.395165 A    
C115  H113  1.109384 S    
C56   C59   1.531929 S    
N35   O5    1.300125 A    
N21   N22   1.416299 A    
C7    H7    1.078160 S    
C80   C94   1.558042 S    
C47   C87   1.466088 S    
C59   H41   1.110072 S    
C62   C64   1.530798 S    
C3    H3    1.076734 S    
O14   C118  1.413272 S    
C44   C56   1.440183 S    
C38   H30   1.080710 S    
C100  H88   1.104467 S    
N30   Ni1   1.890646 S    
C117  H117  1.109962 S    
C28   C42   1.393172 A    
C90   O10   1.429078 S    
C91   O11   1.431170 S    
C16   C24   1.367988 A    
O11   C115  1.412078 S    
C29   H21   1.079982 S    
C71   H59   1.113466 S    
C32   H24   1.080013 S    
C33   N25   1.321758 A    
H61   C73   1.115526 S    
O9    C113  1.412498 S    
C87   C91   1.568618 S    
C113  H107  1.109340 S    
C21   C109  1.469492 S    
C58   C61   1.549724 S    
C99   C103  1.557617 S    
N19   N20   1.395165 A    
C49   C63   1.530768 S    
C104  C110  1.556310 S    
C118  H120  1.105204 S    
C3    C19   1.392052 A    
C43   C55   1.440370 S    
C34   H26   1.080457 S    
O15   C119  1.414451 S    
C116  H114  1.109305 S    
C70   H58   1.113240 S    
C36   C48   1.382383 A    
C42   C108  1.479068 S    
C95   H79   1.104256 S    
C1    N1    1.327931 A    
C7    C20   1.386017 A    
C77   N33   1.469175 S    
N7    Ni7   1.877648 S    
C66   H50   1.113825 S    
C51   H37   1.110837 S    
C74   C90   1.531615 S    
C49   H35   1.110032 S    
H68   C92   1.116786 S    
C39   C48   1.372397 A    
C32   C44   1.382500 A    
C34   N26   1.322532 A    
C69   C85   1.558984 S    
C58   H40   1.110009 S    
C73   C83   1.560807 S    
C27   C42   1.388398 A    
C51   C64   1.528866 S    
C48   C88   1.473321 S    
C12   N12   1.327768 A    
C120  H126  1.108910 S    
C97   C101  1.557234 S    
C113  H105  1.095776 S    
C65   H49   1.113540 S    
C68   C70   1.526408 S    
C72   C88   1.557169 S    
C68   H52   1.113519 S    
N25   N30   1.375571 A    
C30   N22   1.327808 A    
C6    H6    1.077567 S    
N27   N32   1.375571 A    
C4    H4    1.077540 S    
C62   H44   1.110010 S    
C11   C22   1.377481 A    
C61   H43   1.109955 S    
H100  C106  1.114366 S    
C4    C20   1.392110 A    
C114  H109  1.110293 S    
C115  H112  1.106123 S    
C14   H14   1.081763 S    
C116  H116  1.104583 S    
C100  C104  1.547428 S    
N1    N6    1.390023 A    
C6    C17   1.382459 A    
C98   H86   1.107400 S    
N3    N8    1.390023 A    
C103  H95   1.109298 S    
C79   N35   1.469450 S    
C103  C110  1.555092 S    
C16   N16   1.326945 A    
N28   N31   1.375555 A    
C26   N18   1.327785 A    
C97   C107  1.567207 S    
C78   N34   1.468369 S    
C55   C58   1.531628 S    
C85   C89   1.569003 S    
N31   Ni4   1.893340 S    
C65   C71   1.524714 S    
C119  H124  1.108906 S    
C79   C83   1.564855 S    
C98   C107  1.575986 S    
C67   C83   1.562726 S    
C96   H80   1.111921 S    
C101  H89   1.112130 S    
C52   C64   1.531110 S    
C2    H2    1.077155 S    
N18   Ni2   1.878253 S    
C10   N10   1.328238 A    
C118  H122  1.109689 S    
C105  C107  1.561971 S    
N34   O4    1.301118 A    
C109  C111  1.539280 S    
C15   H15   1.081708 S    
C92   O12   1.424781 S    
C80   N36   1.469130 S    
N33   O2    1.301140 A    
N26   N29   1.375555 A    
N15   N16   1.415810 A    
C120  H128  1.109018 S    
C87   C95   1.561667 S    
N9    N10   1.395165 A    
N22   Ni6   1.879780 S    
O16   C120  1.413795 S    
C114  H108  1.096983 S    
C74   H82   1.101634 S    
H66   C90   1.115040 S    
N3    Ni3   1.880161 S    
C102  H94   1.113489 S    
C37   C46   1.374342 A    
C2    N2    1.327229 A    
C10   C21   1.376030 A    
C45   C85   1.467505 S    
N13   Ni2   1.872705 S    
C53   C55   1.533911 S    
C79   H71   1.115648 S    
C77   H69   1.115418 S    
C56   C60   1.529075 S    
C101  C109  1.555101 S    
H104  C112  1.114743 S    
N26   Ni5   1.873811 S    
N23   Ni7   1.877172 S    
C75   C91   1.530294 S    
C72   H54   1.113441 S    
C31   H23   1.079257 S    
N19   Ni3   1.879500 S    
C98   O14   1.423299 S    
C7    N7    1.320178 A    
C117  H118  1.108696 S    
C8    N8    1.320932 A    
N36   O7    1.299811 A    
N23   N24   1.416299 A    
C80   H72   1.115474 S    
C96   H74   1.113106 S    
N17   N18   1.395165 A    
C66   H46   1.113461 S    
C104  H96   1.113404 S    
N10   Ni5   1.884843 S    
N20   Ni4   1.878253 S    
C1    C17   1.392813 A    
C50   H36   1.110798 S    
C19   C84   1.480872 S    
C38   N30   1.325147 A    
