data_mof_unit_63348.cif
_audit_creation_date              2012-12-11T16:10:50-0500
_audit_creation_method            fapswitch 2.2
_symmetry_space_group_name_H-M    P1
_symmetry_Int_Tables_number       1
_space_group_crystal_system       triclinic
_cell_length_a                    12.857725
_cell_length_b                    13.28841
_cell_length_c                    26.948127
_cell_angle_alpha                 97.283015
_cell_angle_beta                  90.105429
_cell_angle_gamma                 118.917469
_cell_volume                      3987.14215969

loop_
_atom_site_label
_atom_site_type_symbol
_atom_type_description
_atom_site_fract_x
_atom_site_fract_y
_atom_site_fract_z
_atom_type_partial_charge
C1    C     C_R   0.628015 0.894625 0.424390 0.543262
C2    C     C_1   0.137888 0.823051 0.179734 -0.041375
C3    C     C_1   0.157748 0.835817 0.232093 -0.001774
C4    C     C_R   0.602059 0.223853 0.443338 0.544989
C5    C     C_1   0.172380 0.842926 0.276763 0.000050
C6    C     C_1   0.193096 0.850225 0.328735 -0.038649
C7    C     C_1   0.219891 0.858936 0.372467 -0.003149
C8    C     C_1   0.689804 0.798403 0.136351 -0.006846
C9    C     C_1   0.673645 0.807726 0.180229 -0.044927
C10   C     C_1   0.662780 0.816779 0.232326 -0.006448
C11   C     C_1   0.657086 0.826001 0.277066 -0.005542
C12   C     C_R   0.724494 0.452902 0.244319 0.018754
C13   C     C_1   0.651235 0.841446 0.329406 -0.042462
C14   C     C_1   0.643580 0.861195 0.373637 -0.004768
C15   C     C_1   0.694002 0.385054 0.874784 -0.003461
C16   C     C_R   0.268234 0.875528 0.422512 0.543584
C17   C     C_1   0.685112 0.358915 0.829994 -0.039013
C18   C     C_1   0.676696 0.338368 0.777243 0.000857
C19   C     C_1   0.668225 0.323214 0.732142 0.001075
C20   C     C_1   0.653901 0.302085 0.679416 -0.038984
C21   C     C_1   0.635193 0.275179 0.634682 -0.003887
C22   C     C_1   0.214600 0.862219 0.608511 -0.011064
C23   C     C_R   0.715017 0.435256 0.294704 -0.080935
C24   C     C_R   0.166344 0.747219 0.720878 -0.110704
C25   C     C_R   0.160514 0.741885 0.772132 -0.107825
C26   C     C_R   0.145086 0.918238 0.785001 -0.115016
C27   C     C_R   0.151271 0.923760 0.733625 -0.112820
C28   C     C_R   0.630615 0.898157 0.563630 0.546812
C29   C     C_R   0.161794 0.838070 0.701634 0.035726
C30   C     C_R   0.150740 0.827771 0.804221 0.035911
C31   C     C_1   0.133360 0.815271 0.855845 -0.058027
C32   C     C_1   0.183869 0.850422 0.650292 -0.059982
C33   C     C_1   0.107643 0.796993 0.897725 -0.009017
C34   C     C_R   0.678015 0.324524 0.307070 0.024885
C35   C     C_1   0.653562 0.857866 0.606623 -0.013776
C36   C     C_R   0.780695 0.810984 0.712903 -0.116302
C37   C     C_R   0.792642 0.794532 0.762217 -0.111588
C38   C     C_R   0.585869 0.742090 0.772347 -0.079231
C39   C     C_R   0.572707 0.758452 0.722880 0.019110
C40   C     C_R   0.602901 0.227126 0.582928 0.543007
C41   C     C_R   0.671859 0.794874 0.693382 0.051287
C42   C     C_R   0.695859 0.762151 0.792085 0.024112
C43   C     C_1   0.711179 0.756250 0.843955 -0.058005
C44   C     C_1   0.665316 0.826919 0.645150 -0.055404
C45   C     C_R   0.695837 0.357323 0.206577 0.052049
C46   C     C_1   0.725951 0.753684 0.887621 -0.008200
C47   C     C_R   0.065037 0.771734 0.084262 0.545921
C48   C     C_R   0.715958 0.438726 0.066640 0.546299
C49   C     C_R   0.720263 0.782261 0.086129 0.555711
C50   C     C_R   0.059754 0.765076 0.944293 0.539512
C51   C     C_R   0.709564 0.432298 0.926617 0.535878
C52   C     C_R   0.267981 0.879306 0.561989 0.545401
C53   C     C_R   0.747769 0.751379 0.939141 0.562753
C54   C     C_1   0.637008 0.274435 0.398584 -0.005310
C55   C     C_R   0.651983 0.230967 0.269553 -0.106492
C56   C     C_1   0.699001 0.371535 0.154694 -0.051519
C57   C     C_R   0.660859 0.247298 0.219404 -0.114518
C58   C     C_3   0.454594 0.740616 0.702732 -0.394503
C59   C     C_3   0.763236 0.572564 0.231332 -0.390137
C60   C     C_1   0.659402 0.303331 0.357833 -0.053585
C61   C     C_1   0.704094 0.394184 0.112800 -0.007777
C62   C     C_1   0.112202 0.804964 0.135352 -0.004216
Cr1   Cr    Cr6+3 0.416010 0.828400 0.490230 1.036439
Cr2   Cr    Cr6+3 0.676380 0.087280 0.505260 1.038151
Cr3   Cr    Cr6+3 0.407590 0.084280 0.504540 1.038569
Cr4   Cr    Cr6+3 0.914090 0.832340 0.018020 1.034096
Cr5   Cr    Cr6+3 0.923310 0.576840 0.003860 1.034142
Cr6   Cr    Cr6+3 0.654200 0.573160 0.004700 1.037781
H1    H     H_    0.622695 0.144845 0.279057 0.121998
H2    H     H_    0.386577 0.710880 0.730720 0.120211
H3    H     H_    0.465171 0.823482 0.692771 0.146871
H4    H     H_    0.421317 0.673884 0.668773 0.141949
H5    H     H_    0.638768 0.173862 0.190603 0.118799
H6    H     H_    0.782075 0.637051 0.265386 0.129955
H7    H     H_    0.845577 0.602133 0.210891 0.143316
H8    H     H_    0.691874 0.570436 0.207211 0.145993
H9    H     H_    0.878021 0.810171 0.777492 0.123408
H10   H     H_    0.511624 0.716983 0.795971 0.114472
H11   H     H_    0.734466 0.506871 0.324147 0.112342
H12   H     H_    0.176415 0.681703 0.696366 0.111608
H13   H     H_    0.162877 0.670583 0.786684 0.113300
H14   H     H_    0.135149 0.983696 0.809599 0.115937
H15   H     H_    0.149557 0.995269 0.719003 0.114720
H16   H     H_    0.857254 0.839821 0.690546 0.116961
O1    O     O_R   0.294740 0.800910 0.434410 -0.503598
O2    O     O_R   0.635480 0.460400 0.052590 -0.503213
O3    O     O_R   0.662650 0.681410 0.060750 -0.488142
O4    O     O_R   0.526010 0.837250 0.440870 -0.493711
O5    O     O_R   0.814500 0.852290 0.965490 -0.499265
O6    O     O_R   0.013160 0.821640 0.966980 -0.512827
O7    O     O_R   0.038850 0.666600 0.954370 -0.502420
O8    O     O_R   0.813260 0.476410 0.948680 -0.495073
O9    O     O_R   0.630060 0.454430 0.944230 -0.511205
O10   O     O_R   0.657630 0.675880 0.960300 -0.489023
O11   O     O_3   0.830530 0.660780 0.008860 -0.280531
O12   O     O_R   0.664100 0.185180 0.560770 -0.494151
O13   O     O_R   0.704290 0.994500 0.446090 -0.504029
O14   O     O_R   0.662870 0.181760 0.460430 -0.493918
O15   O     O_R   0.498970 0.199080 0.457120 -0.503346
O16   O     O_R   0.309350 0.975930 0.448180 -0.493171
O17   O     O_R   0.296060 0.804610 0.542650 -0.507755
O18   O     O_R   0.527240 0.840670 0.541200 -0.496042
O19   O     O_R   0.705610 0.998200 0.554330 -0.504380
O20   O     O_R   0.500290 0.202770 0.565360 -0.504285
O21   O     O_R   0.310570 0.979360 0.548520 -0.493312
O22   O     O_3   0.499990 0.999990 0.500010 -0.254435
O23   O     O_R   0.819910 0.858260 0.073860 -0.498478
O24   O     O_R   0.018180 0.827180 0.067430 -0.492863
O25   O     O_R   0.044260 0.672570 0.062730 -0.500803
O26   O     O_R   0.818270 0.481940 0.049130 -0.490745

loop_
_geom_bond_atom_site_label_1
_geom_bond_atom_site_label_2
_ccdc_geom_bond_type
Cr2   O19   S    
C48   O26   A    
C4    O14   A    
Cr1   O4    S    
C27   C29   A    
Cr6   O2    S    
C49   O3    A    
C19   C20   S    
C34   C60   S    
Cr4   O23   S    
Cr1   O17   S    
C58   H4    S    
C47   C62   S    
C39   C41   A    
C54   C60   T    
C12   C23   A    
C45   C57   A    
C26   C27   A    
C22   C32   T    
C36   C37   A    
C38   C42   A    
C29   C32   S    
C30   C31   S    
C58   H3    S    
C18   C19   T    
C57   H5    S    
C37   C42   A    
C24   C29   A    
C12   C59   S    
C50   O6    A    
C45   C56   S    
C8    C9    T    
C31   C33   T    
C15   C51   S    
C49   O23   A    
C9    C10   S    
C1    O4    A    
Cr2   O14   S    
C34   C55   A    
Cr5   O11   S    
C13   C14   T    
Cr1   O1    S    
C25   H13   S    
C36   C41   A    
C40   O12   A    
Cr1   O18   S    
Cr3   O21   S    
C24   H12   S    
Cr4   O5    S    
C38   C39   A    
C52   O17   A    
Cr6   O11   S    
C24   C25   A    
Cr3   O15   S    
Cr4   O6    S    
C1    O13   A    
C58   H2    S    
C38   H10   S    
C33   C50   S    
C47   O25   A    
C39   C58   S    
C37   H9    S    
Cr6   O10   S    
C51   O8    A    
C40   O20   A    
Cr5   O26   S    
C23   C34   A    
Cr5   O7    S    
C17   C18   S    
Cr1   O22   S    
C35   C44   T    
C59   H6    S    
Cr2   O12   S    
C55   H1    S    
C51   O9    A    
C7    C16   S    
C52   O21   A    
C26   C30   A    
C55   C57   A    
C53   O5    A    
C16   O1    A    
C41   C44   S    
C48   O2    A    
C42   C43   S    
C59   H7    S    
Cr3   O22   S    
C22   C52   S    
C25   C30   A    
C15   C17   T    
Cr2   O13   S    
C4    C54   S    
C53   O10   A    
C16   O16   A    
Cr3   O16   S    
Cr4   O24   S    
C12   C45   A    
C3    C5    T    
Cr2   O22   S    
C6    C7    T    
Cr6   O9    S    
C27   H15   S    
C2    C3    S    
C11   C13   S    
C28   O19   A    
Cr5   O25   S    
C48   C61   S    
C5    C6    S    
C21   C40   S    
C36   H16   S    
C8    C49   S    
C46   C53   S    
Cr5   O8    S    
C43   C46   T    
C10   C11   T    
C28   O18   A    
C50   O7    A    
C20   C21   T    
C26   H14   S    
C47   O24   A    
C4    O15   A    
Cr6   O3    S    
C56   C61   T    
C1    C14   S    
Cr3   O20   S    
C23   H11   S    
C28   C35   S    
C59   H8    S    
C2    C62   T    
Cr4   O11   S    
