data_mof_unit_15683.cif
_audit_creation_date              2012-12-11T16:37:16-0500
_audit_creation_method            fapswitch 2.2
_symmetry_space_group_name_H-M    P1
_symmetry_Int_Tables_number       1
_space_group_crystal_system       triclinic
_cell_length_a                    19.565996
_cell_length_b                    6.938266
_cell_length_c                    17.666417
_cell_angle_alpha                 90.173048
_cell_angle_beta                  109.067832
_cell_angle_gamma                 89.792514
_cell_volume                      2266.68098618

loop_
_atom_site_label
_atom_site_type_symbol
_atom_type_description
_atom_site_fract_x
_atom_site_fract_y
_atom_site_fract_z
_atom_type_partial_charge
O1    O     O_R   0.561710 0.369960 0.440200 -0.548760
O2    O     O_R   0.061710 0.630040 0.940200 -0.504415
O3    O     O_R   0.412630 0.033330 0.406330 -0.548147
O4    O     O_R   0.912630 0.966670 0.906330 -0.551892
O5    O     O_R   0.438290 0.869790 0.559800 -0.541900
O6    O     O_R   0.938290 0.130210 0.059800 -0.547958
C1    C     C_R   0.385319 0.203248 0.382485 0.686251
C2    C     C_R   0.884961 0.796916 0.882944 0.692765
O7    O     O_R   0.559570 0.039810 0.430640 -0.527418
O8    O     O_R   0.059570 0.960190 0.930640 -0.521791
O9    O     O_R   0.586280 0.876320 0.584290 -0.538453
O10   O     O_R   0.086280 0.123680 0.084290 -0.540393
C3    C     C_R   0.579075 0.209257 0.413302 0.678739
C4    C     C_R   0.080337 0.789715 0.914519 0.722447
O11   O     O_R   0.413720 0.363440 0.415710 -0.547477
O12   O     O_R   0.913720 0.636560 0.915710 -0.536952
O13   O     O_3   0.508590 0.205630 0.550380 -0.367171
O14   O     O_3   0.008590 0.794370 0.050380 -0.384678
V1    V     V_3+5 0.498410 0.928130 0.490650 1.403069
V2    V     V_3+5 0.998410 0.071870 0.990650 1.467961
O15   O     O_R   0.587370 0.546990 0.593670 -0.536378
O16   O     O_R   0.087370 0.453010 0.093670 -0.542062
C5    C     C_R   0.614639 0.716891 0.617623 0.709315
C6    C     C_R   0.114816 0.283032 0.117419 0.710782
O17   O     O_R   0.440430 0.540520 0.569360 -0.542852
O18   O     O_R   0.940430 0.459480 0.069360 -0.549848
C7    C     C_R   0.419406 0.710056 0.584991 0.684207
C8    C     C_R   0.919090 0.290849 0.084799 0.661187
V3    V     V_3+5 0.501590 0.428960 0.509350 1.391214
V4    V     V_3+5 0.001590 0.571040 0.009350 1.464784
O19   O     O_3   0.491410 0.701330 0.449620 -0.381563
O20   O     O_3   0.991410 0.298670 0.949620 -0.332764
C9    C     C_R   0.296322 0.917049 0.693304 -0.146706
C10   C     C_R   0.796194 0.088598 0.193747 -0.132613
H1    H     H_    0.273079 0.055968 0.699045 0.100633
H2    H     H_    0.774689 0.949041 0.201232 0.108295
C11   C     C_R   0.342111 0.903005 0.646956 -0.158444
C12   C     C_R   0.842717 0.100616 0.148213 -0.164361
H3    H     H_    0.353446 0.032549 0.619192 0.121814
H4    H     H_    0.856197 0.969257 0.122922 0.119823
C13   C     C_R   0.371778 0.724151 0.635498 -0.052726
C14   C     C_R   0.870572 0.279375 0.134591 -0.048521
C15   C     C_R   0.355345 0.560345 0.672739 -0.166908
C16   C     C_R   0.850999 0.445660 0.168499 -0.161365
H5    H     H_    0.377654 0.420780 0.665966 0.122065
H6    H     H_    0.871552 0.585592 0.159749 0.117400
C17   C     C_R   0.309912 0.574631 0.719455 -0.132946
C18   C     C_R   0.804595 0.433501 0.214314 -0.141477
H7    H     H_    0.299141 0.445544 0.747899 0.106075
H8    H     H_    0.791391 0.564367 0.240147 0.101522
C19   C     C_R   0.279060 0.752753 0.729633 0.102486
C20   C     C_R   0.776176 0.254868 0.227249 0.098072
C21   C     C_R   0.178149 0.614786 0.770199 -0.206866
C22   C     C_R   0.672381 0.386971 0.266468 -0.115978
H9    H     H_    0.176652 0.493983 0.730597 0.097806
H10   H     H_    0.668701 0.504708 0.225177 0.149402
C23   C     C_R   0.130910 0.616017 0.815152 -0.017288
C24   C     C_R   0.622492 0.377280 0.308654 -0.037122
C25   C     C_R   0.129908 0.776412 0.865523 -0.085286
C26   C     C_R   0.626007 0.220435 0.361584 -0.129079
C27   C     C_R   0.178247 0.928881 0.869046 -0.140695
C28   C     C_R   0.677698 0.074742 0.367570 -0.091795
H11   H     H_    0.180134 0.051771 0.907568 0.163958
H12   H     H_    0.681707 0.953480 0.407301 0.124618
C29   C     C_R   0.226420 0.922919 0.825189 -0.138234
C30   C     C_R   0.726258 0.085543 0.324474 -0.120215
H13   H     H_    0.263898 0.040936 0.831246 0.115187
H14   H     H_    0.766079 0.972124 0.332102 0.104920
C31   C     C_R   0.227333 0.764603 0.775729 0.085987
C32   C     C_R   0.724717 0.242670 0.273888 0.040071
C33   C     C_R   0.804541 0.623944 0.760390 0.178561
C34   C     C_R   0.305602 0.373807 0.258571 0.140371
C35   C     C_R   0.817893 0.782978 0.812603 -0.141769
C36   C     C_R   0.318677 0.216789 0.311638 -0.139836
C37   C     C_R   0.764366 0.927477 0.795779 -0.209113
C38   C     C_R   0.265237 0.072822 0.295046 -0.181415
H15   H     H_    0.771868 0.052903 0.834006 0.126555
H16   H     H_    0.272786 0.948174 0.333485 0.121755
C39   C     C_R   0.698305 0.904933 0.732732 -0.170323
C40   C     C_R   0.199016 0.095423 0.232231 -0.172494
H17   H     H_    0.657546 0.016362 0.723215 0.132627
H18   H     H_    0.158241 0.984854 0.223139 0.126086
C41   C     C_R   0.683258 0.735775 0.685392 -0.110320
C42   C     C_R   0.183781 0.263837 0.184734 -0.126119
C43   C     C_R   0.738986 0.600816 0.698821 0.080785
C44   C     C_R   0.239718 0.397000 0.197380 0.120923
C45   C     C_3   0.738191 0.388728 0.711188 -0.489960
C46   C     C_3   0.239449 0.609813 0.208265 -0.424594
C47   C     C_3   0.810616 0.412445 0.777659 -0.191016
C48   C     C_3   0.312449 0.586070 0.274047 -0.214535
H19   H     H_    0.740590 0.306669 0.657904 0.176209
H20   H     H_    0.241101 0.688622 0.154157 0.199078
H21   H     H_    0.693783 0.345682 0.733855 0.171271
H22   H     H_    0.195702 0.656369 0.231578 0.148336
H23   H     H_    0.808937 0.377875 0.838417 0.104361
H24   H     H_    0.311647 0.625156 0.334817 0.101971
C49   C     C_2   0.871901 0.316103 0.758161 0.444211
H25   H     H_    0.876127 0.160263 0.759744 0.054629
O21   O     O_2   0.916762 0.410390 0.740093 -0.549084
C50   C     C_2   0.374352 0.673721 0.253264 0.422591
H26   H     H_    0.409348 0.776901 0.293704 0.079297
O22   O     O_2   0.385335 0.632313 0.190943 -0.514027
C51   C     C_2   0.083234 0.446900 0.804238 0.399551
H27   H     H_    0.050748 0.404249 0.744175 0.081418
O23   O     O_2   0.085565 0.342457 0.860345 -0.508977
C52   C     C_2   0.564900 0.526468 0.292598 0.421495
H28   H     H_    0.515728 0.499609 0.306246 0.064146
O24   O     O_2   0.571196 0.680876 0.262541 -0.524006

loop_
_geom_bond_atom_site_label_1
_geom_bond_atom_site_label_2
_ccdc_geom_bond_type
C30   H14   S    
C45   H19   S    
O13   V3    S    
C21   H9    S    
O4    C2    A    
V1    O19   S    
C49   H25   S    
C17   H7    S    
C3    C26   S    
C4    C25   S    
O9    V1    S    
C37   C39   A    
C36   C38   A    
C12   H4    S    
C38   H16   S    
C12   C14   A    
O3    C1    A    
C22   C24   A    
C44   C46   S    
C23   C25   A    
C52   H28   S    
C24   C26   A    
C26   C28   A    
C8    C14   S    
C27   H11   S    
O7    C3    A    
C2    C35   S    
C28   H12   S    
O13   V1    S    
O5    C7    A    
O7    V1    S    
O6    C8    A    
C46   H20   S    
O8    V2    S    
C29   H13   S    
C33   C47   S    
O3    V1    S    
O14   V4    S    
C10   H2    S    
C40   C42   A    
C18   H8    S    
C21   C31   A    
C2    O12   A    
C33   C43   A    
C13   C15   A    
C14   C16   A    
C48   C50   S    
C49   O21   D    
C16   H6    S    
O11   V3    S    
C1    C36   S    
C46   H22   S    
C43   C45   S    
O17   V3    S    
C23   C51   S    
C22   H10   S    
C25   C27   A    
C28   C30   A    
C34   C36   A    
O8    C4    A    
C33   C35   A    
C21   C23   A    
C17   C19   A    
C1    O11   A    
O15   V3    S    
C9    C11   A    
C9    C19   A    
C47   C49   S    
C24   C52   S    
O4    V2    S    
C47   H23   S    
C34   C48   S    
C7    C13   S    
C22   C32   A    
O10   V2    S    
O1    V3    S    
C51   O23   D    
C15   H5    S    
C5    C41   S    
C40   H18   S    
C41   C43   A    
C46   C48   S    
O18   V4    S    
O15   C5    A    
O16   C6    A    
O1    C3    A    
C35   C37   A    
O12   V4    S    
C39   H17   S    
C50   O22   D    
V2    O20   S    
O16   V4    S    
C10   C12   A    
C10   C20   A    
C38   C40   A    
C42   C44   A    
C34   C44   A    
C48   H24   S    
O5    V1    S    
O17   C7    A    
O6    V2    S    
O10   C6    A    
O18   C8    A    
O2    V4    S    
C45   C47   S    
C6    C42   S    
V3    O19   S    
V4    O20   S    
C30   C32   A    
C52   O24   D    
C29   C31   A    
C45   H21   S    
O9    C5    A    
C50   H26   S    
C9    H1    S    
O14   V2    S    
C11   C13   A    
O2    C4    A    
C20   C32   S    
C39   C41   A    
C27   C29   A    
C18   C20   A    
C11   H3    S    
C37   H15   S    
C51   H27   S    
C19   C31   S    
C15   C17   A    
C16   C18   A    
