data_mof_unit_56475.cif
_audit_creation_date              2012-12-11T14:28:16-0500
_audit_creation_method            fapswitch 2.2
_symmetry_space_group_name_H-M    P1
_symmetry_Int_Tables_number       1
_space_group_crystal_system       triclinic
_cell_length_a                    11.221393
_cell_length_b                    19.915227
_cell_length_c                    18.619824
_cell_angle_alpha                 90.027936
_cell_angle_beta                  89.98355
_cell_angle_gamma                 91.278168
_cell_volume                      4160.05874204

loop_
_atom_site_label
_atom_site_type_symbol
_atom_type_description
_atom_site_fract_x
_atom_site_fract_y
_atom_site_fract_z
_atom_type_partial_charge
C1    C     C_R   0.316743 0.937358 0.637874 0.532926
C2    C     C_R   0.316925 0.937337 0.862081 0.529528
C3    C     C_R   0.316989 0.060289 0.362702 0.512601
C4    C     C_R   0.317475 0.059888 0.137348 0.506818
C5    C     C_R   0.816743 0.437358 0.637874 0.532926
C6    C     C_R   0.816925 0.437337 0.862081 0.529528
C7    C     C_R   0.816989 0.560289 0.362702 0.512601
C8    C     C_R   0.817475 0.559888 0.137348 0.506818
C9    C     C_3   0.147956 0.705995 0.474562 0.036125
C10   C     C_3   0.145210 0.705658 0.024868 0.014427
C11   C     C_3   0.143791 0.307660 0.520281 0.021155
C12   C     C_3   0.143259 0.308246 0.980525 0.010379
C13   C     C_3   0.647956 0.205995 0.474562 0.036125
C14   C     C_3   0.645210 0.205658 0.024868 0.014427
C15   C     C_3   0.643791 0.807660 0.520281 0.021155
C16   C     C_3   0.643259 0.808246 0.980525 0.010379
C17   C     C_3   0.031653 0.725812 0.438290 0.016823
C18   C     C_3   0.028082 0.724468 0.061081 0.015682
C19   C     C_3   0.073378 0.259238 0.569660 0.052044
C20   C     C_3   0.071977 0.260166 0.930985 0.048477
C21   C     C_3   0.531653 0.225812 0.438290 0.016823
C22   C     C_3   0.528082 0.224468 0.061081 0.015682
C23   C     C_3   0.573378 0.759238 0.569660 0.052044
C24   C     C_3   0.571977 0.760166 0.930985 0.048477
C25   C     C_R   0.324273 0.036178 0.437464 -0.024094
C26   C     C_R   0.326480 0.035280 0.063002 -0.029569
C27   C     C_R   0.327147 0.956153 0.561532 -0.028885
C28   C     C_R   0.328440 0.955933 0.938443 -0.035393
C29   C     C_R   0.824273 0.536178 0.437464 -0.024094
C30   C     C_R   0.826480 0.535280 0.063002 -0.029569
C31   C     C_R   0.827147 0.456153 0.561532 -0.028885
C32   C     C_R   0.828440 0.455933 0.938443 -0.035393
C33   C     C_R   0.542989 0.045392 0.442306 -0.126353
C34   C     C_R   0.547204 0.041616 0.059770 -0.068200
C35   C     C_R   0.550336 0.963104 0.558635 -0.112538
C36   C     C_R   0.551605 0.964097 0.939466 -0.049590
C37   C     C_R   0.042989 0.545392 0.442306 -0.126353
C38   C     C_R   0.047204 0.541616 0.059770 -0.068200
C39   C     C_R   0.050336 0.463104 0.558635 -0.112538
C40   C     C_R   0.051604 0.464097 0.939466 -0.049590
C41   C     C_R   0.650196 0.022169 0.464666 0.004283
C42   C     C_R   0.653934 0.019305 0.034555 -0.078894
C43   C     C_R   0.654611 0.992866 0.531972 0.024109
C44   C     C_R   0.655907 0.993960 0.965648 -0.042172
C45   C     C_R   0.150196 0.522169 0.464666 0.004283
C46   C     C_R   0.153934 0.519305 0.034555 -0.078894
C47   C     C_R   0.154611 0.492866 0.531972 0.024109
C48   C     C_R   0.155907 0.493960 0.965648 -0.042172
C49   C     C_R   0.436927 0.978576 0.530439 0.005383
C50   C     C_R   0.438711 0.978346 0.969219 -0.008315
C51   C     C_R   0.434220 0.021050 0.470018 0.008135
C52   C     C_R   0.437009 0.019544 0.030903 -0.003626
C53   C     C_R   0.936927 0.478576 0.530439 0.005383
C54   C     C_R   0.938711 0.478346 0.969219 -0.008315
C55   C     C_R   0.934220 0.521050 0.470018 0.008135
C56   C     C_R   0.937009 0.519544 0.030903 -0.003626
C57   C     C_R   0.219924 0.968261 0.525468 0.022648
C58   C     C_R   0.221768 0.967800 0.974954 0.028893
C59   C     C_R   0.218093 0.016885 0.472057 0.038301
C60   C     C_R   0.220501 0.016831 0.027842 0.044371
C61   C     C_R   0.719924 0.468261 0.525468 0.022648
C62   C     C_R   0.721768 0.467800 0.974954 0.028893
C63   C     C_R   0.718093 0.516886 0.472057 0.038301
C64   C     C_R   0.720501 0.516831 0.027842 0.044371
C65   C     C_R   0.110901 0.939001 0.547621 -0.091153
C66   C     C_R   0.112448 0.938903 0.952902 -0.066813
C67   C     C_R   0.109046 0.046436 0.455905 -0.078608
C68   C     C_R   0.112369 0.047937 0.042573 -0.050897
C69   C     C_R   0.610901 0.439001 0.547621 -0.091153
C70   C     C_R   0.612448 0.438903 0.952902 -0.066813
C71   C     C_R   0.609046 0.546436 0.455905 -0.078608
C72   C     C_R   0.612369 0.547937 0.042573 -0.050897
C73   C     C_R   0.004918 0.968827 0.532138 -0.046052
C74   C     C_R   0.007389 0.970608 0.966252 -0.098487
C75   C     C_R   0.004622 0.024115 0.487672 -0.034273
C76   C     C_R   0.008411 0.027149 0.009049 -0.105906
C77   C     C_R   0.504918 0.468827 0.532138 -0.046052
C78   C     C_R   0.507389 0.470608 0.966252 -0.098487
C79   C     C_R   0.504622 0.524115 0.487672 -0.034273
C80   C     C_R   0.508411 0.527149 0.009049 -0.105906
C81   C     C_R   0.135929 0.758764 0.644227 0.533258
C82   C     C_R   0.134991 0.758498 0.855464 0.535114
C83   C     C_R   0.133141 0.241284 0.355536 0.562311
C84   C     C_R   0.132832 0.241387 0.144680 0.561733
C85   C     C_R   0.635929 0.258764 0.644227 0.533258
C86   C     C_R   0.634991 0.258498 0.855464 0.535114
C87   C     C_R   0.633141 0.741283 0.355536 0.562312
C88   C     C_R   0.632832 0.741387 0.144680 0.561733
C89   C     C_R   0.541267 0.771235 0.644653 0.562100
C90   C     C_R   0.540466 0.771614 0.855751 0.556083
C91   C     C_R   0.501359 0.213641 0.362254 0.518383
C92   C     C_R   0.499989 0.213071 0.137797 0.514623
C93   C     C_R   0.041267 0.271235 0.644653 0.562100
C94   C     C_R   0.040466 0.271614 0.855751 0.556083
C95   C     C_R   0.001359 0.713640 0.362254 0.518383
C96   C     C_R   0.999989 0.713071 0.137797 0.514623
C97   C     C_3   0.040187 0.795357 0.472431 -0.027326
C98   C     C_3   0.034295 0.793958 0.026493 -0.013984
C99   C     C_3   0.126469 0.198919 0.533150 -0.040898
C100  C     C_3   0.124443 0.199516 0.967156 -0.045718
C101  C     C_3   0.540187 0.295357 0.472431 -0.027326
C102  C     C_3   0.534295 0.293958 0.026493 -0.013984
C103  C     C_3   0.626469 0.698920 0.533150 -0.040898
C104  C     C_3   0.624443 0.699516 0.967156 -0.045718
C105  C     C_3   0.158052 0.776603 0.507405 -0.127963
C106  C     C_3   0.153490 0.776391 0.992154 -0.132794
C107  C     C_3   0.197016 0.246806 0.483478 -0.174219
C108  C     C_3   0.195858 0.246978 0.016781 -0.170778
C109  C     C_3   0.658052 0.276603 0.507405 -0.127963
C110  C     C_3   0.653490 0.276391 0.992154 -0.132794
C111  C     C_3   0.697016 0.746806 0.483478 -0.174219
C112  C     C_3   0.695858 0.746978 0.016781 -0.170778
C113  C     C_3   0.086803 0.749620 0.572347 0.002430
C114  C     C_3   0.083876 0.748662 0.926921 0.008537
C115  C     C_3   0.093139 0.246259 0.430221 0.030503
C116  C     C_3   0.092306 0.246700 0.070222 0.036894
C117  C     C_3   0.586803 0.249620 0.572347 0.002430
C118  C     C_3   0.583876 0.248662 0.926921 0.008537
C119  C     C_3   0.593139 0.746259 0.430221 0.030503
C120  C     C_3   0.592306 0.746700 0.070222 0.036894
C121  C     C_3   0.969125 0.769856 0.538696 -0.170914
C122  C     C_3   0.964990 0.767478 0.960066 -0.161076
C123  C     C_3   0.023334 0.196898 0.478910 -0.107258
C124  C     C_3   0.021443 0.197796 0.021640 -0.129099
C125  C     C_3   0.469125 0.269856 0.538696 -0.170914
C126  C     C_3   0.464990 0.267478 0.960066 -0.161076
C127  C     C_3   0.523334 0.696898 0.478910 -0.107258
C128  C     C_3   0.521443 0.697796 0.021640 -0.129099
C129  C     C_3   0.960100 0.699094 0.503676 -0.206240
C130  C     C_3   0.957784 0.696881 0.995547 -0.197770
C131  C     C_3   0.968537 0.258343 0.515743 -0.134602
C132  C     C_3   0.967279 0.259595 0.985153 -0.139799
C133  C     C_3   0.460100 0.199094 0.503676 -0.206240
C134  C     C_3   0.457784 0.196881 0.995547 -0.197770
C135  C     C_3   0.468537 0.758343 0.515743 -0.134602
C136  C     C_3   0.467279 0.759595 0.985153 -0.139799
C137  C     C_3   0.075827 0.679618 0.539986 -0.020735
C138  C     C_3   0.074349 0.678559 0.959322 -0.048349
C139  C     C_3   0.040648 0.306878 0.466428 -0.032750
C140  C     C_3   0.040313 0.307640 0.034518 -0.035056
C141  C     C_3   0.575827 0.179618 0.539986 -0.020735
C142  C     C_3   0.574349 0.178559 0.959322 -0.048349
C143  C     C_3   0.540648 0.806879 0.466428 -0.032750
C144  C     C_3   0.540313 0.807640 0.034518 -0.035056
Cr1   Cr    Cr6+3 0.488160 0.884660 0.750000 1.091955
Cr2   Cr    Cr6+3 0.488160 0.115340 0.250000 1.085654
Cr3   Cr    Cr6+3 0.988160 0.384660 0.750000 1.091955
Cr4   Cr    Cr6+3 0.988160 0.615340 0.250000 1.085654
Cr5   Cr    Cr6+3 0.173480 0.883120 0.750000 1.063064
Cr6   Cr    Cr6+3 0.173480 0.116880 0.250000 1.073236
Cr7   Cr    Cr6+3 0.673480 0.383120 0.750000 1.063064
Cr8   Cr    Cr6+3 0.673480 0.616880 0.250000 1.073236
Cr9   Cr    Cr6+3 0.333410 0.727260 0.750000 1.089170
Cr10  Cr    Cr6+3 0.333410 0.272740 0.250000 1.102537
Cr11  Cr    Cr6+3 0.833410 0.227260 0.750000 1.089170
Cr12  Cr    Cr6+3 0.833410 0.772740 0.250000 1.102537
H1    H     H_    0.231263 0.814787 0.507656 0.091911
H2    H     H_    0.226086 0.814919 0.992489 0.094118
H3    H     H_    0.284379 0.248260 0.457715 0.117449
H4    H     H_    0.283338 0.247298 0.042324 0.112824
H5    H     H_    0.731263 0.314787 0.507656 0.091911
H6    H     H_    0.726086 0.314919 0.992489 0.094118
H7    H     H_    0.784379 0.748260 0.457715 0.117449
H8    H     H_    0.783338 0.747298 0.042324 0.112824
H9    H     H_    0.924812 0.947387 0.553840 0.155615
H10   H     H_    0.926950 0.949637 0.944299 0.161162
H11   H     H_    0.924127 0.048787 0.475503 0.161385
H12   H     H_    0.929100 0.053841 0.018704 0.072734
H13   H     H_    0.424812 0.447387 0.553840 0.155615
H14   H     H_    0.426950 0.449637 0.944299 0.161162
H15   H     H_    0.424127 0.548787 0.475503 0.161385
H16   H     H_    0.429100 0.553841 0.018704 0.072734
H17   H     H_    0.906402 0.790093 0.577264 0.198788
H18   H     H_    0.899781 0.786000 0.921886 0.195869
H19   H     H_    0.972815 0.154554 0.457210 0.129764
H20   H     H_    0.971715 0.156189 0.045548 0.139720
H21   H     H_    0.406403 0.290093 0.577264 0.198788
H22   H     H_    0.399781 0.286000 0.921886 0.195869
H23   H     H_    0.472815 0.654554 0.457210 0.129764
H24   H     H_    0.471715 0.656189 0.045548 0.139720
H25   H     H_    0.883412 0.663286 0.500242 0.104547
H26   H     H_    0.881405 0.660860 0.998874 0.107546
H27   H     H_    0.878042 0.258789 0.537465 0.122381
H28   H     H_    0.876547 0.261099 0.963911 0.110895
H29   H     H_    0.383412 0.163286 0.500242 0.104547
H30   H     H_    0.381405 0.160860 0.998874 0.107545
H31   H     H_    0.378042 0.758789 0.537465 0.122381
H32   H     H_    0.376547 0.761099 0.963911 0.110895
H33   H     H_    0.549558 0.083359 0.403692 0.154151
H34   H     H_    0.556745 0.077987 0.100264 0.204475
H35   H     H_    0.563286 0.929793 0.602218 0.197142
H36   H     H_    0.564900 0.931038 0.895729 0.233031
H37   H     H_    0.049558 0.583359 0.403692 0.154151
H38   H     H_    0.056745 0.577987 0.100264 0.204475
H39   H     H_    0.063286 0.429793 0.602218 0.197142
H40   H     H_    0.064900 0.431038 0.895729 0.233031
H41   H     H_    0.105079 0.088813 0.420747 0.138961
H42   H     H_    0.109594 0.090807 0.077163 0.143709
H43   H     H_    0.107165 0.894854 0.580093 0.149186
H44   H     H_    0.108180 0.894417 0.920884 0.150437
H45   H     H_    0.605079 0.588813 0.420747 0.138961
H46   H     H_    0.609594 0.590807 0.077163 0.143709
H47   H     H_    0.607165 0.394854 0.580093 0.149186
H48   H     H_    0.608180 0.394417 0.920884 0.150437
O1    O     O_R   0.575450 0.828820 0.667950 -0.486435
O2    O     O_R   0.575450 0.828820 0.832050 -0.479457
O3    O     O_R   0.575450 0.171180 0.332050 -0.482843
O4    O     O_R   0.575450 0.171180 0.167950 -0.453016
O5    O     O_R   0.075450 0.328820 0.667950 -0.486435
O6    O     O_R   0.075450 0.328820 0.832050 -0.479457
O7    O     O_R   0.075450 0.671180 0.332050 -0.482843
O8    O     O_R   0.075450 0.671180 0.167950 -0.453016
O9    O     O_R   0.416860 0.942890 0.674680 -0.493743
O10   O     O_R   0.416860 0.942890 0.825320 -0.489231
O11   O     O_R   0.416860 0.057110 0.325320 -0.493252
O12   O     O_R   0.416860 0.057110 0.174680 -0.490905
O13   O     O_R   0.916860 0.442890 0.674680 -0.493743
O14   O     O_R   0.916860 0.442890 0.825320 -0.489231
O15   O     O_R   0.916860 0.557110 0.325320 -0.493252
O16   O     O_R   0.916860 0.557110 0.174680 -0.490905
O17   O     O_R   0.213790 0.953680 0.668330 -0.466317
O18   O     O_R   0.213790 0.953680 0.831670 -0.464613
O19   O     O_R   0.213790 0.046320 0.331670 -0.474472
O20   O     O_R   0.213790 0.046320 0.168330 -0.471791
O21   O     O_R   0.713790 0.453680 0.668330 -0.466317
O22   O     O_R   0.713790 0.453680 0.831670 -0.464613
O23   O     O_R   0.713790 0.546320 0.331670 -0.474472
O24   O     O_R   0.713790 0.546320 0.168330 -0.471791
O25   O     O_R   0.121360 0.817890 0.672660 -0.538003
O26   O     O_R   0.121360 0.817890 0.827340 -0.533341
O27   O     O_R   0.121360 0.182110 0.327340 -0.523584
O28   O     O_R   0.121360 0.182110 0.172660 -0.517942
O29   O     O_R   0.621360 0.317890 0.672660 -0.538003
O30   O     O_R   0.621360 0.317890 0.827340 -0.533341
O31   O     O_R   0.621360 0.682110 0.327340 -0.523584
O32   O     O_R   0.621360 0.682110 0.172660 -0.517942
O33   O     O_R   0.206850 0.711370 0.665820 -0.475146
O34   O     O_R   0.206850 0.711370 0.834180 -0.502244
O35   O     O_R   0.206850 0.288630 0.334180 -0.494608
O36   O     O_R   0.206850 0.288630 0.165820 -0.514228
O37   O     O_R   0.706850 0.211370 0.665820 -0.475146
O38   O     O_R   0.706850 0.211370 0.834180 -0.502244
O39   O     O_R   0.706850 0.788630 0.334180 -0.494608
O40   O     O_R   0.706850 0.788630 0.165820 -0.514228
O41   O     O_R   0.457710 0.733190 0.672630 -0.493173
O42   O     O_R   0.457710 0.733190 0.827370 -0.508959
O43   O     O_R   0.457710 0.266810 0.327370 -0.467135
O44   O     O_R   0.457710 0.266810 0.172630 -0.468460
O45   O     O_R   0.957710 0.233190 0.672630 -0.493173
O46   O     O_R   0.957710 0.233190 0.827370 -0.508959
O47   O     O_R   0.957710 0.766810 0.327370 -0.467135
O48   O     O_R   0.957710 0.766810 0.172630 -0.468460
O49   O     O_3   0.331690 0.831680 0.750000 -0.362125
O50   O     O_3   0.331690 0.168320 0.250000 -0.390800
O51   O     O_3   0.831690 0.331680 0.750000 -0.362125
O52   O     O_3   0.831690 0.668320 0.250000 -0.390800
C145  C     C_1   0.028421 0.854901 0.426806 0.255201
N1    N     N_1   0.021185 0.900300 0.388437 -0.168963
C146  C     C_1   0.015372 0.854089 0.070283 0.232131
N2    N     N_1   0.001454 0.900019 0.107182 -0.244270
C147  C     C_1   0.177158 0.146033 0.577636 0.204280
N3    N     N_1   0.217493 0.105246 0.613906 -0.225864
C148  C     C_1   0.174482 0.146743 0.922109 0.191282
N4    N     N_1   0.214283 0.105996 0.885498 -0.226637
C149  C     C_1   0.528421 0.354901 0.426806 0.255201
N5    N     N_1   0.521185 0.400300 0.388437 -0.168963
C150  C     C_1   0.515372 0.354089 0.070283 0.232131
N6    N     N_1   0.501454 0.400019 0.107182 -0.244270
C151  C     C_1   0.677158 0.646033 0.577636 0.204280
N7    N     N_1   0.717493 0.605246 0.613906 -0.225864
C152  C     C_1   0.674482 0.646743 0.922109 0.191282
N8    N     N_1   0.714283 0.605996 0.885498 -0.226637
C153  C     C_1   0.061084 0.625678 0.593223 0.278349
N9    N     N_1   0.044918 0.587139 0.638880 -0.218556
C154  C     C_1   0.060940 0.625045 0.905539 0.227563
N10   N     N_1   0.045268 0.587094 0.859244 -0.190182
C155  C     C_1   0.988866 0.358490 0.420827 0.240512
N11   N     N_1   0.947636 0.397464 0.382716 -0.215460
C156  C     C_1   0.989240 0.359002 0.080806 0.224121
N12   N     N_1   0.948498 0.397655 0.119541 -0.213244
C157  C     C_1   0.561084 0.125678 0.593223 0.278349
N13   N     N_1   0.544918 0.087139 0.638880 -0.218556
C158  C     C_1   0.560940 0.125045 0.905539 0.227563
N14   N     N_1   0.545268 0.087094 0.859244 -0.190182
C159  C     C_1   0.488866 0.858490 0.420827 0.240512
N15   N     N_1   0.447636 0.897464 0.382716 -0.215460
C160  C     C_1   0.489240 0.859002 0.080806 0.224121
N16   N     N_1   0.448498 0.897655 0.119541 -0.213244
C161  C     C_2   0.250691 0.675132 0.439172 0.219211
H49   H     H_    0.287571 0.631517 0.463257 0.102924
O53   O     O_2   0.295552 0.700328 0.385553 -0.459453
C162  C     C_2   0.248336 0.674194 0.059159 0.271551
H50   H     H_    0.285463 0.631099 0.033696 0.063669
O54   O     O_2   0.293316 0.698358 0.113282 -0.426830
C163  C     C_2   0.236432 0.358090 0.539606 0.154568
H51   H     H_    0.286895 0.381951 0.497279 0.167868
O55   O     O_2   0.263089 0.368323 0.602175 -0.551719
C164  C     C_2   0.235943 0.359122 0.962457 0.180167
H52   H     H_    0.283726 0.384002 0.005465 0.082969
O56   O     O_2   0.264363 0.369374 0.900184 -0.475296
C165  C     C_2   0.750691 0.175132 0.439172 0.219211
H53   H     H_    0.787571 0.131517 0.463257 0.102924
O57   O     O_2   0.795552 0.200328 0.385553 -0.459453
C166  C     C_2   0.748336 0.174194 0.059159 0.271551
H54   H     H_    0.785462 0.131099 0.033696 0.063669
O58   O     O_2   0.793316 0.198358 0.113282 -0.426830
C167  C     C_2   0.736432 0.858090 0.539606 0.154568
H55   H     H_    0.786895 0.881952 0.497279 0.167868
O59   O     O_2   0.763089 0.868323 0.602175 -0.551719
C168  C     C_2   0.735943 0.859122 0.962457 0.180167
H56   H     H_    0.783726 0.884002 0.005465 0.082969
O60   O     O_2   0.764362 0.869374 0.900184 -0.475296
C169  C     C_2   0.741607 0.014475 0.408413 0.213905
H57   H     H_    0.749517 0.050963 0.365288 0.152729
O61   O     O_2   0.801674 0.964446 0.405517 -0.514626
C170  C     C_2   0.752073 0.009289 0.086106 0.203639
H58   H     H_    0.820213 0.973781 0.074209 0.123637
O62   O     O_2   0.754678 0.037879 0.144172 -0.452284
C171  C     C_2   0.746690 0.013003 0.585449 0.233840
H59   H     H_    0.755109 0.985353 0.635232 0.190073
O63   O     O_2   0.804690 0.065166 0.579031 -0.546250
C172  C     C_2   0.749740 0.016197 0.914189 0.244582
H60   H     H_    0.811301 0.056367 0.928387 0.084210
O64   O     O_2   0.752448 0.994730 0.852741 -0.428869
C173  C     C_2   0.241607 0.514475 0.408413 0.213905
H61   H     H_    0.249517 0.550963 0.365288 0.152729
O65   O     O_2   0.301674 0.464446 0.405517 -0.514626
C174  C     C_2   0.252073 0.509289 0.086106 0.203640
H62   H     H_    0.320213 0.473781 0.074209 0.123636
O66   O     O_2   0.254678 0.537879 0.144172 -0.452284
C175  C     C_2   0.246690 0.513003 0.585449 0.233840
H63   H     H_    0.255109 0.485353 0.635232 0.190073
O67   O     O_2   0.304690 0.565166 0.579031 -0.546250
C176  C     C_2   0.249740 0.516197 0.914189 0.244582
H64   H     H_    0.311301 0.556367 0.928387 0.084210
O68   O     O_2   0.252448 0.494730 0.852741 -0.428869

loop_
_geom_bond_atom_site_label_1
_geom_bond_atom_site_label_2
_ccdc_geom_bond_type
C172  O64   D    
C7    C29   S    
C119  C143  S    
Cr6   O19   S    
C11   C107  S    
C6    C32   S    
C120  C144  S    
C110  C118  S    
C165  H53   S    
C85   O29   A    
Cr5   O26   S    
C16   C144  S    
Cr4   O8    S    
Cr10  O50   S    
C57   C59   A    
C58   C60   A    
C152  N8    T    
Cr6   O28   S    
C62   C70   A    
C1    O17   A    
C61   C63   A    
C62   C64   A    
C65   H43   S    
C23   C103  S    
C49   C51   A    
C34   C42   A    
C50   C52   A    
C23   C89   S    
C128  H24   S    
C97   C105  S    
C47   C175  S    
C81   O25   A    
Cr2   O50   S    
C144  C160  S    
C73   C75   A    
C42   C44   A    
Cr11  O45   S    
C21   C133  S    
C83   O35   A    
C45   C47   A    
C70   H48   S    
C112  H8    S    
C46   C48   A    
C115  C123  S    
C27   C57   A    
C57   C65   A    
C112  C120  S    
C19   C99   S    
C10   C162  S    
C29   C55   A    
Cr7   O30   S    
C30   C56   A    
C170  H58   S    
C100  C124  S    
C37   H37   S    
Cr3   O13   S    
C44   C172  S    
C104  C128  S    
C86   O38   A    
Cr9   O42   S    
C12   C20   S    
C120  C128  S    
C13   C21   S    
C85   C117  S    
Cr7   O21   S    
C63   C71   A    
C2    O10   A    
C113  C137  S    
C36   C44   A    
C33   C51   A    
C164  H52   S    
C80   H16   S    
C37   C45   A    
C130  C138  S    
C36   C50   A    
C39   C47   A    
C40   C48   A    
Cr9   O49   S    
C46   C174  S    
C139  C155  S    
Cr2   O3    S    
C24   C90   S    
Cr8   O32   S    
C28   C58   A    
C98   C106  S    
C162  O54   D    
C104  C152  S    
C33   C41   A    
C4    O20   A    
C7    O23   A    
C10   C18   S    
Cr3   O51   S    
C5    O21   A    
C76   H12   S    
C84   O28   A    
Cr4   O15   S    
Cr6   O50   S    
C32   C62   A    
Cr1   O10   S    
Cr11  O38   S    
C129  C137  S    
C99   C147  S    
C42   C170  S    
C133  C141  S    
C10   C138  S    
C24   C104  S    
C3    O11   A    
C66   H44   S    
C14   C142  S    
C4    O12   A    
C134  H30   S    
C69   C77   A    
C71   C79   A    
C8    O24   A    
Cr12  O47   S    
C87   O31   A    
C163  O55   D    
C11   C163  S    
C74   C76   A    
C8    O16   A    
C33   H33   S    
C147  N3    T    
C78   C80   A    
C169  O61   D    
Cr5   O49   S    
C66   C74   A    
Cr10  O36   S    
C78   H14   S    
C124  C132  S    
C111  C119  S    
C145  N1    T    
C20   C94   S    
C173  O65   D    
C97   C121  S    
Cr12  O40   S    
C59   C67   A    
C89   O41   A    
C35   C49   A    
C101  C125  S    
C126  H22   S    
Cr3   O6    S    
C103  C127  S    
C133  H29   S    
C24   C136  S    
C135  C143  S    
C41   C169  S    
C84   C116  S    
C90   O2    A    
C155  N11   T    
C136  H32   S    
C9    C137  S    
C94   O46   A    
C135  H31   S    
C121  H17   S    
C100  C108  S    
C83   C115  S    
C34   H34   S    
C73   H9    S    
C104  C112  S    
C176  H64   S    
C122  H18   S    
C20   C132  S    
C87   C119  S    
Cr8   O23   S    
C161  H49   S    
C43   C171  S    
C126  C134  S    
C92   O44   A    
C15   C143  S    
Cr4   O52   S    
C40   C54   A    
C102  C150  S    
C10   C106  S    
C67   C75   A    
Cr5   O18   S    
C72   H46   S    
C6    O22   A    
C48   C176  S    
C14   C110  S    
C3    O19   A    
C36   H36   S    
Cr6   O20   S    
C174  H62   S    
C102  C126  S    
C123  H19   S    
C150  N6    T    
C94   O6    A    
C124  H20   S    
C103  C111  S    
C68   C76   A    
C138  C154  S    
C127  H23   S    
C14   C22   S    
C72   C80   A    
C93   O5    A    
C83   O27   A    
C81   O33   A    
C114  C138  S    
C89   O1    A    
C38   C46   A    
C131  C139  S    
C45   C173  S    
C37   C55   A    
C38   C56   A    
Cr10  O43   S    
C158  N14   T    
C22   C92   S    
C25   C59   A    
C26   C60   A    
C27   C49   A    
C119  C127  S    
C98   C146  S    
C29   C63   A    
C96   O8    A    
C30   C64   A    
C41   C43   A    
C31   C61   A    
C154  N10   T    
C171  O63   D    
C109  C117  S    
C148  N4    T    
C11   C19   S    
C86   O30   A    
Cr9   O34   S    
C103  C151  S    
C99   C123  S    
C127  C135  S    
C128  C136  S    
C101  C109  S    
Cr7   O29   S    
C2    O18   A    
C170  O62   D    
C79   H15   S    
C11   C139  S    
C6    O14   A    
C131  H27   S    
C105  H1    S    
Cr9   O41   S    
C35   H35   S    
C156  N12   T    
C12   C140  S    
C17   C95   S    
C13   C141  S    
C88   C120  S    
Cr2   O11   S    
C19   C93   S    
C77   C79   A    
C172  H60   S    
C82   O26   A    
C151  N7    T    
Cr1   O49   S    
C164  O56   D    
C32   C54   A    
C16   C168  S    
C165  O57   D    
C110  H6    S    
C91   O43   A    
C167  H55   S    
C3    C25   S    
Cr2   O4    S    
Cr4   O7    S    
C95   O47   A    
C163  H51   S    
C2    C28   S    
Cr1   O1    S    
C38   H38   S    
C117  C141  S    
C175  H63   S    
C159  N15   T    
C142  C158  S    
C134  C142  S    
C91   O3    A    
C160  N16   T    
C20   C100  S    
C100  C148  S    
C85   O37   A    
C86   C118  S    
Cr4   O16   S    
C141  C157  S    
Cr1   O9    S    
Cr11  O37   S    
C106  C114  S    
C143  C159  S    
C1    O9    A    
C102  C110  S    
C96   O48   A    
C74   H10   S    
C16   C112  S    
Cr8   O52   S    
C21   C91   S    
C105  C113  S    
C101  C149  S    
C168  H56   S    
C12   C164  S    
C116  C124  S    
C123  C131  S    
C121  C129  S    
C67   H41   S    
C88   O40   A    
C4    C26   S    
Cr12  O48   S    
C15   C167  S    
C132  C140  S    
C99   C107  S    
C34   C52   A    
C23   C135  S    
C8    C30   S    
C108  C116  S    
Cr5   O25   S    
C136  C144  S    
Cr3   O14   S    
C132  H28   S    
C169  H57   S    
C39   C53   A    
C39   H39   S    
C90   O42   A    
C173  H61   S    
Cr6   O27   S    
C171  H59   S    
Cr7   O22   S    
C60   C68   A    
C81   C113  S    
Cr3   O5    S    
C9    C105  S    
C70   C78   A    
C18   C96   S    
C97   C145  S    
Cr8   O31   S    
C22   C134  S    
C5    O13   A    
C162  H50   S    
C176  O68   D    
C65   C73   A    
C68   H42   S    
C137  C153  S    
Cr8   O24   S    
Cr11  O51   S    
C58   C66   A    
C13   C109  S    
C149  N5    T    
C21   C101  S    
C15   C23   S    
C12   C108  S    
C16   C24   S    
C13   C165  S    
C140  C156  S    
C84   O36   A    
Cr5   O17   S    
Cr1   O2    S    
Cr11  O46   S    
C93   O45   A    
C53   C55   A    
C19   C131  S    
C88   O32   A    
C107  H3    S    
C54   C56   A    
C17   C129  S    
C15   C111  S    
C111  H7    S    
C82   C114  S    
C174  O66   D    
C130  H26   S    
C28   C50   A    
C157  N13   T    
C106  H2    S    
Cr10  O35   S    
C167  O59   D    
C25   C51   A    
C92   O4    A    
Cr12  O39   S    
C26   C52   A    
C87   O39   A    
C125  C133  S    
C153  N9    T    
C113  C121  S    
C31   C53   A    
C175  O67   D    
C107  C115  S    
C98   C122  S    
C9    C17   S    
C166  H54   S    
Cr10  O44   S    
C69   H47   S    
C125  H21   S    
C146  N2    T    
C168  O60   D    
C35   C43   A    
Cr7   O51   S    
C40   H40   S    
C61   C69   A    
C71   H45   S    
C129  H25   S    
C115  C139  S    
C118  C142  S    
C75   H11   S    
C108  H4    S    
C95   O7    A    
C18   C98   S    
C22   C102  S    
Cr9   O33   S    
C7    O15   A    
C109  H5    S    
C9    C161  S    
C17   C97   S    
C82   O34   A    
C166  O58   D    
C161  O53   D    
C64   C72   A    
C18   C130  S    
C114  C122  S    
C77   H13   S    
C1    C27   S    
C14   C166  S    
C118  C126  S    
C116  C140  S    
C117  C125  S    
C122  C130  S    
Cr2   O12   S    
Cr12  O52   S    
C5    C31   S    
