data_mof_unit_66900.cif
_audit_creation_date              2013-03-05T15:57:25-0500
_audit_creation_method            fapswitch 2.2
_symmetry_space_group_name_H-M    P1
_symmetry_Int_Tables_number       1
_space_group_crystal_system       triclinic
_cell_length_a                    17.448979
_cell_length_b                    18.527917
_cell_length_c                    8.675849
_cell_angle_alpha                 90.494788
_cell_angle_beta                  102.298575
_cell_angle_gamma                 89.50337
_cell_volume                      2740.30546742

loop_
_atom_site_label
_atom_site_type_symbol
_atom_site_description
_atom_site_fract_x
_atom_site_fract_y
_atom_site_fract_z
_atom_type_partial_charge
P1    P     P_3+3 0.834140 0.419320 0.003900 0.434922
P2    P     P_3+3 0.834140 0.580680 0.503900 0.449732
P3    P     P_3+3 0.334140 0.919320 0.003900 0.467490
P4    P     P_3+3 0.334140 0.080680 0.503900 0.448578
O1    O     O_2   0.841960 0.394640 0.833410 -0.323023
O2    O     O_2   0.841960 0.605360 0.333410 -0.411285
O3    O     O_2   0.341960 0.894640 0.833410 -0.348990
O4    O     O_2   0.341960 0.105360 0.333410 -0.377291
O5    O     O_3   0.907950 0.463080 0.102990 -0.410001
O6    O     O_3   0.907950 0.536920 0.602990 -0.367346
O7    O     O_3   0.407950 0.963080 0.102990 -0.373177
O8    O     O_3   0.407950 0.036920 0.602990 -0.357683
O9    O     O_3   0.972780 0.329600 0.629720 -0.367742
O10   O     O_3   0.972780 0.670400 0.129720 -0.380087
O11   O     O_3   0.472780 0.829600 0.629720 -0.350506
O12   O     O_3   0.472780 0.170400 0.129720 -0.367080
O13   O     O_2   0.818558 0.328591 0.599244 -0.382841
O14   O     O_2   0.836945 0.723094 0.179279 -0.391274
O15   O     O_2   0.325396 0.799860 0.643626 -0.362238
O16   O     O_2   0.317791 0.162143 0.089317 -0.401124
O17   O     O_3   0.753764 0.477661 0.965859 -0.599975
O18   O     O_3   0.754108 0.523514 0.475971 -0.590696
O19   O     O_3   0.246939 0.967837 0.973931 -0.630753
O20   O     O_3   0.255983 0.020164 0.463892 -0.591568
O21   O     O_3   0.875226 0.203199 0.671480 -0.506904
O22   O     O_3   0.931258 0.816849 0.109778 -0.538869
O23   O     O_3   0.414643 0.690637 0.670964 -0.503599
O24   O     O_3   0.369313 0.289047 0.174874 -0.499295
H1    H     H_    0.948621 0.118291 0.742761 0.101161
H2    H     H_    0.045519 0.812053 0.080714 0.090780
H3    H     H_    0.517238 0.633829 0.692903 0.132494
H4    H     H_    0.450342 0.359774 0.282220 0.087980
C1    C     C_3   0.882765 0.091555 0.519255 -1.012931
C2    C     C_3   0.988038 0.911466 0.991414 -1.063838
C3    C     C_3   0.424620 0.583335 0.521980 -1.070275
C4    C     C_3   0.395286 0.403295 0.058098 -1.053469
H5    H     H_    0.466160 0.547156 0.481555 0.247425
H6    H     H_    0.434114 0.450110 0.093838 0.244522
H7    H     H_    0.920171 0.042486 0.526591 0.231298
H8    H     H_    0.034192 0.924766 0.926000 0.245050
H9    H     H_    0.825682 0.076734 0.545840 0.307940
H10   H     H_    0.999576 0.940604 0.104607 0.285386
H11   H     H_    0.398270 0.552361 0.605369 0.281807
H12   H     H_    0.335047 0.418477 0.067047 0.307596
P5    P     P_3+3 0.165830 0.418670 0.685610 0.444287
P6    P     P_3+3 0.165830 0.581330 0.185610 0.443426
P7    P     P_3+3 0.665830 0.918670 0.685610 0.444173
P8    P     P_3+3 0.665830 0.081330 0.185610 0.450042
P9    P     P_3+3 0.110462 0.272912 0.114956 0.478923
P10   P     P_3+3 0.103596 0.730727 0.628562 0.414633
P11   P     P_3+3 0.604669 0.767291 0.113686 0.453536
P12   P     P_3+3 0.605545 0.230084 0.619913 0.456143
O25   O     O_2   0.157990 0.394030 0.856030 -0.345498
O26   O     O_2   0.157990 0.605970 0.356030 -0.395973
O27   O     O_2   0.657990 0.894030 0.856030 -0.397982
O28   O     O_2   0.657990 0.105970 0.356030 -0.345663
O29   O     O_3   0.027110 0.329490 0.059550 -0.373169
O30   O     O_3   0.027110 0.670510 0.559550 -0.396043
O31   O     O_3   0.527110 0.829490 0.059550 -0.380336
O32   O     O_3   0.527110 0.170510 0.559550 -0.377977
O33   O     O_2   0.169067 0.287352 0.009690 -0.364606
O34   O     O_2   0.159803 0.725610 0.513855 -0.401939
O35   O     O_2   0.666148 0.786043 0.017462 -0.369788
O36   O     O_2   0.662213 0.219063 0.508023 -0.381113
O37   O     O_3   0.245040 0.477352 0.725487 -0.589565
O38   O     O_3   0.243925 0.520399 0.219125 -0.583462
O39   O     O_3   0.744332 0.978191 0.717250 -0.588958
O40   O     O_3   0.745830 0.022563 0.225454 -0.583861
O41   O     O_3   0.085479 0.183148 0.064195 -0.561646
O42   O     O_3   0.066223 0.818549 0.608679 -0.587803
O43   O     O_3   0.573854 0.682932 0.031125 -0.544318
O44   O     O_3   0.570678 0.318796 0.581500 -0.566474
C5    C     C_3   0.004522 0.170825 0.046319 0.767283
C6    C     C_3   0.999340 0.823443 0.487018 0.763754
C7    C     C_3   0.502329 0.663822 0.069054 0.723900
C8    C     C_3   0.497369 0.327364 0.623478 0.726872
H13   H     H_    0.973475 0.195120 0.934576 0.075725
H14   H     H_    0.995585 0.779088 0.398173 0.127217
H15   H     H_    0.455514 0.702834 0.015231 0.080092
H16   H     H_    0.453476 0.291860 0.547487 0.065135
C9    C     C_3   0.991961 0.089324 0.046457 -1.191234
C10   C     C_3   0.007470 0.892871 0.401780 -1.032605
C11   C     C_3   0.478685 0.588678 0.001784 -1.070645
C12   C     C_3   0.468037 0.405168 0.596674 -1.134378
H17   H     H_    0.425709 0.571173 0.042480 0.241384
H18   H     H_    0.405829 0.408409 0.604307 0.252343
H19   H     H_    0.930385 0.076312 0.044661 0.262249
H20   H     H_    0.952266 0.911108 0.327931 0.262954
H21   H     H_    0.012075 0.062074 0.948465 0.264735
H22   H     H_    0.048091 0.880890 0.325112 0.270673
H23   H     H_    0.466158 0.588670 0.873109 0.269412
H24   H     H_    0.477754 0.426172 0.484066 0.252557
C13   C     C_3   0.238926 0.477519 0.347988 0.445315
C14   C     C_3   0.222563 0.541818 0.789126 0.374126
C15   C     C_3   0.724702 0.956648 0.281970 0.368938
C16   C     C_3   0.743298 0.020041 0.851295 0.441003
H25   H     H_    0.262016 0.508054 0.458216 0.130357
H26   H     H_    0.220924 0.532892 0.914156 0.131264
H27   H     H_    0.736434 0.959351 0.412362 0.112456
H28   H     H_    0.770803 0.988871 0.957309 0.119509
H29   H     H_    0.178006 0.459513 0.344068 0.107311
H30   H     H_    0.165112 0.562861 0.723659 0.125979
H31   H     H_    0.662633 0.941236 0.236430 0.127941
H32   H     H_    0.683094 0.037568 0.857803 0.111868
C17   C     C_3   0.289796 0.412046 0.343212 -1.016677
C18   C     C_3   0.283749 0.597970 0.779545 -0.958558
C19   C     C_3   0.775723 0.898623 0.230833 -0.953010
C20   C     C_3   0.792128 0.085926 0.843616 -1.024560
H33   H     H_    0.348918 0.430452 0.336454 0.281140
H34   H     H_    0.341083 0.571089 0.803343 0.275731
H35   H     H_    0.834292 0.920358 0.235429 0.266393
H36   H     H_    0.848476 0.067511 0.818964 0.276347
H37   H     H_    0.294575 0.379730 0.450337 0.225217
H38   H     H_    0.285659 0.640848 0.869368 0.231288
H39   H     H_    0.779558 0.850403 0.306134 0.242515
H40   H     H_    0.803304 0.115642 0.957067 0.225373
H41   H     H_    0.264231 0.378247 0.239342 0.297039
H42   H     H_    0.272722 0.621896 0.659906 0.288187
H43   H     H_    0.753037 0.883848 0.106910 0.288646
H44   H     H_    0.762233 0.121615 0.747047 0.294594
Ba1   Ba    Ba6+2 0.000000 0.447380 0.844850 1.549500
Ba2   Ba    Ba6+2 0.000000 0.552620 0.344850 1.534389
Ba3   Ba    Ba6+2 0.500000 0.947380 0.844850 1.569348
Ba4   Ba    Ba6+2 0.500000 0.052620 0.344850 1.553944
C21   C     C_3   0.778882 0.547173 0.938842 0.287790
C22   C     C_3   0.754209 0.474757 0.352760 0.360341
C23   C     C_3   0.244493 0.024946 0.870557 0.263696
C24   C     C_3   0.217229 0.028512 0.305900 0.343706
H45   H     H_    0.808703 0.546392 0.837931 0.108980
H46   H     H_    0.789117 0.491131 0.266928 0.105795
H47   H     H_    0.238044 0.004175 0.748241 0.138672
H48   H     H_    0.193185 0.083805 0.285937 0.050743
H49   H     H_    0.819204 0.568695 0.045308 0.125771
H50   H     H_    0.779080 0.423311 0.404113 0.105244
H51   H     H_    0.297503 0.058918 0.903573 0.112348
H52   H     H_    0.257401 0.014920 0.227406 0.167999
C25   C     C_3   0.707030 0.596694 0.902453 -0.423691
C26   C     C_3   0.669214 0.466374 0.266968 -0.519384
C27   C     C_3   0.171004 0.066840 0.886327 -0.371690
C28   C     C_3   0.148248 0.979329 0.262661 -0.546514
H53   H     H_    0.669124 0.586763 0.987206 0.223017
H54   H     H_    0.655102 0.506401 0.171571 0.182778
H55   H     H_    0.118751 0.032082 0.847087 0.178256
H56   H     H_    0.117825 0.992959 0.141564 0.179461
H57   H     H_    0.724841 0.653823 0.918364 0.181841
H58   H     H_    0.630066 0.475407 0.350597 0.231806
H59   H     H_    0.174974 0.080358 0.011747 0.202213
H60   H     H_    0.108935 0.989518 0.344978 0.212412
O45   O     O_3   0.092100 0.536880 0.086720 -0.377184
O46   O     O_3   0.092100 0.463120 0.586720 -0.409073
O47   O     O_3   0.592100 0.036880 0.086720 -0.403395
O48   O     O_3   0.592100 0.963120 0.586720 -0.373247
P13   P     P_3+3 0.894147 0.730552 0.066906 0.412553
P14   P     P_3+3 0.884209 0.280548 0.561659 0.463309
P15   P     P_3+3 0.381071 0.214074 0.059931 0.470614
P16   P     P_3+3 0.392370 0.771592 0.569745 0.476147
C29   C     C_3   0.925234 0.148320 0.635423 0.318671
C30   C     C_3   0.986601 0.830710 0.017312 0.422649
C31   C     C_3   0.466360 0.650394 0.600701 0.395917
C32   C     C_3   0.427758 0.339267 0.163045 0.382885
H61   H     H_    0.978157 0.169666 0.604183 0.100131
H62   H     H_    0.973163 0.804410 0.898920 0.091912
H63   H     H_    0.492795 0.682205 0.519166 0.071919
H64   H     H_    0.479759 0.315860 0.126479 0.094853
H65   H     H_    0.378729 0.597267 0.417908 0.265879
H66   H     H_    0.393627 0.391776 0.932547 0.256057
H67   H     H_    0.872248 0.109553 0.395961 0.259568
H68   H     H_    0.929837 0.930904 0.927401 0.278489
H69   H     H_    0.526415 0.548568 0.039036 0.263429
H70   H     H_    0.497688 0.441914 0.689726 0.283865
H71   H     H_    0.024986 0.067012 0.158277 0.281556
H72   H     H_    0.030846 0.936870 0.486082 0.252769
C33   C     C_R   0.140833 0.674943 0.932144 -0.527034
C34   C     C_R   0.141685 0.326201 0.425777 -0.470446
C35   C     C_R   0.642787 0.173175 0.924692 -0.461877
C36   C     C_R   0.638281 0.822927 0.425819 -0.479333
C37   C     C_R   0.861962 0.324287 0.253602 -0.438496
C38   C     C_R   0.859673 0.674795 0.759604 -0.489323
C39   C     C_R   0.366956 0.820298 0.256732 -0.445554
C40   C     C_R   0.361182 0.174805 0.752460 -0.448038
C41   C     C_R   0.787025 0.219474 0.294644 -0.257049
C42   C     C_R   0.785044 0.781307 0.798970 -0.206721
C43   C     C_R   0.293469 0.713620 0.296180 -0.275794
C44   C     C_R   0.290129 0.283407 0.794345 -0.270445
C45   C     C_R   0.845835 0.270139 0.350550 0.257910
C46   C     C_R   0.841625 0.728554 0.858160 0.196178
C47   C     C_R   0.351638 0.764765 0.354247 0.174536
C48   C     C_R   0.345761 0.229224 0.850317 0.196082
C49   C     C_R   0.820204 0.330358 0.098985 0.226292
C50   C     C_R   0.816774 0.667114 0.605273 0.276814
C51   C     C_R   0.321892 0.829602 0.103609 0.272442
C52   C     C_R   0.319072 0.169013 0.599065 0.233642
C53   C     C_R   0.763813 0.274734 0.035849 -0.076492
C54   C     C_R   0.757116 0.719918 0.543167 -0.089013
C55   C     C_R   0.262207 0.776373 0.043752 -0.099323
C56   C     C_R   0.263709 0.225255 0.536058 -0.050251
C57   C     C_R   0.248194 0.717309 0.141508 -0.042811
C58   C     C_R   0.246932 0.282197 0.637669 -0.049918
C59   C     C_R   0.746513 0.218475 0.136890 -0.077028
C60   C     C_R   0.741675 0.778688 0.641601 -0.045970
C61   C     C_R   0.186155 0.666257 0.083522 0.269186
C62   C     C_R   0.185142 0.333651 0.580190 0.263419
C63   C     C_R   0.685627 0.166280 0.079397 0.243701
C64   C     C_R   0.682913 0.832146 0.579706 0.266031
C65   C     C_R   0.158212 0.727757 0.833444 0.279417
C66   C     C_R   0.163788 0.276475 0.322484 0.264949
C67   C     C_R   0.662431 0.224421 0.823724 0.283113
C68   C     C_R   0.654926 0.767718 0.326798 0.252163
C69   C     C_R   0.215248 0.780255 0.890234 -0.194600
C70   C     C_R   0.224243 0.226887 0.376827 -0.255959
C71   C     C_R   0.721910 0.274791 0.878455 -0.209818
C72   C     C_R   0.714102 0.717106 0.385528 -0.229088
H73   H     H_    0.279919 0.674494 0.377253 0.193372
H74   H     H_    0.277786 0.323229 0.876465 0.222755
H75   H     H_    0.770790 0.183204 0.377631 0.224875
H76   H     H_    0.777146 0.824878 0.876862 0.184941
H77   H     H_    0.731417 0.316025 0.798229 0.206893
H78   H     H_    0.725881 0.675987 0.305443 0.190930
H79   H     H_    0.222253 0.823588 0.812419 0.203104
H80   H     H_    0.239325 0.190431 0.291987 0.206193
H81   H     H_    0.094372 0.637230 0.886146 0.166697
H82   H     H_    0.093758 0.363016 0.381174 0.170711
H83   H     H_    0.595706 0.136038 0.879130 0.164774
H84   H     H_    0.593185 0.862027 0.378462 0.157555
H85   H     H_    0.903482 0.365624 0.304190 0.164933
H86   H     H_    0.904773 0.635771 0.807661 0.163639
H87   H     H_    0.409474 0.860888 0.306757 0.169960
H88   H     H_    0.401973 0.132522 0.802390 0.168397
N1    N     N_2   0.662788 0.585887 0.743039 -0.101312
H89   H     H_    0.688527 0.606897 0.657719 0.194797
C73   C     C_3   0.631339 0.514620 0.705584 -0.713121
H90   H     H_    0.587435 0.516115 0.593858 0.210752
H91   H     H_    0.604121 0.495898 0.802238 0.245402
H92   H     H_    0.678004 0.476174 0.688546 0.287848
N2    N     N_2   0.655030 0.396082 0.198409 -0.131977
H93   H     H_    0.690859 0.381647 0.124579 0.209453
C74   C     C_3   0.638470 0.341568 0.302893 -0.726626
H94   H     H_    0.632341 0.288054 0.244694 0.235810
H95   H     H_    0.582287 0.355480 0.333656 0.251752
H96   H     H_    0.685439 0.339287 0.410680 0.291557
N3    N     N_2   0.161712 0.133549 0.801911 -0.061980
H97   H     H_    0.206314 0.169663 0.836091 0.244446
C75   C     C_3   0.130704 0.128527 0.635696 -0.969200
H98   H     H_    0.114518 0.183779 0.594118 0.265388
H99   H     H_    0.078886 0.092688 0.609491 0.249471
H100  H     H_    0.175134 0.106571 0.575119 0.264565
N4    N     N_2   0.171357 0.904642 0.260609 -0.119777
H101  H     H_    0.192243 0.888793 0.163540 0.200077
C76   C     C_3   0.212003 0.874806 0.407721 -0.579539
H102  H     H_    0.211738 0.816280 0.393884 0.246072
H103  H     H_    0.182892 0.889977 0.505490 0.261074
H104  H     H_    0.273812 0.892735 0.434604 0.244528
N5    N     N_2   0.972832 0.202518 0.171881 -0.098438
H105  H     H_    0.912891 0.197747 0.151898 0.148717
C77   C     C_3   0.012047 0.182573 0.328609 -0.994118
H106  H     H_    0.987338 0.132271 0.362065 0.256202
H107  H     H_    0.008063 0.228321 0.409035 0.251387
H108  H     H_    0.074321 0.169299 0.334933 0.271007
N6    N     N_2   0.929101 0.823004 0.552171 -0.113789
H109  H     H_    0.883463 0.794449 0.484868 0.165502
C78   C     C_3   0.904565 0.890134 0.614387 -0.946493
H110  H     H_    0.870762 0.923476 0.518253 0.264720
H111  H     H_    0.955883 0.921474 0.675679 0.274448
H112  H     H_    0.866321 0.879000 0.697117 0.266471
N7    N     N_2   0.509451 0.662751 0.238037 -0.130658
H113  H     H_    0.455524 0.660253 0.267608 0.133627
C79   C     C_3   0.566618 0.611936 0.321584 -0.968959
H114  H     H_    0.539965 0.557924 0.315565 0.248711
H115  H     H_    0.587925 0.629169 0.444837 0.245683
H116  H     H_    0.618463 0.608619 0.268346 0.271772
N8    N     N_2   0.502760 0.309644 0.786986 -0.122455
H117  H     H_    0.449561 0.307414 0.816569 0.129112
C80   C     C_3   0.558850 0.349116 0.901739 -0.959664
H118  H     H_    0.530976 0.396235 0.947661 0.263953
H119  H     H_    0.607990 0.369467 0.852403 0.281782
H120  H     H_    0.581993 0.311283 0.997113 0.255299

loop_
_geom_bond_atom_site_label_1
_geom_bond_atom_site_label_2
_geom_bond_distance
_ccdc_geom_bond_type
C43   H73   1.076462 S    
C42   H76   1.075045 S    
C77   H107  1.104348 S    
P1    O17   1.739820 S    
O10   Ba2   2.854116 S    
O16   P15   1.533804 D    
C29   H61   1.094277 S    
C28   N4    1.439029 S    
C28   H56   1.101825 S    
C20   H44   1.108462 S    
P3    O19   1.732805 S    
O7    Ba4   2.878431 S    
C34   H82   1.082201 S    
C35   C67   1.390777 A    
O44   C8    1.409972 S    
O6    Ba1   2.883266 S    
C33   H81   1.082536 S    
C8    C12   1.528519 S    
C37   C45   1.383274 A    
P4    C52   1.868431 S    
P2    O2    1.585666 D    
C6    N6    1.455007 S    
P8    C63   1.901538 S    
C27   H59   1.102280 S    
C76   H102  1.089894 S    
C43   C57   1.406603 A    
P1    C49   1.890082 S    
O11   Ba3   2.835705 S    
C18   H38   1.103732 S    
P1    O1    1.577595 D    
C38   H86   1.082342 S    
C32   H64   1.107020 S    
C25   H57   1.104947 S    
C3    H5    1.092496 S    
C12   H18   1.102561 S    
C55   C69   1.409333 A    
P3    O3    1.577595 D    
P15   C48   1.814966 S    
C24   H52   1.102654 S    
C7    N7    1.445008 S    
C78   H110  1.103702 S    
P4    O20   1.748026 S    
C79   H116  1.100927 S    
C15   H27   1.106666 S    
O18   C22   1.393856 S    
C39   C47   1.400710 A    
P13   C46   1.847573 S    
C14   H26   1.105089 S    
O23   C31   1.398826 S    
C75   H98   1.102643 S    
P12   C67   1.837559 S    
C8    N8    1.442094 S    
O1    Ba1   2.915081 S    
C77   H106  1.097125 S    
N3    H97   1.024019 S    
C80   H120  1.096293 S    
P9    O29   1.769092 S    
Ba1   O46   3.039016 S    
P4    Ba4   3.494705 S    
C33   C61   1.391087 A    
P5    O46   1.610306 S    
C42   C46   1.403452 A    
C5    C9    1.527794 S    
O32   Ba4   2.834903 S    
C36   C64   1.404847 A    
C25   H53   1.106188 S    
C40   C48   1.373919 A    
C13   C17   1.502430 S    
P7    O48   1.610306 S    
P5    O37   1.740100 S    
C44   H74   1.073261 S    
P6    C61   1.885153 S    
C54   C60   1.436821 A    
P1    O5    1.609200 S    
P3    Ba3   3.505696 S    
P5    C62   1.878457 S    
C75   H99   1.109235 S    
C2    H10   1.097675 S    
O42   C6    1.399771 S    
O24   P15   1.739097 S    
C17   H41   1.107725 S    
N2    H93   1.018541 S    
C57   C61   1.448154 A    
C31   H63   1.100659 S    
P4    O8    1.605428 S    
P12   O32   1.754008 S    
N7    H113  1.028195 S    
C6    H14   1.114575 S    
O28   Ba4   2.918541 S    
C49   C53   1.452080 A    
P4    O4    1.585666 D    
C9    H21   1.103408 S    
N4    C76   1.434350 S    
P8    O47   1.614130 S    
C16   C20   1.504707 S    
C77   H108  1.102008 S    
P5    O25   1.584965 D    
P9    O41   1.751616 S    
C74   H94   1.104388 S    
C18   H42   1.110097 S    
C59   C63   1.447917 A    
O15   P16   1.534134 D    
N2    C74   1.434505 S    
C28   H60   1.104705 S    
C26   N2    1.428530 S    
C1    H67   1.100258 S    
P11   O43   1.753945 S    
C6    C10   1.511959 S    
C2    H68   1.107380 S    
O13   P14   1.532116 D    
C24   H48   1.104639 S    
C22   H50   1.101448 S    
C19   H43   1.096832 S    
C15   H31   1.109842 S    
O5    Ba2   2.878431 S    
C50   C54   1.443477 A    
C10   H72   1.110968 S    
P2    Ba2   3.494705 S    
O31   Ba3   2.853313 S    
C71   H77   1.075267 S    
P14   C45   1.820388 S    
Ba3   O47   2.878411 S    
O30   Ba2   2.834903 S    
O40   C15   1.401060 S    
C37   C49   1.388454 A    
P10   O30   1.748803 S    
Ba2   O45   3.032625 S    
P2    C50   1.873700 S    
Ba3   Ba4   4.771341 S    
P11   O35   1.536674 D    
C1    H9    1.106538 S    
C56   C58   1.436823 A    
C40   C52   1.380162 A    
C70   H80   1.066834 S    
C13   H29   1.110389 S    
C78   H111  1.105705 S    
C22   H46   1.103604 S    
C30   H62   1.112748 S    
P11   C68   1.869959 S    
O4    Ba4   2.899590 S    
H1    C29   1.089231 S    
P5    Ba1   3.496852 S    
C53   C59   1.442241 A    
C67   C71   1.404554 A    
O29   Ba1   2.853313 S    
C56   C70   1.406647 A    
C40   H88   1.082979 S    
C39   H87   1.082233 S    
C20   H36   1.100634 S    
N3    C75   1.430767 S    
C69   H79   1.077743 S    
C11   H69   1.108652 S    
P2    O18   1.734275 S    
N1    H89   1.025083 S    
P12   O44   1.757418 S    
C21   H45   1.109584 S    
C60   C64   1.441429 A    
O9    Ba1   2.835705 S    
C66   C70   1.399279 A    
P7    Ba3   3.496852 S    
C52   C56   1.444060 A    
C34   C62   1.398068 A    
C65   C69   1.406734 A    
C68   C72   1.404452 A    
C75   H100  1.098701 S    
C21   H49   1.108536 S    
P6    O26   1.576906 D    
O12   P15   1.776339 S    
C4    H66   1.102516 S    
C80   H118  1.107528 S    
Ba1   Ba2   4.771341 S    
C42   C60   1.413654 A    
C27   H55   1.111791 S    
P7    O39   1.740284 S    
C36   C68   1.398092 A    
C1    H7    1.108887 S    
P8    O40   1.740182 S    
O41   C5    1.408307 S    
N7    C79   1.447171 S    
C19   H39   1.104499 S    
O11   P16   1.760667 S    
C9    H19   1.100029 S    
O14   P13   1.544371 D    
C15   C19   1.512824 S    
O38   C13   1.395284 S    
C5    N5    1.441254 S    
C58   C62   1.442678 A    
C2    C30   1.516153 S    
C25   N1    1.446348 S    
O37   C14   1.399312 S    
C11   H17   1.109288 S    
Ba4   O47   3.032625 S    
C76   H103  1.110623 S    
C44   C58   1.406983 A    
C74   H95   1.097558 S    
O10   P13   1.757007 S    
P12   O36   1.537457 D    
O39   C16   1.395411 S    
P10   O34   1.540723 D    
C2    H8    1.109932 S    
C26   H54   1.102835 S    
C4    H12   1.104197 S    
P11   O31   1.758321 S    
O2    Ba2   2.899590 S    
O17   C21   1.401624 S    
N6    H109  1.029028 S    
P2    O6    1.605428 S    
O27   Ba3   2.902882 S    
C13   H25   1.107887 S    
C10   H20   1.089820 S    
C3    H11   1.103455 S    
P7    O27   1.584965 D    
C18   H34   1.093908 S    
P16   C47   1.856890 S    
C17   H37   1.097698 S    
O23   P16   1.743331 S    
H2    C30   1.111382 S    
C16   H32   1.109596 S    
C17   H33   1.102819 S    
Ba3   O48   3.039016 S    
C22   C26   1.519655 S    
C76   H104  1.107073 S    
C41   C45   1.402239 A    
C36   H84   1.081833 S    
P1    Ba1   3.505696 S    
O21   P14   1.754236 S    
C19   H35   1.094384 S    
C54   C72   1.413737 A    
P6    Ba2   3.508095 S    
C8    H16   1.113605 S    
C23   H51   1.108100 S    
O9    P14   1.785889 S    
N6    C78   1.448870 S    
C10   H22   1.090720 S    
P8    Ba4   3.508095 S    
C78   H112  1.100930 S    
C79   H114  1.103306 S    
C41   H75   1.071799 S    
P6    O38   1.739569 S    
P8    O28   1.576906 D    
C11   H23   1.090917 S    
O19   C23   1.387483 S    
C12   H70   1.096190 S    
Ba2   O46   2.883238 S    
C21   C25   1.526377 S    
C20   H40   1.104859 S    
C23   H47   1.108936 S    
N8    C80   1.438283 S    
O12   Ba4   2.854116 S    
C35   C63   1.396595 A    
N1    C73   1.442029 S    
O25   Ba1   2.902882 S    
O43   C7    1.405651 S    
C79   H115  1.100192 S    
P9    O33   1.535632 D    
C7    C11   1.530548 S    
N5    H105  1.027562 S    
O8    Ba3   2.883266 S    
C72   H78   1.074428 S    
C26   H58   1.108205 S    
C38   C50   1.394610 A    
C34   C66   1.388340 A    
C16   H28   1.107313 S    
C4    H6    1.106141 S    
C80   H119  1.106955 S    
Ba1   O45   2.878411 S    
P7    C64   1.893666 S    
O22   C30   1.407100 S    
C73   H92   1.109811 S    
C14   C18   1.512518 S    
C9    H71   1.099430 S    
Ba4   O48   2.883238 S    
P3    C51   1.914939 S    
C27   N3    1.432446 S    
C51   C55   1.451018 A    
P10   O42   1.743894 S    
C1    C29   1.532358 S    
C3    C31   1.526353 S    
P3    O7    1.609200 S    
C4    C32   1.531201 S    
O21   C29   1.410158 S    
C37   H85   1.082795 S    
C38   C46   1.384552 A    
P10   C65   1.830287 S    
C44   C48   1.405929 A    
O26   Ba2   2.918541 S    
P6    O45   1.614130 S    
C39   C51   1.403370 A    
P9    C66   1.843154 S    
C14   H30   1.110865 S    
C5    H13   1.102510 S    
C73   H91   1.107516 S    
N5    C77   1.435835 S    
C74   H96   1.105234 S    
C73   H90   1.100443 S    
O20   C24   1.402505 S    
O24   C32   1.406760 S    
C35   H83   1.082284 S    
C3    H65   1.102508 S    
O22   P13   1.737580 S    
C33   C65   1.383122 A    
C12   H24   1.101342 S    
H4    C32   1.091293 S    
C53   C71   1.404967 A    
C7    H15   1.113948 S    
C23   C27   1.523547 S    
H3    C31   1.104176 S    
C43   C47   1.404475 A    
N8    H117  1.015673 S    
N4    H101  1.026097 S    
O3    Ba3   2.915081 S    
C24   C28   1.496875 S    
C55   C57   1.444178 A    
C41   C59   1.400311 A    
