data_mof_unit_55300.cif
_audit_creation_date              2012-12-10T20:39:10-0500
_audit_creation_method            fapswitch 2.2
_symmetry_space_group_name_H-M    P1
_symmetry_Int_Tables_number       1
_space_group_crystal_system       triclinic
_cell_length_a                    28.890041
_cell_length_b                    28.942286
_cell_length_c                    53.426624
_cell_angle_alpha                 89.397172
_cell_angle_beta                  89.375189
_cell_angle_gamma                 89.451231
_cell_volume                      44665.2129671

loop_
_atom_site_label
_atom_site_type_symbol
_atom_type_description
_atom_site_fract_x
_atom_site_fract_y
_atom_site_fract_z
_atom_type_partial_charge
C1    C     C_R   0.000185 0.500146 0.180031 1.013589
C2    C     C_R   0.999764 0.499986 0.819978 1.008715
C3    C     C_R   0.499583 0.000036 0.180035 0.900872
C4    C     C_R   0.500441 0.999959 0.819971 1.008601
C5    C     C_R   0.500193 0.999612 0.680026 1.042610
C6    C     C_R   0.499833 0.000321 0.319968 1.003909
C7    C     C_R   0.999583 0.500036 0.680035 1.008075
C8    C     C_R   0.000441 0.499959 0.319971 1.008967
C9    C     C_R   0.499927 0.004406 0.012542 -0.132550
C10   C     C_R   0.499405 0.006056 0.987404 -0.133018
C11   C     C_R   0.007061 0.498295 0.013050 -0.148234
C12   C     C_R   0.006461 0.498758 0.987505 -0.124947
C13   C     C_R   0.999927 0.504405 0.512542 -0.131104
C14   C     C_R   0.999405 0.506056 0.487404 -0.130659
C15   C     C_R   0.498385 0.000751 0.512481 -0.141133
C16   C     C_R   0.500459 0.001364 0.486710 -0.112812
C17   C     C_R   0.585966 0.005286 0.012788 0.448913
C18   C     C_R   0.413325 0.006286 0.987224 0.447946
C19   C     C_R   0.001622 0.585058 0.013251 0.447858
C20   C     C_R   0.001190 0.412752 0.987052 0.473718
C21   C     C_R   0.414257 0.006560 0.013841 0.423114
C22   C     C_R   0.584860 0.008945 0.986166 0.429080
C23   C     C_R   0.997902 0.412449 0.014287 0.412607
C24   C     C_R   0.997970 0.583780 0.986659 0.428115
C25   C     C_R   0.085966 0.505286 0.512788 0.461291
C26   C     C_R   0.913325 0.506286 0.487224 0.448997
C27   C     C_R   0.497461 0.086435 0.513669 0.468041
C28   C     C_R   0.498738 0.914985 0.486620 0.456982
C29   C     C_R   0.914256 0.506560 0.513841 0.422821
C30   C     C_R   0.084860 0.508945 0.486166 0.430011
C31   C     C_R   0.494920 0.915567 0.513446 0.435423
C32   C     C_R   0.496831 0.086717 0.487220 0.477048
C33   C     C_R   0.957162 0.491867 0.389740 0.403844
C34   C     C_R   0.042488 0.488058 0.610452 0.413640
C35   C     C_R   0.506936 0.957812 0.389801 0.377450
C36   C     C_R   0.510334 0.042639 0.610344 0.394507
C37   C     C_R   0.044274 0.511309 0.389622 0.388711
C38   C     C_R   0.955251 0.507514 0.610325 0.375135
C39   C     C_R   0.490248 0.043657 0.388567 0.385231
C40   C     C_R   0.492660 0.956531 0.610464 0.427610
C41   C     C_R   0.457163 0.991867 0.889740 0.402945
C42   C     C_R   0.542488 0.988058 0.110452 0.425743
C43   C     C_R   0.006356 0.455841 0.889460 0.382767
C44   C     C_R   0.010355 0.543610 0.110428 0.399398
C45   C     C_R   0.544274 0.011309 0.889621 0.388756
C46   C     C_R   0.455251 0.007514 0.110325 0.392013
C47   C     C_R   0.988282 0.543566 0.889565 0.390028
C48   C     C_R   0.006837 0.453706 0.112558 0.442385
C49   C     C_R   0.959083 0.495431 0.362808 0.498732
C50   C     C_R   0.040730 0.493329 0.637242 0.497355
C51   C     C_R   0.502662 0.959315 0.362868 0.502614
C52   C     C_R   0.505787 0.040854 0.637259 0.498689
C53   C     C_R   0.041873 0.506242 0.362695 0.491432
C54   C     C_R   0.957809 0.504278 0.637346 0.487342
C55   C     C_R   0.495426 0.042034 0.362198 0.502279
C56   C     C_R   0.495947 0.958346 0.637372 0.506948
C57   C     C_R   0.459083 0.995431 0.862808 0.493754
C58   C     C_R   0.540730 0.993329 0.137242 0.380965
C59   C     C_R   0.002662 0.457974 0.862636 0.492233
C60   C     C_R   0.003433 0.541405 0.137094 0.489911
C61   C     C_R   0.541873 0.006242 0.862695 0.484749
C62   C     C_R   0.457809 0.004278 0.137346 0.337755
C63   C     C_R   0.993110 0.541017 0.862707 0.484600
C64   C     C_R   0.002827 0.458206 0.138270 0.442859
C65   C     C_R   0.000501 0.500285 0.348830 -0.387529
C66   C     C_R   0.999395 0.499699 0.651205 -0.386684
C67   C     C_R   0.499626 0.000691 0.348718 -0.384521
C68   C     C_R   0.500653 0.999506 0.651220 -0.448872
C69   C     C_R   0.500501 0.000285 0.848830 -0.386076
C70   C     C_R   0.499395 0.999699 0.151205 -0.091605
C71   C     C_R   0.999200 0.499646 0.848794 -0.385282
C72   C     C_R   0.001042 0.500059 0.151304 -0.385215
C73   C     C_R   0.000466 0.502333 0.404694 -0.133296
C74   C     C_R   0.998921 0.497641 0.595415 -0.130619
C75   C     C_R   0.501780 0.001724 0.404369 -0.103740
C76   C     C_R   0.501435 0.999551 0.595373 -0.128641
C77   C     C_R   0.500466 0.002333 0.904694 -0.135039
C78   C     C_R   0.498921 0.997641 0.095416 -0.133656
C79   C     C_R   0.000830 0.499719 0.904321 -0.116305
C80   C     C_R   0.011570 0.500189 0.096542 -0.119854
C81   C     C_R   0.909577 0.590456 0.250004 0.958796
C82   C     C_R   0.090423 0.409545 0.749996 0.958634
C83   C     C_R   0.409339 0.909421 0.250027 0.960071
C84   C     C_R   0.590661 0.090579 0.749973 0.972192
C85   C     C_R   0.090561 0.409488 0.249999 0.973359
C86   C     C_R   0.909438 0.590512 0.750000 0.971074
C87   C     C_R   0.590566 0.090637 0.249971 0.964905
C88   C     C_R   0.409433 0.909364 0.750029 0.972130
C89   C     C_R   0.909339 0.409421 0.750027 0.969134
C90   C     C_R   0.090661 0.590579 0.249973 0.970429
C91   C     C_R   0.409577 0.090455 0.750004 0.960974
C92   C     C_R   0.590423 0.909545 0.249995 0.960589
C93   C     C_R   0.090567 0.590636 0.749971 0.969395
C94   C     C_R   0.909433 0.409364 0.250029 0.968579
C95   C     C_R   0.590562 0.909488 0.750000 0.970449
C96   C     C_R   0.409438 0.090511 0.250000 0.964113
C97   C     C_R   0.341670 0.800051 0.234325 0.536417
C98   C     C_R   0.658330 0.199949 0.765675 0.539609
C99   C     C_R   0.200266 0.341449 0.234359 0.621643
C100  C     C_R   0.799732 0.658548 0.765639 0.541802
C101  C     C_R   0.658578 0.200056 0.234311 0.541900
C102  C     C_R   0.341423 0.799944 0.765689 0.539354
C103  C     C_R   0.800210 0.658752 0.234506 0.542105
C104  C     C_R   0.199793 0.341251 0.765491 0.540733
C105  C     C_R   0.341201 0.200072 0.765504 0.543747
C106  C     C_R   0.658800 0.799930 0.234494 0.624096
C107  C     C_R   0.199872 0.658328 0.765571 0.540461
C108  C     C_R   0.800126 0.341674 0.234431 0.546370
C109  C     C_R   0.658619 0.800036 0.765710 0.542035
C110  C     C_R   0.341381 0.199964 0.234290 0.536420
C111  C     C_R   0.799858 0.341521 0.765724 0.540465
C112  C     C_R   0.200145 0.658475 0.234279 0.541223
C113  C     C_R   0.841670 0.300050 0.734326 0.543689
C114  C     C_R   0.158331 0.699948 0.265676 0.548813
C115  C     C_R   0.700267 0.841450 0.734360 0.545036
C116  C     C_R   0.299731 0.158548 0.265638 0.536606
C117  C     C_R   0.158581 0.700054 0.734308 0.542071
C118  C     C_R   0.841420 0.299946 0.265692 0.500666
C119  C     C_R   0.300209 0.158751 0.734506 0.545806
C120  C     C_R   0.699794 0.841252 0.265490 0.499745
C121  C     C_R   0.841202 0.700073 0.265503 0.548585
C122  C     C_R   0.158799 0.299928 0.734495 0.544917
C123  C     C_R   0.699870 0.158329 0.265573 0.534984
C124  C     C_R   0.300128 0.841673 0.734430 0.542019
C125  C     C_R   0.158617 0.300034 0.265708 0.496909
C126  C     C_R   0.841382 0.699965 0.734291 0.541930
C127  C     C_R   0.299858 0.841521 0.265724 0.536840
C128  C     C_R   0.700145 0.158475 0.734279 0.542951
C129  C     C_R   0.376080 0.834270 0.234256 0.519014
C130  C     C_R   0.623920 0.165729 0.765744 0.522280
C131  C     C_R   0.165790 0.376071 0.234346 0.497093
C132  C     C_R   0.834208 0.623927 0.765653 0.519837
C133  C     C_R   0.624226 0.165837 0.234340 0.513833
C134  C     C_R   0.375775 0.834163 0.765660 0.520034
C135  C     C_R   0.834686 0.624102 0.234491 0.526276
C136  C     C_R   0.165316 0.375901 0.765506 0.521976
C137  C     C_R   0.375866 0.165589 0.765536 0.522947
C138  C     C_R   0.624133 0.834411 0.234463 0.479314
C139  C     C_R   0.165651 0.623957 0.765625 0.522064
C140  C     C_R   0.834347 0.376045 0.234377 0.523538
C141  C     C_R   0.623967 0.834484 0.765741 0.522311
C142  C     C_R   0.376034 0.165516 0.234259 0.514871
C143  C     C_R   0.834105 0.375862 0.765678 0.522210
C144  C     C_R   0.165897 0.624135 0.234324 0.521079
C145  C     C_R   0.876080 0.334270 0.734256 0.524134
C146  C     C_R   0.123920 0.665728 0.265745 0.521211
C147  C     C_R   0.665791 0.876072 0.734347 0.522488
C148  C     C_R   0.334207 0.123926 0.265652 0.515490
C149  C     C_R   0.124228 0.665834 0.734337 0.521150
C150  C     C_R   0.875773 0.334165 0.265663 0.527023
C151  C     C_R   0.334686 0.124101 0.734492 0.526991
C152  C     C_R   0.665317 0.875901 0.265505 0.513199
C153  C     C_R   0.875868 0.665591 0.265534 0.523799
C154  C     C_R   0.124133 0.334410 0.734464 0.522912
C155  C     C_R   0.665650 0.123957 0.265626 0.517758
C156  C     C_R   0.334348 0.876045 0.734376 0.524428
C157  C     C_R   0.123965 0.334482 0.265739 0.614669
C158  C     C_R   0.876034 0.665517 0.734260 0.520699
C159  C     C_R   0.334105 0.875862 0.265678 0.522674
C160  C     C_R   0.665897 0.124135 0.734324 0.524096
C161  C     C_R   0.372935 0.872898 0.249975 -0.494211
C162  C     C_R   0.627066 0.127101 0.750025 -0.494154
C163  C     C_R   0.127034 0.373091 0.250021 -0.531938
C164  C     C_R   0.872965 0.626908 0.749978 -0.494202
C165  C     C_R   0.627068 0.127044 0.249983 -0.492230
C166  C     C_R   0.372932 0.872957 0.750017 -0.490926
C167  C     C_R   0.873102 0.627022 0.250023 -0.495231
C168  C     C_R   0.126899 0.372979 0.749975 -0.493911
C169  C     C_R   0.373101 0.127022 0.750024 -0.494213
C170  C     C_R   0.626900 0.872980 0.249975 -0.501031
C171  C     C_R   0.127069 0.627043 0.749982 -0.492039
C172  C     C_R   0.872931 0.372958 0.250018 -0.486753
C173  C     C_R   0.627035 0.873092 0.750022 -0.495937
C174  C     C_R   0.372964 0.126908 0.249978 -0.494405
C175  C     C_R   0.872935 0.372898 0.749975 -0.494302
C176  C     C_R   0.127066 0.627101 0.250026 -0.493770
C177  C     C_R   0.302360 0.802468 0.250058 -0.414274
C178  C     C_R   0.697642 0.197530 0.749944 -0.369005
C179  C     C_R   0.197675 0.302482 0.250023 -0.408187
C180  C     C_R   0.802324 0.697516 0.749975 -0.373765
C181  C     C_R   0.697567 0.197604 0.249928 -0.364544
C182  C     C_R   0.302432 0.802397 0.750073 -0.367799
C183  C     C_R   0.802474 0.697605 0.249993 -0.379441
C184  C     C_R   0.197528 0.302398 0.750004 -0.376937
C185  C     C_R   0.302473 0.197603 0.749994 -0.378135
C186  C     C_R   0.697529 0.802399 0.250003 -0.292795
C187  C     C_R   0.197569 0.697602 0.749926 -0.367650
C188  C     C_R   0.802430 0.302399 0.250075 -0.381642
C189  C     C_R   0.697676 0.802484 0.750025 -0.375044
C190  C     C_R   0.302323 0.197515 0.249974 -0.375123
C191  C     C_R   0.802360 0.302468 0.750058 -0.369610
C192  C     C_R   0.197642 0.697530 0.249944 -0.364109
C193  C     C_1   0.265253 0.765347 0.250054 0.368440
C194  C     C_1   0.734749 0.234651 0.749948 0.280434
C195  C     C_1   0.234695 0.265369 0.250003 0.279555
C196  C     C_1   0.765304 0.734629 0.749996 0.283887
C197  C     C_1   0.734671 0.234727 0.249956 0.242316
C198  C     C_1   0.265329 0.765274 0.750045 0.281101
C199  C     C_1   0.765356 0.734665 0.249986 0.306977
C200  C     C_1   0.234646 0.265338 0.750011 0.285441
C201  C     C_1   0.265355 0.234664 0.749987 0.286339
C202  C     C_1   0.734647 0.765339 0.250010 0.234782
C203  C     C_1   0.234673 0.734725 0.749954 0.281060
C204  C     C_1   0.765326 0.265276 0.250047 0.345430
C205  C     C_1   0.734696 0.765370 0.750005 0.284587
C206  C     C_1   0.265302 0.234628 0.249994 0.277338
C207  C     C_1   0.765253 0.265347 0.750054 0.280529
C208  C     C_1   0.234749 0.734651 0.249948 0.246016
C209  C     C_R   0.463675 0.994122 0.051582 0.586443
C210  C     C_R   0.536567 0.999791 0.948137 0.583978
C211  C     C_R   0.016594 0.462511 0.053144 0.679229
C212  C     C_R   0.000348 0.535095 0.948056 0.586366
C213  C     C_R   0.536121 0.007536 0.052317 0.568220
C214  C     C_R   0.463211 0.009106 0.948000 0.567682
C215  C     C_R   0.000923 0.533505 0.051983 0.546006
C216  C     C_R   0.004887 0.462459 0.948138 0.516887
C217  C     C_R   0.963675 0.494122 0.551582 0.588628
C218  C     C_R   0.036567 0.499791 0.448137 0.586623
C219  C     C_R   0.506488 0.964876 0.551487 0.560166
C220  C     C_R   0.505062 0.043952 0.446944 0.663749
C221  C     C_R   0.036121 0.507536 0.552317 0.568545
C222  C     C_R   0.963211 0.509106 0.448000 0.568267
C223  C     C_R   0.493473 0.036103 0.552217 0.583274
C224  C     C_R   0.500690 0.964369 0.447568 0.459970
C225  C     C_R   0.541561 0.003317 0.025568 -0.164275
C226  C     C_R   0.458003 0.004922 0.974469 -0.157564
C227  C     C_R   0.006188 0.539884 0.025863 -0.160336
C228  C     C_R   0.007982 0.457300 0.974415 -0.142000
C229  C     C_R   0.458851 0.003965 0.025713 -0.162995
C230  C     C_R   0.540509 0.007770 0.974205 -0.161443
C231  C     C_R   0.006513 0.455742 0.026889 -0.166324
C232  C     C_R   0.999207 0.539772 0.974379 -0.152340
C233  C     C_R   0.041561 0.503317 0.525567 -0.164640
C234  C     C_R   0.958003 0.504922 0.474469 -0.153979
C235  C     C_R   0.498663 0.041918 0.525857 -0.181765
C236  C     C_R   0.503708 0.960415 0.473926 -0.142051
C237  C     C_R   0.958851 0.503965 0.525713 -0.161285
C238  C     C_R   0.040509 0.507770 0.474206 -0.162120
C239  C     C_R   0.498776 0.959408 0.525492 -0.141260
C240  C     C_R   0.498196 0.044409 0.473535 -0.160617
N1    N     N_R   0.499496 0.998437 0.066109 -0.294262
N2    N     N_R   0.500162 0.003501 0.933882 -0.291688
N3    N     N_R   0.016037 0.498944 0.066604 -0.260461
N4    N     N_R   0.005858 0.499890 0.933699 -0.256723
N5    N     N_R   0.999496 0.498437 0.566109 -0.294427
N6    N     N_R   0.000162 0.503501 0.433882 -0.291987
N7    N     N_R   0.500603 0.999977 0.566017 -0.275106
N8    N     N_R   0.504519 0.004752 0.432966 -0.293556
O1    O     O_3   1.000000 0.500000 0.250000 -0.613742
O2    O     O_3   0.000000 0.500000 0.750000 -0.613091
O3    O     O_3   0.500000 0.000000 0.250000 -0.614013
O4    O     O_3   0.500000 0.000000 0.750000 -0.618686
O5    O     O_R   0.039230 0.500000 0.192340 -0.617844
O6    O     O_R   0.960770 0.500000 0.807660 -0.609527
O7    O     O_R   0.500000 0.039230 0.192340 -0.609977
O8    O     O_R   0.500000 0.960770 0.807660 -0.608080
O9    O     O_R   0.960770 0.500000 0.192340 -0.601822
O10   O     O_R   0.039230 0.500000 0.807660 -0.609665
O11   O     O_R   0.500000 0.960770 0.192340 -0.601437
O12   O     O_R   0.500000 0.039230 0.807660 -0.608875
O13   O     O_R   0.539230 0.000000 0.692340 -0.624226
O14   O     O_R   0.460770 1.000000 0.307660 -0.610171
O15   O     O_R   0.000000 0.539230 0.692340 -0.610952
O16   O     O_R   1.000000 0.460770 0.307660 -0.606831
O17   O     O_R   0.460770 0.000000 0.692340 -0.508267
O18   O     O_R   0.539230 1.000000 0.307660 -0.611246
O19   O     O_R   0.000000 0.460770 0.692340 -0.605479
O20   O     O_R   1.000000 0.539230 0.307660 -0.608279
O21   O     O_R   0.905530 0.555290 0.235160 -0.571246
O22   O     O_R   0.094470 0.444710 0.764840 -0.571900
O23   O     O_R   0.444710 0.905530 0.235160 -0.576882
O24   O     O_R   0.555290 0.094470 0.764840 -0.573559
O25   O     O_R   0.094470 0.444710 0.235160 -0.570192
O26   O     O_R   0.905530 0.555290 0.764840 -0.574589
O27   O     O_R   0.555290 0.094470 0.235160 -0.576785
O28   O     O_R   0.444710 0.905530 0.764840 -0.573224
O29   O     O_R   0.905530 0.444710 0.764840 -0.574776
O30   O     O_R   0.094470 0.555290 0.235160 -0.575402
O31   O     O_R   0.444710 0.094470 0.764840 -0.571485
O32   O     O_R   0.555290 0.905530 0.235160 -0.573263
O33   O     O_R   0.094470 0.555290 0.764840 -0.573730
O34   O     O_R   0.905530 0.444710 0.235160 -0.573402
O35   O     O_R   0.555290 0.905530 0.764840 -0.574269
O36   O     O_R   0.444710 0.094470 0.235160 -0.577171
O37   O     O_R   0.405530 0.055290 0.735160 -0.578056
O38   O     O_R   0.594470 0.944710 0.264840 -0.575524
O39   O     O_R   0.944710 0.405530 0.735160 -0.574000
O40   O     O_R   0.055290 0.594470 0.264840 -0.573295
O41   O     O_R   0.594470 0.944710 0.735160 -0.573839
O42   O     O_R   0.405530 0.055290 0.264840 -0.576334
O43   O     O_R   0.055290 0.594470 0.735160 -0.574581
O44   O     O_R   0.944710 0.405530 0.264840 -0.573439
O45   O     O_R   0.405530 0.944710 0.264840 -0.576510
O46   O     O_R   0.594470 0.055290 0.735160 -0.571636
O47   O     O_R   0.944710 0.594470 0.264840 -0.572303
O48   O     O_R   0.055290 0.405530 0.735160 -0.571380
O49   O     O_R   0.594470 0.055290 0.264840 -0.575705
O50   O     O_R   0.405530 0.944710 0.735160 -0.580146
O51   O     O_R   0.055290 0.405530 0.264840 -0.579335
O52   O     O_R   0.944710 0.594470 0.735160 -0.574289
O53   O     O_2   0.430479 0.971942 0.062335 -0.429791
O54   O     O_2   0.570547 0.978228 0.937551 -0.435148
O55   O     O_2   0.018450 0.437841 0.069542 -0.578098
O56   O     O_2   0.017490 0.568074 0.935614 -0.458937
O57   O     O_2   0.567590 0.028462 0.065154 -0.456900
O58   O     O_2   0.430182 0.029941 0.935810 -0.452849
O59   O     O_2   0.971797 0.561610 0.063305 -0.461459
O60   O     O_2   0.972304 0.435724 0.937953 -0.456377
O61   O     O_2   0.930479 0.471942 0.562335 -0.425575
O62   O     O_2   0.070547 0.478228 0.437551 -0.427814
O63   O     O_2   0.533586 0.936278 0.563006 -0.522747
O64   O     O_2   0.521799 0.083805 0.436856 -0.457369
O65   O     O_2   0.067590 0.528462 0.565154 -0.455162
O66   O     O_2   0.930182 0.529941 0.435810 -0.449531
O67   O     O_2   0.470215 0.067509 0.564478 -0.457847
O68   O     O_2   0.456436 0.933067 0.439624 -0.358327
Zn1   Zn    Zn3+2 0.000000 0.556130 0.272120 1.107671
Zn2   Zn    Zn3+2 1.000000 0.443870 0.727880 1.108456
Zn3   Zn    Zn3+2 0.443870 1.000000 0.272120 1.101293
Zn4   Zn    Zn3+2 0.556130 0.000000 0.727880 1.102158
Zn5   Zn    Zn3+2 1.000000 0.443870 0.272120 1.109737
Zn6   Zn    Zn3+2 1.000000 0.556130 0.727880 1.106414
Zn7   Zn    Zn3+2 0.556130 1.000000 0.272120 1.100294
Zn8   Zn    Zn3+2 0.443870 0.000000 0.727880 1.087088
Zn9   Zn    Zn3+2 0.500000 0.056130 0.772120 1.103289
Zn10  Zn    Zn3+2 0.500000 0.943870 0.227880 1.112698
Zn11  Zn    Zn3+2 0.943870 0.500000 0.772120 1.106353
Zn12  Zn    Zn3+2 0.056130 0.500000 0.227880 1.104655
Zn13  Zn    Zn3+2 0.500000 0.943870 0.772120 1.103990
Zn14  Zn    Zn3+2 0.500000 0.056130 0.227880 1.104449
Zn15  Zn    Zn3+2 0.056130 0.500000 0.772120 1.104979
Zn16  Zn    Zn3+2 0.943870 0.500000 0.227880 1.109849
F1    F     F_    0.347245 0.763875 0.218777 -0.485735
F2    F     F_    0.652753 0.236126 0.781223 -0.533499
F3    F     F_    0.236875 0.346205 0.218722 -0.517695
F4    F     F_    0.763122 0.653792 0.781275 -0.533716
F5    F     F_    0.653316 0.236474 0.218633 -0.523608
F6    F     F_    0.346687 0.763524 0.781366 -0.531596
F7    F     F_    0.763944 0.654257 0.219020 -0.529531
F8    F     F_    0.236062 0.345748 0.780975 -0.532735
F9    F     F_    0.345572 0.236432 0.780931 -0.531765
F10   F     F_    0.654427 0.763569 0.219068 -0.549807
F11   F     F_    0.236062 0.652748 0.781125 -0.531025
F12   F     F_    0.763934 0.347256 0.218878 -0.529044
F13   F     F_    0.653749 0.763539 0.781367 -0.532252
F14   F     F_    0.346252 0.236461 0.218634 -0.532935
F15   F     F_    0.763436 0.346786 0.781435 -0.531824
F16   F     F_    0.236569 0.653209 0.218569 -0.531737
F17   F     F_    0.847246 0.263874 0.718778 -0.527638
F18   F     F_    0.152755 0.736124 0.281224 -0.521889
F19   F     F_    0.736876 0.846205 0.718723 -0.528944
F20   F     F_    0.263120 0.153791 0.281274 -0.537713
F21   F     F_    0.153319 0.736471 0.718630 -0.527875
F22   F     F_    0.846684 0.263528 0.281370 -0.468473
F23   F     F_    0.263943 0.154256 0.719020 -0.525519
F24   F     F_    0.736063 0.845749 0.280974 -0.520361
F25   F     F_    0.845574 0.736434 0.280929 -0.523193
F26   F     F_    0.154426 0.263567 0.719069 -0.528288
F27   F     F_    0.736060 0.152748 0.281127 -0.535377
F28   F     F_    0.263936 0.847255 0.718876 -0.527113
F29   F     F_    0.153746 0.263537 0.281364 -0.535930
F30   F     F_    0.846253 0.736463 0.718635 -0.531139
F31   F     F_    0.263436 0.846786 0.281435 -0.536645
F32   F     F_    0.736569 0.153209 0.718569 -0.527265
F33   F     F_    0.412705 0.828744 0.218561 -0.516688
F34   F     F_    0.587293 0.171257 0.781438 -0.524076
F35   F     F_    0.171221 0.412692 0.218700 -0.523217
F36   F     F_    0.828777 0.587305 0.781298 -0.525288
F37   F     F_    0.587877 0.171720 0.218794 -0.523135
F38   F     F_    0.412125 0.828279 0.781206 -0.522980
F39   F     F_    0.829687 0.587663 0.219049 -0.520440
F40   F     F_    0.170317 0.412341 0.780948 -0.524297
F41   F     F_    0.412245 0.170656 0.781015 -0.522866
F42   F     F_    0.587753 0.829344 0.218985 -0.507945
F43   F     F_    0.171215 0.587345 0.781284 -0.522030
F44   F     F_    0.828781 0.412658 0.218719 -0.522288
F45   F     F_    0.587265 0.829185 0.781402 -0.523508
F46   F     F_    0.412736 0.170816 0.218599 -0.527209
F47   F     F_    0.828207 0.412203 0.781211 -0.522989
F48   F     F_    0.171796 0.587794 0.218792 -0.523731
F49   F     F_    0.912706 0.328743 0.718561 -0.519640
F50   F     F_    0.087294 0.671256 0.281439 -0.519869
F51   F     F_    0.671222 0.912692 0.718701 -0.520099
F52   F     F_    0.328776 0.087305 0.281297 -0.527856
F53   F     F_    0.087879 0.671718 0.718791 -0.521157
F54   F     F_    0.912123 0.328282 0.281208 -0.521443
F55   F     F_    0.329686 0.087662 0.719049 -0.517490
F56   F     F_    0.670318 0.912341 0.280948 -0.524706
F57   F     F_    0.912247 0.670658 0.281013 -0.519199
F58   F     F_    0.087752 0.329343 0.718986 -0.520956
F59   F     F_    0.671214 0.087345 0.281285 -0.525560
F60   F     F_    0.328783 0.912658 0.718718 -0.517722
F61   F     F_    0.087264 0.329182 0.281400 -0.507328
F62   F     F_    0.912736 0.670817 0.718600 -0.524027
F63   F     F_    0.328207 0.912203 0.281211 -0.526421
F64   F     F_    0.671796 0.087793 0.718792 -0.518665
O69   O     O_3   0.626700 0.003745 0.027173 -0.606645
C241  C     C_3   0.669373 0.998161 0.013952 -0.129100
H1    H     H_    0.682375 0.030416 0.006138 0.164468
H2    H     H_    0.670491 0.968573 0.000927 0.201815
H3    H     H_    0.697047 0.990248 0.027461 0.164655
O70   O     O_3   0.372751 0.008354 0.972842 -0.600266
C242  C     C_3   0.329860 0.000700 0.985345 -0.133279
H4    H     H_    0.315318 0.031266 0.994211 0.161527
H5    H     H_    0.329484 0.969249 0.997277 0.200607
H6    H     H_    0.302999 0.995027 0.971202 0.166658
O71   O     O_3   0.001766 0.625991 0.027675 -0.614655
C243  C     C_3   0.996498 0.670068 0.014015 -0.111031
H7    H     H_    0.959959 0.677712 0.007957 0.156825
H8    H     H_    0.024015 0.676382 0.999190 0.203075
H9    H     H_    0.001588 0.698957 0.027091 0.157878
O72   O     O_3   0.999351 0.372730 0.972199 -0.617030
C244  C     C_3   0.999686 0.329065 0.984430 -0.154361
H10   H     H_    0.967019 0.321601 0.992943 0.170109
H11   H     H_    0.030464 0.323161 0.996304 0.205275
H12   H     H_    0.001438 0.301268 0.970429 0.162846
O73   O     O_3   0.374154 0.001904 0.028397 -0.568779
C245  C     C_3   0.352285 0.045001 0.033823 -0.230979
H13   H     H_    0.348372 0.069313 0.018258 0.137739
H14   H     H_    0.372345 0.069823 0.043360 0.108782
H15   H     H_    0.318767 0.038892 0.043587 0.198542
O74   O     O_3   0.624900 0.005693 0.971499 -0.571127
C246  C     C_3   0.645511 0.049201 0.967053 -0.278995
H16   H     H_    0.647162 0.072199 0.983153 0.147843
H17   H     H_    0.624826 0.073173 0.956594 0.127154
H18   H     H_    0.680128 0.043713 0.958271 0.200126
O75   O     O_3   0.005409 0.371370 0.028444 -0.598761
C247  C     C_3   0.968392 0.339848 0.036356 -0.249588
H19   H     H_    0.939901 0.330437 0.024750 0.130817
H20   H     H_    0.940519 0.348956 0.049231 0.104580
H21   H     H_    0.985969 0.308931 0.044570 0.200539
O76   O     O_3   0.992326 0.624244 0.971853 -0.561637
C248  C     C_3   0.943384 0.636893 0.970514 -0.271373
H22   H     H_    0.922583 0.632420 0.988159 0.144002
H23   H     H_    0.921372 0.613106 0.961082 0.119604
H24   H     H_    0.939762 0.673400 0.962438 0.191712
O77   O     O_3   0.126699 0.503745 0.527173 -0.603634
C249  C     C_3   0.169373 0.498161 0.513952 -0.185151
H25   H     H_    0.182375 0.530416 0.506138 0.174981
H26   H     H_    0.170491 0.468573 0.500927 0.217805
H27   H     H_    0.197047 0.490248 0.527462 0.212016
O78   O     O_3   0.872751 0.508354 0.472842 -0.601374
C250  C     C_3   0.829860 0.500700 0.485345 -0.116926
H28   H     H_    0.815318 0.531266 0.494210 0.161943
H29   H     H_    0.829484 0.469248 0.497277 0.202552
H30   H     H_    0.802999 0.495027 0.471202 0.173268
O79   O     O_3   0.499162 0.126842 0.528344 -0.610098
C251  C     C_3   0.496714 0.170337 0.515923 -0.145393
H31   H     H_    0.462609 0.174608 0.506946 0.198110
H32   H     H_    0.528056 0.176726 0.504133 0.182053
H33   H     H_    0.496762 0.198349 0.529678 0.162422
O80   O     O_3   0.492883 0.874218 0.472397 -0.602270
C252  C     C_3   0.497501 0.830628 0.484620 -0.124870
H34   H     H_    0.465279 0.817245 0.492477 0.164335
H35   H     H_    0.527759 0.828008 0.497067 0.196422
H36   H     H_    0.504271 0.803933 0.470448 0.157700
O81   O     O_3   0.874154 0.501904 0.528397 -0.568793
C253  C     C_3   0.852285 0.545001 0.533824 -0.225243
H37   H     H_    0.848372 0.569313 0.518258 0.141005
H38   H     H_    0.872345 0.569823 0.543360 0.108981
H39   H     H_    0.818766 0.538892 0.543587 0.202199
O82   O     O_3   0.124900 0.505694 0.471499 -0.568892
C254  C     C_3   0.145511 0.549201 0.467053 -0.262663
H40   H     H_    0.147162 0.572199 0.483153 0.151206
H41   H     H_    0.124826 0.573173 0.456594 0.126334
H42   H     H_    0.180128 0.543713 0.458271 0.207202
O83   O     O_3   0.496462 0.875360 0.527994 -0.617337
C255  C     C_3   0.452248 0.854808 0.531793 -0.359790
H43   H     H_    0.429127 0.856774 0.515849 0.181322
H44   H     H_    0.426353 0.872132 0.543302 0.126221
H45   H     H_    0.457631 0.819533 0.539471 0.206836
O84   O     O_3   0.492926 0.129072 0.475332 -0.645490
C256  C     C_3   0.489051 0.169471 0.460588 -0.118470
H46   H     H_    0.471860 0.198477 0.470577 0.111868
H47   H     H_    0.467235 0.163179 0.444473 0.186339
H48   H     H_    0.523781 0.181343 0.454703 0.198522
O85   O     O_3   0.910067 0.488642 0.399225 -0.488586
C257  C     C_3   0.895508 0.454129 0.417870 0.077194
H49   H     H_    0.921626 0.442628 0.432338 0.081449
H50   H     H_    0.884899 0.421413 0.409098 0.142928
H51   H     H_    0.867245 0.467717 0.430415 0.202213
O86   O     O_3   0.089526 0.483194 0.600788 -0.490324
C258  C     C_3   0.103249 0.449686 0.581581 0.073964
H52   H     H_    0.077026 0.439467 0.567167 0.084652
H53   H     H_    0.114511 0.416406 0.590035 0.141306
H54   H     H_    0.131803 0.463072 0.569250 0.203128
O87   O     O_3   0.504765 0.911687 0.399794 -0.493736
C259  C     C_3   0.541407 0.891882 0.415786 0.040109
H55   H     H_    0.557909 0.917672 0.428441 0.066691
H56   H     H_    0.571923 0.878829 0.405649 0.135124
H57   H     H_    0.528535 0.864893 0.429590 0.194828
O88   O     O_3   0.512762 0.089487 0.600746 -0.494380
C260  C     C_3   0.547101 0.104530 0.582175 0.058503
H58   H     H_    0.558717 0.079238 0.567310 0.084079
H59   H     H_    0.579806 0.115121 0.591028 0.133921
H60   H     H_    0.533296 0.133307 0.570139 0.205422
O89   O     O_3   0.091568 0.512159 0.398730 -0.480559
C261  C     C_3   0.108149 0.550368 0.412966 0.032344
H61   H     H_    0.085798 0.558536 0.428763 0.103213
H62   H     H_    0.102210 0.582055 0.402370 0.129646
H63   H     H_    0.147069 0.543960 0.416004 0.189677
O90   O     O_3   0.908271 0.508113 0.600825 -0.479574
C262  C     C_3   0.892246 0.547070 0.586377 0.073630
H64   H     H_    0.913464 0.553206 0.569840 0.098164
H65   H     H_    0.902948 0.577558 0.596111 0.107851
H66   H     H_    0.853548 0.550669 0.585734 0.155402
O91   O     O_3   0.493634 0.089746 0.396611 -0.507992
C263  C     C_3   0.454231 0.114975 0.406654 0.309924
H67   H     H_    0.440408 0.087569 0.418665 -1.195457
H68   H     H_    0.420639 0.108120 0.420332 0.098101
H69   H     H_    0.440190 0.137331 0.389811 0.149321
O92   O     O_3   0.482922 0.910113 0.603018 -0.547868
C264  C     C_3   0.469437 0.887067 0.580969 0.074309
H70   H     H_    0.453498 0.911905 0.568543 0.112766
H71   H     H_    0.435658 0.868390 0.584073 0.127486
H72   H     H_    0.503896 0.867540 0.573086 0.256275
O93   O     O_3   0.410067 0.988642 0.899225 -0.488862
C265  C     C_3   0.395508 0.954129 0.917870 0.062438
H73   H     H_    0.421626 0.942628 0.932338 0.081750
H74   H     H_    0.384899 0.921413 0.909099 0.136196
H75   H     H_    0.367245 0.967717 0.930415 0.201445
O94   O     O_3   0.589526 0.983194 0.100788 -0.482853
C266  C     C_3   0.603249 0.949686 0.081581 0.067560
H76   H     H_    0.577026 0.939467 0.067167 0.081711
H77   H     H_    0.614511 0.916406 0.090035 0.136245
H78   H     H_    0.631803 0.963072 0.069250 0.201525
O95   O     O_3   0.001460 0.409836 0.899536 -0.492890
C267  C     C_3   0.036282 0.389355 0.915979 0.089104
H79   H     H_    0.054827 0.412709 0.928485 0.072673
H80   H     H_    0.066460 0.375279 0.905692 0.125375
H81   H     H_    0.021109 0.363178 0.929167 0.210848
O96   O     O_3   0.006772 0.589692 0.100220 -0.493371
C268  C     C_3   0.040780 0.608676 0.082658 0.065307
H82   H     H_    0.055032 0.586035 0.067256 0.092508
H83   H     H_    0.072191 0.620467 0.092273 0.130011
H84   H     H_    0.025153 0.637181 0.071183 0.210848
O97   O     O_3   0.591568 0.012159 0.898730 -0.483053
C269  C     C_3   0.608149 0.050368 0.912966 0.017964
H85   H     H_    0.585798 0.058535 0.928763 0.107749
H86   H     H_    0.602210 0.082055 0.902370 0.125191
H87   H     H_    0.647069 0.043960 0.916004 0.185039
O98   O     O_3   0.408271 0.008113 0.100825 -0.476467
C270  C     C_3   0.392246 0.047070 0.086377 0.073427
H88   H     H_    0.413464 0.053206 0.069840 0.097188
H89   H     H_    0.402948 0.077558 0.096111 0.108792
H90   H     H_    0.353548 0.050669 0.085734 0.153210
O99   O     O_3   0.982233 0.591590 0.898324 -0.479130
C271  C     C_3   0.945179 0.604541 0.915549 0.128694
H91   H     H_    0.940875 0.582192 0.931325 0.089325
H92   H     H_    0.913360 0.593587 0.907308 0.091001
H93   H     H_    0.940499 0.642670 0.917960 0.148282
O100  O     O_3   0.004997 0.403356 0.104604 -0.469898
C272  C     C_3   0.964163 0.387136 0.089827 0.119936
H94   H     H_    0.951084 0.401948 0.070329 0.032537
H95   H     H_    0.937734 0.414705 0.094682 0.129619
H96   H     H_    0.985299 0.368339 0.075763 0.225669
F65   F     F_    0.918678 0.492730 0.350046 -0.579386
F66   F     F_    0.081278 0.490980 0.649907 -0.579909
F67   F     F_    0.502462 0.918686 0.350353 -0.589289
F68   F     F_    0.507686 0.081260 0.649992 -0.582216
F69   F     F_    0.082340 0.507605 0.349606 -0.581804
F70   F     F_    0.917406 0.506446 0.650436 -0.586396
F71   F     F_    0.495524 0.082723 0.349218 -0.597206
F72   F     F_    0.492234 0.917811 0.650356 -0.570055
F73   F     F_    0.418678 0.992730 0.850046 -0.583749
F74   F     F_    0.581278 0.990980 0.149907 -0.566853
F75   F     F_    0.002778 0.417620 0.849882 -0.589693
F76   F     F_    0.000336 0.581942 0.149615 -0.585238
F77   F     F_    0.582340 0.007605 0.849606 -0.588012
F78   F     F_    0.417406 0.006446 0.150437 -0.533642
F79   F     F_    0.990855 0.581464 0.849706 -0.583810
F80   F     F_    0.998040 0.418172 0.151237 -0.585859

loop_
_geom_bond_atom_site_label_1
_geom_bond_atom_site_label_2
_ccdc_geom_bond_type
O6    Zn11  S    
O50   Zn8   S    
O75   C247  S    
C111  C191  A    
C18   C21   A    
C192  C208  S    
C272  H94   S    
O31   Zn9   S    
C99   F3    S    
C143  C175  A    
O36   Zn14  S    
C42   C58   A    
C107  F11   S    
C179  C195  S    
O77   C249  S    
C256  H48   S    
C5    O17   A    
C145  F49   S    
C96   O36   A    
C177  C193  S    
C46   C62   A    
C103  C183  A    
C242  H5    S    
C96   O42   A    
O40   Zn1   S    
O98   C270  S    
C126  F30   S    
C109  F13   S    
C60   C72   A    
O1    Zn5   S    
C90   C176  S    
O26   Zn11  S    
O48   Zn2   S    
C186  C202  S    
O81   C253  S    
C219  C239  A    
C102  F6    S    
C94   C172  S    
C190  C206  S    
C150  C172  A    
C145  C175  A    
C92   C170  S    
C267  H79   S    
C146  C176  A    
C26   C234  A    
C125  C179  A    
C159  C161  A    
C139  C171  A    
C8    O16   A    
C152  F56   S    
C245  H14   S    
C180  C196  S    
O4    Zn13  S    
C94   O34   A    
C49   F65   S    
C220  N8    A    
C151  F55   S    
C244  H11   S    
C193  C208  T    
C51   F67   S    
C108  F12   S    
O2    Zn6   S    
C2    O6    A    
C4    C69   S    
C246  H18   S    
C35   O87   S    
C262  H65   S    
O7    Zn14  S    
C120  C152  A    
C254  H40   S    
C102  C182  A    
C210  N2    A    
C74   N5    S    
C93   O43   A    
O44   Zn5   S    
C58   C70   A    
C13   C237  A    
C156  F60   S    
C110  C190  A    
C148  C174  A    
C40   C76   A    
O33   Zn15  S    
C217  O61   S    
O2    Zn15  S    
C252  H36   S    
C124  C182  A    
C152  C170  A    
C52   F68   S    
C22   C230  A    
O21   Zn16  S    
C156  C166  A    
C58   F74   S    
C248  H24   S    
C254  H41   S    
O92   C264  S    
C261  H61   S    
C81   C167  S    
C223  O67   S    
C268  H83   S    
C96   C174  S    
C33   C73   A    
O76   C248  S    
C63   C71   A    
C89   O39   A    
C95   O35   A    
C260  H59   S    
C35   C51   A    
C106  F10   S    
C272  H96   S    
C91   O37   A    
C121  F25   S    
C218  C238  A    
C2    C71   S    
C38   O90   S    
C123  F27   S    
C222  C234  A    
C11   C231  A    
C44   O96   S    
C22   O74   S    
C108  C188  A    
O27   Zn14  S    
C217  N5    A    
C128  F32   S    
C100  C132  A    
C265  H73   S    
C158  F62   S    
C101  C133  A    
C141  F45   S    
C214  N2    A    
C251  H31   S    
C271  H92   S    
C95   C173  S    
C123  C181  A    
C7    C66   S    
C87   C165  S    
C27   O79   S    
C155  C165  A    
C267  H81   S    
C212  C232  A    
C259  H55   S    
C25   O77   S    
C160  F64   S    
C112  F16   S    
C250  H29   S    
C45   O97   S    
C104  F8    S    
C46   O98   S    
C258  H54   S    
C84   O46   A    
O96   C268  S    
C220  C240  A    
C117  C149  A    
C33   C49   A    
C23   C231  A    
C75   N8    S    
C123  C155  A    
C160  C162  A    
C53   F69   S    
C187  C203  S    
C40   C56   A    
O52   Zn6   S    
C62   F78   S    
C181  C197  S    
O4    Zn8   S    
C265  H75   S    
C144  F48   S    
O49   Zn7   S    
O18   Zn7   S    
C194  C207  T    
C115  F19   S    
C62   C70   A    
C216  C228  A    
O72   C244  S    
C1    C72   S    
C185  C201  S    
O1    Zn1   S    
C266  H78   S    
C3    O11   A    
C136  F40   S    
C113  C145  A    
O37   Zn8   S    
C10   C230  A    
C118  C150  A    
C19   C227  A    
C17   C225  A    
C270  H88   S    
C18   O70   S    
C6    O18   A    
C199  C202  T    
O34   Zn16  S    
C7    O15   A    
C39   C75   A    
C98   C178  A    
C53   C65   A    
C9    C10   A    
C36   C52   A    
C29   O81   S    
C43   C59   A    
C37   C53   A    
C130  C162  A    
C57   F73   S    
C8    C65   S    
C34   O86   S    
C13   C14   A    
C59   F75   S    
O39   Zn2   S    
C117  F21   S    
C87   O27   A    
C30   C238  A    
C15   C239  A    
O12   Zn9   S    
O45   Zn3   S    
O46   Zn4   S    
O47   Zn1   S    
C121  C153  A    
C78   N1    S    
C253  H37   S    
C91   C169  S    
C251  H33   S    
C222  O66   S    
C3    C70   S    
C39   O91   S    
O84   C256  S    
C213  O57   S    
C209  N1    A    
C134  F38   S    
C191  C207  S    
C223  N7    A    
C56   C68   A    
C55   F71   S    
C188  C204  S    
C259  H57   S    
O13   Zn4   S    
C131  F35   S    
C264  H71   S    
C209  O53   S    
O14   Zn3   S    
C92   O32   A    
C91   O31   A    
C60   F76   S    
C219  O63   S    
C245  H15   S    
C127  F31   S    
C258  H52   S    
C20   C23   A    
C144  C176  A    
C89   O29   A    
C4    O12   A    
C270  H90   S    
C129  C161  A    
C6    O14   A    
C51   C67   A    
C126  C180  A    
C28   C236  A    
C6    C67   S    
O74   C246  S    
C148  F52   S    
C241  H2    S    
C260  H60   S    
C88   O50   A    
C4    O8    A    
C30   O82   S    
C217  C237  A    
C101  C181  A    
C247  H19   S    
C13   C233  A    
O70   C242  S    
C38   C74   A    
C104  C136  A    
C221  C233  A    
C149  C171  A    
O24   Zn9   S    
O80   C252  S    
C262  H64   S    
C29   C237  A    
C54   C66   A    
C256  H47   S    
C43   O95   S    
C20   C228  A    
C80   N3    S    
C48   O100  S    
O17   Zn8   S    
O69   C241  S    
C114  F18   S    
O15   Zn6   S    
O3    Zn7   S    
C85   O51   A    
C195  C206  T    
O41   Zn4   S    
C86   O52   A    
O42   Zn3   S    
C85   O25   A    
O28   Zn13  S    
C215  C227  A    
C95   O41   A    
C107  C139  A    
C257  H49   S    
C21   O73   S    
O94   C266  S    
C105  C137  A    
C255  H43   S    
C16   C240  A    
O25   Zn12  S    
C11   C227  A    
C56   F72   S    
O87   C259  S    
C135  C167  A    
C130  F34   S    
C45   C77   A    
O78   C250  S    
C268  H82   S    
C263  H67   S    
C100  C180  A    
C216  N4    A    
C5    O13   A    
C244  H10   S    
C153  F57   S    
O99   C271  S    
O19   Zn2   S    
C149  F53   S    
C246  H17   S    
C82   C168  S    
C146  F50   S    
C178  C194  S    
C269  H85   S    
C111  F15   S    
C17   O69   S    
C47   C63   A    
O93   C265  S    
C110  F14   S    
C125  C157  A    
C12   C228  A    
C125  F29   S    
O3    Zn3   S    
C24   O76   S    
C115  C147  A    
O4    Zn4   S    
O88   C260  S    
C197  C204  T    
C103  F7    S    
C252  H35   S    
C224  O68   S    
C249  H25   S    
C116  C190  A    
C20   O72   S    
C97   F1    S    
C224  N8    A    
C39   C55   A    
C54   F70   S    
C189  C205  S    
C248  H23   S    
C254  H42   S    
C261  H62   S    
C134  C166  A    
O2    Zn2   S    
C142  F46   S    
O38   Zn7   S    
C247  H21   S    
C139  F43   S    
C100  F4    S    
C260  H58   S    
C153  C167  A    
C272  H95   S    
C154  C168  A    
C124  F28   S    
C5    C68   S    
C266  H77   S    
O30   Zn12  S    
C1    O5    A    
C216  O60   S    
C32   O84   S    
C1    O9    A    
O8    Zn13  S    
C261  H63   S    
C159  F63   S    
O79   C251  S    
C127  C177  A    
C211  N3    A    
C44   C80   A    
C242  H6    S    
C31   O83   S    
C92   O38   A    
C220  O64   S    
C14   C238  A    
C116  F20   S    
C265  H74   S    
C73   N6    S    
O43   Zn6   S    
C129  F33   S    
C140  F44   S    
C120  C186  A    
C249  H27   S    
C87   O49   A    
C132  C164  A    
O1    Zn12  S    
C99   C179  A    
O85   C257  S    
C211  O55   S    
C112  C192  A    
C97   C177  A    
C38   C54   A    
C255  H45   S    
C131  C163  A    
C266  H76   S    
C21   C229  A    
C98   C130  A    
C81   O21   A    
C132  F36   S    
C79   N4    S    
C83   O23   A    
C106  C186  A    
C253  H38   S    
C34   C74   A    
C263  H69   S    
C104  C184  A    
C122  C154  A    
C244  H12   S    
C136  C168  A    
C85   C163  S    
C219  N7    A    
C76   N7    S    
C86   C164  S    
C89   C175  S    
C218  N6    A    
C214  O58   S    
C84   C162  S    
C46   C78   A    
C262  H66   S    
C25   C30   A    
O23   Zn10  S    
C31   C239  A    
O90   C262  S    
C98   F2    S    
C109  C141  A    
C27   C32   A    
O82   C254  S    
C28   C31   A    
C218  O62   S    
C24   C232  A    
C151  C169  A    
C19   O71   S    
C147  C173  A    
C138  F42   S    
C115  C189  A    
C215  N3    A    
C17   C22   A    
C90   O30   A    
C213  N1    A    
C19   C24   A    
C224  C236  A    
C41   C57   A    
C55   C67   A    
C7    O19   A    
C222  N6    A    
C48   C80   A    
C44   C60   A    
C45   C61   A    
C88   O28   A    
C119  F23   S    
C243  H7    S    
O86   C258  S    
C268  H84   S    
C15   C235  A    
C198  C203  T    
O35   Zn13  S    
O10   Zn15  S    
C15   C16   A    
C251  H32   S    
C258  H53   S    
C93   C171  S    
C138  C170  A    
C120  F24   S    
C242  H4    S    
C182  C198  S    
C47   C79   A    
C8    O20   A    
C93   O33   A    
O73   C245  S    
C211  C231  A    
O91   C263  S    
C142  C174  A    
C150  F54   S    
C35   C75   A    
C49   C65   A    
O29   Zn11  S    
C86   O26   A    
C147  F51   S    
C271  H91   S    
C116  C148  A    
O89   C261  S    
C133  C165  A    
C41   C77   A    
C106  C138  A    
C16   C236  A    
C43   C79   A    
O95   C267  S    
C107  C187  A    
C9    C229  A    
C264  H70   S    
C105  C185  A    
C196  C205  T    
C110  C142  A    
C103  C135  A    
C250  H30   S    
C18   C226  A    
C48   C64   A    
O5    Zn12  S    
C109  C189  A    
C200  C201  T    
C253  H39   S    
O71   C243  S    
C270  H89   S    
C154  F58   S    
O2    Zn11  S    
C36   O88   S    
C36   C76   A    
C157  C163  A    
C137  C169  A    
O3    Zn14  S    
C27   C235  A    
C121  C183  A    
C41   O93   S    
C83   C161  S    
C25   C233  A    
O16   Zn5   S    
C140  C172  A    
C118  F22   S    
C141  C173  A    
C26   O78   S    
C241  H3    S    
C143  F47   S    
C259  H56   S    
C28   O80   S    
C247  H20   S    
C12   C232  A    
C63   F79   S    
C126  C158  A    
C119  C151  A    
C113  C191  A    
C111  C143  A    
C34   C50   A    
C114  C192  A    
C84   O24   A    
C77   N2    S    
C40   O92   S    
C94   O44   A    
O11   Zn10  S    
C213  C225  A    
C114  C146  A    
C117  C187  A    
C135  F39   S    
C246  H16   S    
C108  C140  A    
C23   O75   S    
C118  C188  A    
C32   C240  A    
C257  H51   S    
C184  C200  S    
C256  H46   S    
C183  C199  S    
C33   O85   S    
C119  C185  A    
C102  C134  A    
C3    O7    A    
C157  F61   S    
O3    Zn10  S    
O83   C255  S    
C243  H9    S    
C50   F66   S    
C155  F59   S    
O97   C269  S    
C209  C229  A    
C257  H50   S    
C50   C66   A    
C223  C235  A    
C26   C29   A    
C267  H80   S    
O100  C272  S    
C2    O10   A    
C255  H44   S    
C42   C78   A    
C88   C166  S    
C124  C156  A    
C128  C178  A    
O32   Zn10  S    
C127  C159  A    
C14   C234  A    
C137  F41   S    
C128  C160  A    
C263  H68   S    
C245  H13   S    
C61   C69   A    
C37   C73   A    
C101  F5    S    
O9    Zn16  S    
C271  H93   S    
C210  O54   S    
O1    Zn16  S    
C243  H8    S    
C52   C68   A    
C9    C225  A    
C11   C12   A    
C158  C164  A    
C42   O94   S    
C269  H86   S    
C99   C131  A    
C47   O99   S    
C82   O22   A    
C264  H72   S    
C133  F37   S    
O22   Zn15  S    
C112  C144  A    
C61   F77   S    
C81   O47   A    
C97   C129  A    
C250  H28   S    
C212  N4    A    
C82   O48   A    
C90   O40   A    
O20   Zn1   S    
C83   O45   A    
C113  F17   S    
C64   F80   S    
C221  N5    A    
C122  F26   S    
C122  C184  A    
O51   Zn5   S    
C64   C72   A    
C252  H34   S    
C214  C226  A    
C249  H26   S    
C210  C230  A    
C37   O89   S    
C215  O59   S    
C105  F9    S    
C269  H87   S    
C248  H22   S    
C10   C226  A    
C241  H1    S    
C57   C69   A    
C212  O56   S    
O4    Zn9   S    
C59   C71   A    
C221  O65   S    
