data_mof_unit_61267.cif
_audit_creation_date              2012-12-10T17:50:35-0500
_audit_creation_method            fapswitch 2.2
_symmetry_space_group_name_H-M    P1
_symmetry_Int_Tables_number       1
_space_group_crystal_system       triclinic
_cell_length_a                    44.452027
_cell_length_b                    39.017448
_cell_length_c                    21.39004
_cell_angle_alpha                 90.002454
_cell_angle_beta                  61.353539
_cell_angle_gamma                 90.004244
_cell_volume                      32557.8656212

loop_
_atom_site_label
_atom_site_type_symbol
_atom_type_description
_atom_site_fract_x
_atom_site_fract_y
_atom_site_fract_z
_atom_type_partial_charge
C1    C     C_R   0.066179 0.499986 0.433830 0.780632
C2    C     C_R   0.933821 0.499983 0.566174 0.780511
C3    C     C_R   0.566179 0.999985 0.433831 0.780724
C4    C     C_R   0.433821 0.999983 0.566174 0.780592
C5    C     C_3   0.999757 0.499881 0.689252 -0.002298
C6    C     C_3   0.000241 0.499876 0.310750 -0.002231
C7    C     C_3   0.499730 0.999925 0.689273 -0.001184
C8    C     C_3   0.500267 0.999916 0.310729 -0.001218
C9    C     C_R   0.378031 0.484527 0.072353 -0.148285
C10   C     C_R   0.621967 0.484505 0.927465 -0.147519
C11   C     C_R   0.878032 0.984526 0.072352 -0.148364
C12   C     C_R   0.121967 0.984504 0.927466 -0.147627
C13   C     C_R   0.342243 0.484087 0.108483 -0.158699
C14   C     C_R   0.657747 0.484022 0.891347 -0.155952
C15   C     C_R   0.842244 0.984086 0.108482 -0.158770
C16   C     C_R   0.157747 0.984020 0.891348 -0.155982
C17   C     C_R   0.324205 0.499658 0.175495 0.093381
C18   C     C_R   0.676146 0.499568 0.823999 0.102582
C19   C     C_R   0.824205 0.999656 0.175493 0.093270
C20   C     C_R   0.176146 0.999566 0.823999 0.102477
C21   C     C_R   0.342239 0.515249 0.206544 -0.157145
C22   C     C_R   0.657736 0.515197 0.793437 -0.158751
C23   C     C_R   0.842239 0.015248 0.206543 -0.157212
C24   C     C_R   0.157737 0.015196 0.793437 -0.158902
C25   C     C_R   0.378021 0.514941 0.171248 -0.170826
C26   C     C_R   0.621963 0.514926 0.828862 -0.167324
C27   C     C_R   0.878021 0.014940 0.171248 -0.170870
C28   C     C_R   0.121963 0.014924 0.828862 -0.167345
C29   C     C_R   0.396172 0.499799 0.103663 -0.010171
C30   C     C_R   0.603830 0.499794 0.896315 -0.011030
C31   C     C_R   0.896172 0.999799 0.103663 -0.010314
C32   C     C_R   0.103830 0.999793 0.896315 -0.011171
C33   C     C_R   0.268558 0.530707 0.228432 -0.174031
C34   C     C_R   0.732647 0.497971 0.710972 -0.165794
C35   C     C_R   0.768558 0.030706 0.228422 -0.174190
C36   C     C_R   0.232647 0.997967 0.710973 -0.165741
C37   C     C_R   0.232781 0.530775 0.263486 -0.171651
C38   C     C_R   0.768422 0.498465 0.675246 -0.171840
C39   C     C_R   0.732781 0.030773 0.263475 -0.171619
C40   C     C_R   0.268422 0.998462 0.675247 -0.171940
C41   C     C_R   0.214333 0.499797 0.285286 0.097501
C42   C     C_R   0.786502 0.499700 0.713721 0.088826
C43   C     C_R   0.714333 0.999796 0.285282 0.097563
C44   C     C_R   0.286502 0.999697 0.713722 0.088780
C45   C     C_R   0.999862 0.499972 0.620660 0.791101
C46   C     C_R   0.000136 0.499970 0.379341 0.791156
C47   C     C_R   0.499845 0.999979 0.620677 0.790921
C48   C     C_R   0.500153 0.999977 0.379325 0.791003
C49   C     C_R   0.232699 0.468763 0.270204 -0.173514
C50   C     C_R   0.768525 0.500817 0.788240 -0.169704
C51   C     C_R   0.732699 0.968762 0.270207 -0.173520
C52   C     C_R   0.268525 0.000814 0.788241 -0.169627
C53   C     C_R   0.268477 0.468726 0.233653 -0.162009
C54   C     C_R   0.732746 0.501143 0.824035 -0.172624
C55   C     C_R   0.768477 0.968724 0.233657 -0.161860
C56   C     C_R   0.232746 0.001141 0.824036 -0.172766
C57   C     C_R   0.286545 0.499692 0.213021 0.088603
C58   C     C_R   0.714289 0.499535 0.785898 0.100093
C59   C     C_R   0.786545 0.999690 0.213018 0.088671
C60   C     C_R   0.214289 0.999532 0.785899 0.100060
C61   C     C_R   0.157695 0.472928 0.313993 -0.161970
C62   C     C_R   0.842294 0.472859 0.685989 -0.161550
C63   C     C_R   0.657694 0.972925 0.313997 -0.161867
C64   C     C_R   0.342295 0.972856 0.685987 -0.161421
C65   C     C_R   0.121920 0.472791 0.350554 -0.179414
C66   C     C_R   0.878077 0.472706 0.649461 -0.182155
C67   C     C_R   0.621920 0.972789 0.350559 -0.179588
C68   C     C_R   0.378078 0.972704 0.649458 -0.182335
C69   C     C_R   0.103872 0.499958 0.396033 -0.028372
C70   C     C_R   0.896131 0.499947 0.603969 -0.027473
C71   C     C_R   0.603872 0.999957 0.396032 -0.028481
C72   C     C_R   0.396131 0.999946 0.603970 -0.027550
C73   C     C_R   0.122096 0.527079 0.405131 -0.185135
C74   C     C_R   0.877891 0.527126 0.594858 -0.187166
C75   C     C_R   0.622096 0.027081 0.405123 -0.185064
C76   C     C_R   0.377890 0.027125 0.594863 -0.187095
C77   C     C_R   0.157876 0.526845 0.369944 -0.163347
C78   C     C_R   0.842103 0.526829 0.630023 -0.165099
C79   C     C_R   0.657877 0.026845 0.369934 -0.163481
C80   C     C_R   0.342102 0.026828 0.630029 -0.165247
C81   C     C_R   0.176190 0.499859 0.323518 0.105359
C82   C     C_R   0.824162 0.499804 0.676065 0.096747
C83   C     C_R   0.676190 0.999857 0.323515 0.105294
C84   C     C_R   0.324162 0.999802 0.676067 0.096686
C85   C     C_R   0.999999 0.433983 0.000001 0.933685
C86   C     C_R   0.499999 0.933978 0.000002 0.931246
C87   C     C_3   0.031769 0.505587 0.697612 -0.166338
C88   C     C_3   0.968249 0.505689 0.302370 -0.166781
C89   C     C_3   0.532194 0.001881 0.697169 -0.167033
C90   C     C_3   0.467834 0.002329 0.302800 -0.167326
C91   C     C_R   0.999950 0.499939 0.879520 0.819128
C92   C     C_R   0.000049 0.499937 0.120480 0.819151
C93   C     C_R   0.499948 0.999972 0.879521 0.817344
C94   C     C_R   0.500052 0.999967 0.120479 0.817428
C95   C     C_R   0.000001 0.566271 1.000000 0.767693
C96   C     C_R   0.500001 0.066271 1.000000 0.767645
C97   C     C_R   0.499999 0.433910 1.000000 0.929028
C98   C     C_R   0.999999 0.933909 1.000000 0.928989
C99   C     C_R   0.433860 0.499907 0.066061 0.808463
C100  C     C_R   0.566141 0.499909 0.933937 0.808466
C101  C     C_R   0.933860 0.999907 0.066061 0.808369
C102  C     C_R   0.066140 0.999908 0.933937 0.808367
C103  C     C_R   0.500000 0.566109 0.000002 0.766692
C104  C     C_R   1.000000 0.066110 0.000002 0.766505
C105  C     C_R   0.506572 0.622176 0.048773 -0.181322
C106  C     C_R   0.493424 0.622175 0.951243 -0.181443
C107  C     C_R   0.006383 0.122187 0.049072 -0.181699
C108  C     C_R   0.993610 0.122185 0.950944 -0.181893
C109  C     C_R   0.506724 0.657950 0.048567 -0.166336
C110  C     C_R   0.493271 0.657949 0.951455 -0.166549
C111  C     C_R   0.006554 0.157963 0.048819 -0.167197
C112  C     C_R   0.993436 0.157962 0.951206 -0.167222
C113  C     C_R   0.499998 0.676257 0.000013 0.107466
C114  C     C_R   0.999994 0.176153 0.000014 0.105398
C115  C     C_R   0.499999 0.603937 0.000006 -0.029262
C116  C     C_R   0.999998 0.103941 0.000006 -0.029100
C117  C     C_R   0.513341 0.732591 0.935590 -0.177166
C118  C     C_R   0.486657 0.732591 0.064440 -0.177396
C119  C     C_R   0.973717 0.232215 0.996070 -0.177761
C120  C     C_R   0.026270 0.232220 0.003964 -0.177510
C121  C     C_3   0.020727 0.474988 0.750032 -0.115175
C122  C     C_3   0.979186 0.475053 0.250049 -0.115780
C123  C     C_3   0.517683 0.972787 0.753072 -0.110384
C124  C     C_3   0.481931 0.973032 0.247308 -0.111460
C125  C     C_R   0.973624 0.267987 0.996394 -0.163846
C126  C     C_R   0.026362 0.267991 0.003640 -0.163736
C127  C     C_R   0.513191 0.768362 0.935636 -0.163466
C128  C     C_R   0.486806 0.768362 0.064396 -0.163566
C129  C     C_R   0.999993 0.286293 0.000016 0.140747
C130  C     C_R   0.499998 0.786544 0.000017 0.139123
C131  C     C_R   0.499999 0.714282 0.000015 0.096104
C132  C     C_R   0.999994 0.214029 0.000017 0.093652
C133  C     C_R   0.010463 0.342584 0.042896 -0.188841
C134  C     C_R   0.989526 0.342579 0.957129 -0.188836
C135  C     C_R   0.511164 0.842562 0.041744 -0.188361
C136  C     C_R   0.488827 0.842555 0.958291 -0.188480
C137  C     C_R   0.010666 0.378386 0.042830 0.320258
C138  C     C_R   0.989326 0.378381 0.957187 0.320199
C139  C     C_R   0.511392 0.878365 0.041651 0.320160
C140  C     C_R   0.488599 0.878357 0.958378 0.320119
C141  C     C_R   0.999997 0.396472 0.000006 -0.182578
C142  C     C_R   0.499997 0.896461 0.000010 -0.183680
C143  C     C_R   0.999994 0.324317 0.000014 -0.032558
C144  C     C_R   0.499996 0.824412 0.000018 -0.036428
C145  C     C_R   0.528372 0.378278 0.948102 0.321529
C146  C     C_R   0.471626 0.378275 0.051890 0.321622
C147  C     C_R   0.028371 0.878278 0.948099 0.321568
C148  C     C_R   0.971627 0.878275 0.051893 0.321661
C149  C     C_R   0.528321 0.342488 0.948589 -0.190173
C150  C     C_R   0.471678 0.342485 0.051402 -0.190579
C151  C     C_R   0.028320 0.842488 0.948586 -0.190093
C152  C     C_R   0.971679 0.842484 0.051404 -0.190500
C153  C     C_R   0.500000 0.324230 0.999996 -0.032135
C154  C     C_R   0.000000 0.824230 0.999995 -0.032134
C155  C     C_3   0.999805 0.499844 0.811199 0.020019
C156  C     C_3   0.000194 0.499840 0.188802 0.019896
C157  C     C_3   0.499790 0.999907 0.811210 0.019910
C158  C     C_3   0.500209 0.999897 0.188791 0.019805
C159  C     C_R   0.499999 0.396384 0.999997 -0.190699
C160  C     C_R   0.999999 0.896384 0.999997 -0.190725
C161  C     C_R   0.485524 0.267926 0.064527 -0.163328
C162  C     C_R   0.514481 0.267924 0.935467 -0.163235
C163  C     C_R   0.985526 0.767926 0.064526 -0.163241
C164  C     C_R   0.014479 0.767924 0.935466 -0.163146
C165  C     C_R   0.985367 0.732166 0.064503 -0.178023
C166  C     C_R   0.014640 0.732164 0.935491 -0.177908
C167  C     C_R   0.485365 0.232166 0.064504 -0.178107
C168  C     C_R   0.514643 0.232164 0.935492 -0.177994
C169  C     C_R   0.000004 0.714009 0.999997 0.093313
C170  C     C_R   0.500004 0.214009 0.999998 0.093344
C171  C     C_R   0.500002 0.286222 0.999997 0.141410
C172  C     C_R   0.000001 0.786222 0.999996 0.141381
C173  C     C_R   0.030005 0.658024 0.955492 -0.167639
C174  C     C_R   0.970002 0.658022 0.044505 -0.167866
C175  C     C_R   0.530006 0.158024 0.955497 -0.167708
C176  C     C_R   0.470001 0.158023 0.044503 -0.167937
C177  C     C_R   0.030068 0.622259 0.955801 -0.185494
C178  C     C_R   0.969938 0.622258 0.044197 -0.185738
C179  C     C_R   0.530069 0.122259 0.955806 -0.185508
C180  C     C_R   0.469937 0.122258 0.044194 -0.185770
C181  C     C_R   0.000002 0.604048 0.999999 -0.028182
C182  C     C_R   0.500002 0.104048 1.000000 -0.027795
C183  C     C_R   0.000004 0.676182 0.999998 0.105849
C184  C     C_R   0.500004 0.176182 1.000000 0.105869
C185  C     C_3   0.010838 0.530417 0.759936 -0.163426
C186  C     C_3   0.989264 0.530449 0.239966 -0.163573
C187  C     C_3   0.514289 0.028989 0.756470 -0.164458
C188  C     C_3   0.486124 0.029180 0.243121 -0.164537
C189  C     C_3   0.978799 0.524704 0.750482 -0.172054
C190  C     C_3   0.021284 0.524630 0.249440 -0.171667
C191  C     C_3   0.481809 0.027028 0.747482 -0.171128
C192  C     C_3   0.518574 0.026761 0.252142 -0.170914
C193  C     C_3   0.967773 0.494133 0.802797 -0.139113
C194  C     C_3   0.032206 0.494024 0.197223 -0.138288
C195  C     C_3   0.467306 0.997943 0.803261 -0.145007
C196  C     C_3   0.532661 0.997475 0.196772 -0.143601
C197  C     C_3   0.988726 0.469281 0.740576 -0.121087
C198  C     C_3   0.011168 0.469240 0.259524 -0.120902
C199  C     C_3   0.485220 0.970825 0.744070 -0.122348
C200  C     C_3   0.514360 0.970613 0.256343 -0.122009
Cu1   Cu    Cu3+1 0.000000 0.534200 0.500000 0.944701
Cu2   Cu    Cu3+1 0.500000 0.034200 0.500000 0.943849
Cu3   Cu    Cu3+1 0.000000 0.465780 0.500000 0.954612
Cu4   Cu    Cu3+1 0.500000 0.965780 0.500000 0.954333
Cu5   Cu    Cu3+1 0.965780 0.500020 0.034200 0.982118
Cu6   Cu    Cu3+1 0.034220 0.500020 0.965800 0.983758
Cu7   Cu    Cu3+1 0.465780 0.000020 0.034200 0.983128
Cu8   Cu    Cu3+1 0.534220 0.000020 0.965800 0.984727
Cu9   Cu    Cu3+1 0.499990 0.499910 0.062770 0.992137
Cu10  Cu    Cu3+1 0.500010 0.499910 0.937230 0.992034
Cu11  Cu    Cu3+1 0.999990 0.999910 0.062770 0.992371
Cu12  Cu    Cu3+1 0.000010 0.999910 0.937230 0.992272
H1    H     H_    0.037862 0.454607 0.751255 0.157818
H2    H     H_    0.961982 0.454728 0.248891 0.157437
H3    H     H_    0.532339 0.950561 0.756789 0.160176
H4    H     H_    0.466961 0.951014 0.243900 0.159365
H5    H     H_    0.391508 0.526981 0.196244 0.146946
H6    H     H_    0.608456 0.527165 0.804117 0.145839
H7    H     H_    0.891507 0.026980 0.196244 0.147160
H8    H     H_    0.108457 0.027164 0.804117 0.146050
H9    H     H_    0.282255 0.554822 0.212255 0.134752
H10   H     H_    0.719465 0.495923 0.679754 0.132050
H11   H     H_    0.782256 0.054820 0.212240 0.134496
H12   H     H_    0.219465 0.995919 0.679754 0.132112
H13   H     H_    0.219667 0.555114 0.272596 0.127862
H14   H     H_    0.782048 0.497312 0.617588 0.135734
H15   H     H_    0.719667 0.055112 0.272579 0.127741
H16   H     H_    0.282048 0.997308 0.617590 0.135706
H17   H     H_    0.219523 0.444462 0.287419 0.130512
H18   H     H_    0.782232 0.502032 0.818578 0.135309
H19   H     H_    0.719523 0.944461 0.287427 0.130460
H20   H     H_    0.282232 0.002030 0.818580 0.135411
H21   H     H_    0.282112 0.444575 0.222520 0.144634
H22   H     H_    0.719637 0.503140 0.881526 0.127496
H23   H     H_    0.782112 0.944574 0.222530 0.144668
H24   H     H_    0.219637 0.003138 0.881527 0.127469
H25   H     H_    0.170770 0.452109 0.277552 0.127938
H26   H     H_    0.828715 0.451799 0.721333 0.136969
H27   H     H_    0.670769 0.952104 0.277561 0.128082
H28   H     H_    0.328716 0.951795 0.721327 0.137093
H29   H     H_    0.108343 0.451755 0.342187 0.148178
H30   H     H_    0.891642 0.451570 0.657524 0.149051
H31   H     H_    0.608343 0.951751 0.342197 0.148059
H32   H     H_    0.391643 0.951567 0.657519 0.148911
H33   H     H_    0.108657 0.548149 0.440586 0.145279
H34   H     H_    0.891311 0.548307 0.559752 0.146035
H35   H     H_    0.608658 0.048152 0.440572 0.145461
H36   H     H_    0.391310 0.048308 0.559761 0.146186
H37   H     H_    0.171101 0.547627 0.380016 0.125705
H38   H     H_    0.828371 0.547828 0.622016 0.133814
H39   H     H_    0.671102 0.047630 0.380001 0.125709
H40   H     H_    0.328370 0.047828 0.622025 0.133792
H41   H     H_    0.511966 0.608819 0.086675 0.153139
H42   H     H_    0.488031 0.608818 0.913338 0.153148
H43   H     H_    0.011437 0.108838 0.087456 0.153459
H44   H     H_    0.988558 0.108835 0.912558 0.153479
H45   H     H_    0.057969 0.510271 0.653135 0.130904
H46   H     H_    0.942065 0.510458 0.346831 0.130121
H47   H     H_    0.558757 0.003492 0.652316 0.131120
H48   H     H_    0.441296 0.004315 0.347627 0.130231
H49   H     H_    0.512573 0.671261 0.085852 0.129216
H50   H     H_    0.487422 0.671260 0.914173 0.129162
H51   H     H_    0.011386 0.171450 0.087378 0.131765
H52   H     H_    0.988603 0.171446 0.912649 0.131798
H53   H     H_    0.524368 0.719285 0.885004 0.131478
H54   H     H_    0.475629 0.719285 0.115025 0.131367
H55   H     H_    0.952939 0.218727 0.993907 0.133704
H56   H     H_    0.047048 0.218736 0.006126 0.133970
H57   H     H_    0.952624 0.281300 0.994842 0.137042
H58   H     H_    0.047363 0.281308 0.005190 0.137205
H59   H     H_    0.523900 0.781856 0.885259 0.138311
H60   H     H_    0.476097 0.781856 0.114775 0.138239
H61   H     H_    0.018020 0.329077 0.077388 0.172018
H62   H     H_    0.981968 0.329068 0.922639 0.172030
H63   H     H_    0.520067 0.828886 0.073850 0.174209
H64   H     H_    0.479923 0.828874 0.926189 0.174171
H65   H     H_    0.550718 0.328986 0.909312 0.172679
H66   H     H_    0.449282 0.328980 0.090678 0.172324
H67   H     H_    0.050716 0.828986 0.909307 0.172699
H68   H     H_    0.949283 0.828979 0.090682 0.172345
H69   H     H_    0.474735 0.281230 0.115095 0.137525
H70   H     H_    0.525268 0.281227 0.884898 0.137540
H71   H     H_    0.974739 0.781230 0.115094 0.137573
H72   H     H_    0.025265 0.781228 0.884897 0.137588
H73   H     H_    0.974305 0.718656 0.114892 0.133665
H74   H     H_    0.025702 0.718654 0.885101 0.133708
H75   H     H_    0.474302 0.218656 0.114894 0.133616
H76   H     H_    0.525706 0.218654 0.885103 0.133658
H77   H     H_    0.053509 0.671533 0.921136 0.132077
H78   H     H_    0.946499 0.671530 0.078860 0.131787
H79   H     H_    0.553510 0.171534 0.921144 0.132024
H80   H     H_    0.446498 0.171530 0.078855 0.131735
H81   H     H_    0.019882 0.555449 0.769281 0.130873
H82   H     H_    0.980307 0.555511 0.230540 0.130722
H83   H     H_    0.526185 0.052806 0.762941 0.132153
H84   H     H_    0.474569 0.053162 0.236309 0.131797
H85   H     H_    0.053591 0.608883 0.921079 0.151647
H86   H     H_    0.946414 0.608880 0.078920 0.151339
H87   H     H_    0.553592 0.108883 0.921086 0.151472
H88   H     H_    0.446413 0.108880 0.078914 0.151173
H89   H     H_    0.961609 0.545064 0.749408 0.143064
H90   H     H_    0.038542 0.544933 0.250451 0.143276
H91   H     H_    0.467086 0.049248 0.743997 0.144750
H92   H     H_    0.533610 0.048771 0.255325 0.144755
H93   H     H_    0.941516 0.489385 0.846999 0.159469
H94   H     H_    0.058446 0.489189 0.153037 0.160217
H95   H     H_    0.440670 0.996300 0.847817 0.156990
H96   H     H_    0.559270 0.995454 0.152240 0.158025
H97   H     H_    0.979620 0.444200 0.731620 0.163500
H98   H     H_    0.020188 0.444129 0.268560 0.163633
H99   H     H_    0.473270 0.946978 0.737900 0.160337
H100  H     H_    0.525971 0.946599 0.262842 0.160816
H101  H     H_    0.391531 0.472523 0.020451 0.152559
H102  H     H_    0.608457 0.472326 0.979187 0.152079
H103  H     H_    0.891532 0.972522 0.020450 0.152621
H104  H     H_    0.108456 0.972326 0.979189 0.152142
H105  H     H_    0.328588 0.471994 0.083901 0.136051
H106  H     H_    0.670904 0.471042 0.915958 0.128863
H107  H     H_    0.828589 0.971993 0.083899 0.136145
H108  H     H_    0.170903 0.971040 0.915960 0.128978
H109  H     H_    0.328583 0.527300 0.258379 0.135734
H110  H     H_    0.670880 0.528112 0.742533 0.125773
H111  H     H_    0.828583 0.027298 0.258378 0.135860
H112  H     H_    0.170880 0.028109 0.742532 0.125876
O1    O     O_R   0.049900 0.528880 0.450120 -0.587307
O2    O     O_R   0.950100 0.528880 0.549880 -0.587323
O3    O     O_R   0.549900 0.028880 0.450120 -0.587095
O4    O     O_R   0.450100 0.028880 0.549880 -0.587120
O5    O     O_R   0.450080 0.499920 0.102890 -0.567484
O6    O     O_R   0.549920 0.499920 0.897110 -0.567605
O7    O     O_R   0.950080 0.999920 0.102890 -0.567365
O8    O     O_R   0.049920 0.999920 0.897110 -0.567486
O9    O     O_R   0.450090 0.499990 0.996890 -0.596656
O10   O     O_R   0.549910 0.499990 0.003110 -0.596685
O11   O     O_R   0.950090 0.999990 0.996890 -0.596716
O12   O     O_R   0.049910 0.999990 0.003110 -0.596748
O13   O     O_R   0.500000 0.549830 0.053110 -0.594202
O14   O     O_R   0.500000 0.549830 0.946890 -0.594171
O15   O     O_R   1.000000 0.049830 0.053110 -0.594160
O16   O     O_R   1.000000 0.049830 0.946890 -0.594127
O17   O     O_R   0.049890 0.471100 0.450130 -0.584048
O18   O     O_R   0.950110 0.471100 0.549870 -0.583991
O19   O     O_R   0.549890 0.971100 0.450130 -0.584390
O20   O     O_R   0.450110 0.971100 0.549870 -0.584331
O21   O     O_R   0.999990 0.528880 0.591580 -0.585716
O22   O     O_R   0.000010 0.528880 0.408420 -0.585703
O23   O     O_R   0.499990 0.028880 0.591580 -0.586590
O24   O     O_R   0.500010 0.028880 0.408420 -0.586488
O25   O     O_R   0.999970 0.471100 0.591590 -0.587870
O26   O     O_R   0.000030 0.471100 0.408410 -0.587900
O27   O     O_R   0.499970 0.971100 0.591590 -0.587048
O28   O     O_R   0.500030 0.971100 0.408410 -0.587180
O29   O     O_R   0.971100 0.450110 0.028870 -0.560390
O30   O     O_R   0.028900 0.450110 0.971130 -0.560026
O31   O     O_R   0.471100 0.950110 0.028870 -0.559135
O32   O     O_R   0.528900 0.950110 0.971130 -0.558813
O33   O     O_R   0.971110 0.500030 0.937300 -0.577738
O34   O     O_R   0.028890 0.500030 0.062700 -0.577395
O35   O     O_R   0.471110 0.000030 0.937300 -0.576471
O36   O     O_R   0.528890 0.000030 0.062700 -0.576192
O37   O     O_R   0.028880 0.500040 0.879560 -0.595141
O38   O     O_R   0.971120 0.500040 0.120440 -0.595549
O39   O     O_R   0.528880 0.000040 0.879560 -0.595466
O40   O     O_R   0.471120 0.000040 0.120440 -0.595880
O41   O     O_R   0.971110 0.549940 0.028880 -0.595037
O42   O     O_R   0.028890 0.549940 0.971120 -0.594713
O43   O     O_R   0.471110 0.049940 0.028880 -0.595277
O44   O     O_R   0.528890 0.049940 0.971120 -0.594953
O45   O     O_R   0.499970 0.450010 0.052910 -0.555498
O46   O     O_R   0.500030 0.450010 0.947090 -0.555680
O47   O     O_R   0.999970 0.950010 0.052910 -0.555461
O48   O     O_R   0.000030 0.950010 0.947090 -0.555642
Cl1   Cl    Cl    0.023439 0.399887 0.098745 -0.659122
Cl2   Cl    Cl    0.976554 0.399875 0.901268 -0.659451
Cl3   Cl    Cl    0.525301 0.899836 0.095717 -0.657263
Cl4   Cl    Cl    0.474683 0.899818 0.904317 -0.657780
Cl5   Cl    Cl    0.564961 0.399696 0.883184 -0.620474
Cl6   Cl    Cl    0.435035 0.399689 0.116806 -0.622653
Cl7   Cl    Cl    0.064959 0.899696 0.883178 -0.620279
Cl8   Cl    Cl    0.935037 0.899689 0.116812 -0.622464

loop_
_geom_bond_atom_site_label_1
_geom_bond_atom_site_label_2
_ccdc_geom_bond_type
C3    O3    A    
C133  C137  A    
C55   C59   A    
C26   H6    S    
Cu1   Cu3   S    
Cu9   O13   S    
C89   H47   S    
C105  H41   S    
C136  C140  A    
C90   H48   S    
C99   O5    A    
C135  C139  A    
C31   C101  S    
C16   C20   A    
C163  C165  A    
Cu2   O4    S    
Cu7   O40   S    
C63   H27   S    
C139  C142  A    
C73   H33   S    
C122  H2    S    
C148  C160  A    
C9    C13   A    
C64   C84   A    
C173  H77   S    
C118  C131  A    
C134  C143  A    
C104  C116  S    
C98   O48   A    
C18   C58   S    
C162  C171  A    
C12   C16   A    
C95   O42   A    
C124  C158  S    
C70   C74   A    
C4    O20   A    
C36   H12   S    
C9    H101  S    
C38   H14   S    
C28   H8    S    
C147  Cl7   S    
C98   O47   A    
C76   H36   S    
C90   C124  S    
C41   C49   A    
Cu5   O38   S    
C180  C182  A    
C86   O32   A    
C25   C29   A    
C29   C99   S    
C27   C31   A    
C199  H99   S    
C28   C32   A    
C200  H100  S    
C88   C122  S    
C48   O24   A    
Cu2   O24   S    
C126  C129  A    
C97   O46   A    
C2    O2    A    
C100  O6    A    
C196  H96   S    
C17   C21   A    
Cu1   O1    S    
C121  H1    S    
C186  C190  S    
C19   C23   A    
Cu5   O29   S    
C10   C30   A    
C68   C72   A    
C163  C172  A    
Cu7   O35   S    
C187  C191  S    
C112  H52   S    
C138  Cl2   S    
C155  C185  S    
C78   H38   S    
C97   C159  S    
C24   C28   A    
C176  C184  A    
C85   O30   A    
C170  C184  S    
C157  C195  S    
C198  H98   S    
C138  C141  A    
C175  C179  A    
C192  H92   S    
C16   H108  S    
Cu3   O18   S    
C106  C115  A    
C179  H87   S    
C5    C189  S    
Cu5   O41   S    
Cu12  O11   S    
C108  C116  A    
C66   C70   A    
C8    C192  S    
C49   C53   A    
C135  H63   S    
C1    O17   A    
C64   H28   S    
C104  O16   A    
C3    O19   A    
C61   C65   A    
Cu3   O25   S    
Cu6   O42   S    
C197  H97   S    
C34   C58   A    
C73   C77   A    
C75   C79   A    
C126  H58   S    
C43   C83   S    
C147  C151  A    
Cu1   O2    S    
C87   H45   S    
C112  C114  A    
C6    C190  S    
Cu4   O28   S    
C64   C68   A    
C103  O14   A    
C123  C199  S    
C146  Cl6   S    
C145  C159  A    
C148  Cl8   S    
C30   C100  S    
C4    O4    A    
C6    C88   S    
C164  H72   S    
C165  H73   S    
Cu4   O20   S    
C149  C153  A    
C21   H109  S    
C47   O23   A    
C46   O22   A    
C149  H65   S    
Cu6   O34   S    
C130  C144  S    
C51   C55   A    
C44   C52   A    
C119  H55   S    
C146  C150  A    
C93   O39   A    
C128  H60   S    
C180  H88   S    
C193  H93   S    
Cu8   O36   S    
C147  C160  A    
Cu1   O22   S    
C2    O18   A    
C195  C199  S    
C133  H61   S    
C62   C66   A    
C51   H19   S    
C92   C156  S    
C10   C14   A    
C85   C141  S    
C95   C181  S    
C5    C197  S    
C123  C157  S    
C19   C59   S    
C65   H29   S    
C158  C196  S    
Cu10  O14   S    
C40   H16   S    
C156  C194  S    
C125  C129  A    
C121  C197  S    
Cu9   Cu10  S    
C107  H43   S    
Cu12  O48   S    
C161  C167  A    
C122  C198  S    
C96   O44   A    
C188  H84   S    
C42   C50   A    
C162  C168  A    
C98   C160  S    
C26   C30   A    
C74   C78   A    
C8    C200  S    
C185  H81   S    
C54   H22   S    
Cu11  O47   S    
C187  H83   S    
C21   C25   A    
C22   H110  S    
C18   C22   A    
C102  O12   A    
C105  C115  A    
C148  C152  A    
C163  H71   S    
C158  C188  S    
C185  C189  S    
C156  C186  S    
C92   O34   A    
C188  C192  S    
C175  H79   S    
C94   O36   A    
C61   C81   A    
Cu4   O19   S    
C194  C198  S    
C177  C181  A    
C37   H13   S    
C50   H18   S    
C122  C156  S    
C37   C41   A    
C117  C131  A    
C191  C195  S    
C107  C116  A    
C164  C172  A    
C5    C87   S    
C189  C193  S    
C176  H80   S    
C40   C44   A    
C189  H89   S    
Cu11  O7    S    
C80   H40   S    
C56   H24   S    
C117  H53   S    
Cu9   O10   S    
C33   H9    S    
C177  H85   S    
C27   H7    S    
C120  H56   S    
C123  H3    S    
C106  H42   S    
C25   H5    S    
C80   C84   A    
C55   H23   S    
C87   C185  S    
C15   C19   A    
C86   O31   A    
C50   C54   A    
Cu2   Cu4   S    
C192  C196  S    
C92   O38   A    
C140  C142  A    
C54   C58   A    
C74   H34   S    
C120  C126  A    
C97   O45   A    
C35   C59   A    
Cu9   O45   S    
C100  O10   A    
C167  H75   S    
C168  H76   S    
C150  C153  A    
C69   C73   A    
C20   C60   S    
C113  C131  S    
C174  C178  A    
C39   H15   S    
C88   H46   S    
C179  C182  A    
C139  Cl3   S    
C168  C170  A    
C62   C82   A    
C94   C158  S    
C120  C132  A    
C108  H44   S    
C165  C169  A    
C89   C187  S    
C7    C191  S    
C107  C111  A    
Cu6   O37   S    
C85   O29   A    
Cu7   Cu8   S    
C12   H104  S    
C76   C80   A    
C13   H105  S    
Cu2   O3    S    
C166  H74   S    
C87   C121  S    
C15   H107  S    
Cu9   O5    S    
C101  O11   A    
C140  Cl4   S    
C5    C45   S    
Cu3   O17   S    
C1    C69   S    
C108  C112  A    
C63   C83   A    
C7    C47   S    
Cu6   O30   S    
C35   C39   A    
C8    C48   S    
C103  C115  S    
Cu11  Cu12  S    
C77   C81   A    
C45   O25   A    
C93   O35   A    
Cu8   O32   S    
C117  C127  A    
C119  C125  A    
C10   H102  S    
C47   O27   A    
C77   H37   S    
C109  H49   S    
C53   H21   S    
C4    C72   S    
C75   H35   S    
C86   C142  S    
C137  C141  A    
C53   C57   A    
C121  C155  S    
C79   H39   S    
C96   C182  S    
C44   C84   S    
C128  C130  A    
Cu2   O23   S    
C129  C143  S    
C13   C17   A    
C124  C200  S    
C62   H26   S    
C103  O13   A    
C136  C144  A    
C79   C83   A    
C43   C51   A    
C105  C109  A    
C99   O9    A    
C65   C69   A    
C145  Cl5   S    
C111  C114  A    
C67   C71   A    
C49   H17   S    
C186  H82   S    
C33   C37   A    
C178  C181  A    
C56   C60   A    
C173  C183  A    
C22   C26   A    
C102  O8    A    
C2    C70   S    
C174  C183  A    
C145  C149  A    
C17   C57   S    
C175  C184  A    
C190  H90   S    
Cu11  O12   S    
C24   H112  S    
C14   C18   A    
C3    C71   S    
C42   C82   S    
Cu7   O43   S    
C196  C200  S    
Cu1   O21   S    
Cu5   Cu6   S    
C68   H32   S    
C38   C42   A    
C135  C144  A    
C11   H103  S    
C7    C89   S    
C151  C154  A    
C78   C82   A    
C169  C183  S    
C151  H67   S    
C48   O28   A    
C104  O15   A    
C118  H54   S    
C161  H69   S    
C20   C24   A    
Cu3   O26   S    
C89   C123  S    
C23   C27   A    
C152  H68   S    
Cu5   O33   S    
C9    C29   A    
C88   C186  S    
C41   C81   S    
C12   C32   A    
Cu8   O39   S    
C136  H64   S    
C118  C128  A    
Cu7   O31   S    
C167  C170  A    
C162  H70   S    
Cu4   O27   S    
C63   C67   A    
C133  C143  A    
C36   C40   A    
C124  H4    S    
C6    C198  S    
C52   H20   S    
C39   C43   A    
C146  C159  A    
C66   H30   S    
Cu10  O9    S    
Cu11  O15   S    
C125  H57   S    
C161  C171  A    
C150  H66   S    
C91   C155  S    
C155  C193  S    
C35   H11   S    
C194  H94   S    
C91   O37   A    
C176  C180  A    
C173  C177  A    
C94   O40   A    
C153  C171  S    
C119  C132  A    
C154  C172  S    
C72   C76   A    
C178  H86   S    
C93   C157  S    
C110  C113  A    
C111  H51   S    
C67   H31   S    
C46   O26   A    
C152  C154  A    
C11   C15   A    
C95   O41   A    
C134  H62   S    
C32   C102  S    
C8    C90   S    
C14   H106  S    
C137  Cl1   S    
Cu10  O46   S    
C101  O7    A    
C23   H111  S    
C33   C57   A    
C6    C46   S    
C34   C38   A    
C114  C132  S    
C36   C60   A    
C134  C138  A    
Cu12  O16   S    
C191  H91   S    
C109  C113  A    
C45   O21   A    
C61   H25   S    
Cu8   O44   S    
C164  C166  A    
C127  C130  A    
C195  H95   S    
C71   C75   A    
Cu12  O8    S    
C90   C188  S    
C91   O33   A    
C193  C197  S    
C7    C199  S    
C96   O43   A    
C110  H50   S    
C190  C194  S    
C11   C31   A    
C34   H10   S    
C166  C169  A    
C106  C110  A    
C174  H78   S    
Cu10  O6    S    
C157  C187  S    
C127  H59   S    
C1    O1    A    
C52   C56   A    
