data_mof_unit_54682.cif
_audit_creation_date              2012-12-10T17:15:48-0500
_audit_creation_method            fapswitch 2.2
_symmetry_space_group_name_H-M    P1
_symmetry_Int_Tables_number       1
_space_group_crystal_system       triclinic
_cell_length_a                    10.252842
_cell_length_b                    10.720709
_cell_length_c                    10.697757
_cell_angle_alpha                 94.691493
_cell_angle_beta                  94.569604
_cell_angle_gamma                 79.977005
_cell_volume                      1151.47958118

loop_
_atom_site_label
_atom_site_type_symbol
_atom_type_description
_atom_site_fract_x
_atom_site_fract_y
_atom_site_fract_z
_atom_type_partial_charge
C1    C     C_R   0.445548 0.503381 0.267049 0.944489
C2    C     C_2   0.475866 0.449466 0.926501 -0.286269
C3    C     C_2   0.074993 0.492114 0.478738 0.447813
C4    C     C_R   0.500815 0.259786 0.491805 0.905215
C5    C     C_2   0.925064 0.525419 0.491156 -0.143813
C6    C     C_R   0.554009 0.490241 0.733228 0.945468
C7    C     C_R   0.496294 0.739885 0.494540 0.914203
C8    C     C_R   0.665595 0.077800 0.314840 -0.177927
C9    C     C_R   0.738175 0.988346 0.233570 -0.179848
C10   C     C_R   0.713392 0.864801 0.219153 -0.157398
C11   C     C_R   0.623665 0.827631 0.293314 -0.119570
C12   C     C_R   0.576979 0.040955 0.394669 0.083408
C13   C     C_R   0.562144 0.912550 0.388275 0.047254
C14   C     C_R   0.874449 0.653158 0.550126 0.180553
C15   C     C_R   0.825053 0.667610 0.670357 -0.041452
C16   C     C_R   0.778931 0.788173 0.725513 -0.162333
C17   C     C_R   0.787101 0.895756 0.663639 -0.128769
C18   C     C_R   0.846254 0.882855 0.548961 -0.130066
C19   C     C_R   0.889154 0.762109 0.491881 -0.174431
C20   C     C_3   0.084171 0.388903 0.277229 0.068460
C21   C     C_3   0.086105 0.251093 0.225489 -0.320850
C22   C     C_3   0.052201 0.240436 0.084328 -1.018547
C23   C     C_R   0.503413 0.125934 0.482245 -0.189056
C24   C     C_R   0.135633 0.574474 0.682150 0.192143
C25   C     C_R   0.089652 0.485451 0.750198 -0.207538
C26   C     C_R   0.066928 0.512302 0.877445 -0.195417
C27   C     C_R   0.096306 0.624585 0.939786 -0.136235
C28   C     C_R   0.150568 0.709205 0.875245 -0.164890
C29   C     C_R   0.171035 0.683434 0.747402 -0.109564
C30   C     C_3   0.191435 0.990753 0.621266 0.069512
C31   C     C_3   0.154461 0.067130 0.744622 -0.337917
C32   C     C_3   0.014955 0.144512 0.731757 -0.982948
C33   C     C_3   0.598752 0.213000 0.018371 0.077822
C34   C     C_R   0.421413 0.084857 0.561262 -0.325422
C35   C     C_3   0.478239 0.145714 0.020937 -0.380105
C36   C     C_3   0.495606 0.020945 0.939520 -0.921556
C37   C     C_R   0.406037 0.959897 0.555713 0.468062
C38   C     C_R   0.486147 0.872392 0.477322 -0.218790
C39   C     C_2   0.415640 0.500854 0.133774 -0.477321
C40   C     C_2   0.492150 0.421276 0.056699 0.546955
C41   C     C_2   0.579061 0.466631 0.864641 -0.395425
H1    H     H_    0.368939 0.151132 0.629415 0.177146
H2    H     H_    0.826017 0.586233 0.723357 0.143303
H3    H     H_    0.738337 0.798104 0.816837 0.127333
H4    H     H_    0.749345 0.989019 0.705618 0.127646
H5    H     H_    0.857476 0.966520 0.503566 0.147295
H6    H     H_    0.933407 0.753472 0.402300 0.117154
H7    H     H_    0.152892 0.431814 0.225416 0.171834
H8    H     H_    0.982971 0.444385 0.259957 0.116572
H9    H     H_    0.186549 0.195099 0.245652 0.230979
H10   H     H_    0.013658 0.208873 0.273434 0.204131
H11   H     H_    0.953839 0.298398 0.060699 0.270645
H12   H     H_    0.334910 0.571185 0.097745 0.116203
H13   H     H_    0.048276 0.139803 0.052716 0.268726
H14   H     H_    0.130190 0.271964 0.034259 0.263894
H15   H     H_    0.067728 0.397537 0.703870 0.146314
H16   H     H_    0.024739 0.447001 0.927089 0.145127
H17   H     H_    0.078767 0.645084 0.038389 0.120165
H18   H     H_    0.176980 0.794546 0.924293 0.127970
H19   H     H_    0.215461 0.747430 0.699096 0.188850
H20   H     H_    0.121875 0.922421 0.598332 0.153143
H21   H     H_    0.174352 0.054644 0.541983 0.137237
H22   H     H_    0.159462 0.001453 0.820619 0.218240
H23   H     H_    0.884854 0.358691 0.416785 0.176938
H24   H     H_    0.225694 0.132878 0.772731 0.221843
H25   H     H_    0.002276 0.200639 0.647521 0.263830
H26   H     H_    0.996470 0.210471 0.816305 0.268535
H27   H     H_    0.940705 0.080495 0.723110 0.266641
H28   H     H_    0.689566 0.148328 0.048448 0.159290
H29   H     H_    0.615289 0.230536 0.920503 0.143882
H30   H     H_    0.464645 0.126388 0.119059 0.239998
H31   H     H_    0.386907 0.207740 0.985004 0.204781
H32   H     H_    0.506121 0.038821 0.840295 0.269216
H33   H     H_    0.407278 0.974664 0.943184 0.269300
H34   H     H_    0.682204 0.173977 0.313237 0.195702
H35   H     H_    0.584897 0.955546 0.974193 0.261527
H36   H     H_    0.811775 0.015527 0.179004 0.130118
H37   H     H_    0.764452 0.797338 0.150952 0.126226
H38   H     H_    0.604251 0.731696 0.275898 0.150422
H39   H     H_    0.374783 0.461679 0.884434 0.194432
H40   H     H_    0.679342 0.455610 0.908614 0.161202
N1    N     N_2   0.157290 0.551390 0.551110 -0.176964
N2    N     N_2   0.842740 0.448550 0.448960 -0.213559
O1    O     O_R   0.568950 0.489660 0.307530 -0.576593
O2    O     O_3   0.322612 0.920939 0.635396 -0.650920
O3    O     O_3   0.588754 0.323999 0.101769 -0.634590
O4    O     O_R   0.348880 0.522640 0.340350 -0.621491
O5    O     O_R   0.610060 0.300270 0.483590 -0.638381
O6    O     O_R   0.389990 0.333260 0.516410 -0.567197
O7    O     O_R   0.651120 0.477360 0.659650 -0.628538
O8    O     O_R   0.431050 0.510340 0.692470 -0.604402
O9    O     O_R   0.610010 0.666740 0.483590 -0.613613
O10   O     O_R   0.389940 0.699730 0.516410 -0.597505
O11   O     O_3   0.130524 0.386457 0.405130 -0.616939
Zn1   Zn    Zn3+2 0.646940 0.477980 0.478090 0.937259
Zn2   Zn    Zn3+2 0.353060 0.522020 0.521910 0.971740

loop_
_geom_bond_atom_site_label_1
_geom_bond_atom_site_label_2
_ccdc_geom_bond_type
C1    O4    A    
C34   C37   A    
C35   C36   S    
C34   H1    S    
C25   H15   S    
C10   H37   S    
O7    Zn1   S    
C22   H13   S    
C1    O1    A    
C12   C23   A    
C26   C27   A    
C20   H8    S    
C37   O2    S    
C28   C29   A    
C17   H4    S    
C30   C31   S    
C5    N2    D    
C19   H6    S    
C2    C41   D    
C6    O8    A    
C18   C19   A    
C40   O3    S    
C24   N1    S    
C24   C29   A    
C36   H35   S    
O8    Zn2   S    
C8    C9    A    
C6    C41   S    
C3    O11   S    
C9    C10   A    
C16   H3    S    
C33   H28   S    
C32   H27   S    
O5    Zn1   S    
C35   H30   S    
C21   C22   S    
C18   H5    S    
C21   H9    S    
C7    O10   A    
N1    Zn2   S    
C31   H22   S    
C24   C25   A    
C36   H32   S    
C39   C40   D    
C4    C23   S    
C16   C17   A    
C25   C26   A    
C6    O7    A    
C8    H34   S    
O1    Zn1   S    
C33   O3    S    
H23   N2    S    
C37   C38   A    
C31   C32   S    
C29   H19   S    
C8    C12   A    
C23   C34   A    
C41   H40   S    
O4    Zn2   S    
C3    N1    D    
C17   C18   A    
C13   C38   A    
C9    H36   S    
N2    Zn1   S    
C12   C13   A    
C30   O2    S    
C5    C14   S    
C20   H7    S    
C11   H38   S    
C33   H29   S    
C32   H26   S    
C35   H31   S    
O10   Zn2   S    
C30   H21   S    
C21   H10   S    
C32   H25   S    
C4    O6    A    
C28   H18   S    
C31   H24   S    
C20   O11   S    
C36   H33   S    
C14   C19   A    
C3    C5    S    
C27   H17   S    
C22   H14   S    
C4    O5    A    
O6    Zn2   S    
C15   H2    S    
C11   C13   A    
C39   H12   S    
C7    O9    A    
C33   C35   S    
C7    C38   S    
C22   H11   S    
O9    Zn1   S    
C26   H16   S    
C2    H39   S    
C10   C11   A    
C1    C39   S    
C2    C40   S    
C20   C21   S    
C30   H20   S    
C27   C28   A    
C14   C15   A    
C15   C16   A    
