data_mof_unit_35929.cif
_audit_creation_date              2012-12-11T14:46:13-0500
_audit_creation_method            fapswitch 2.2
_symmetry_space_group_name_H-M    P1
_symmetry_Int_Tables_number       1
_space_group_crystal_system       triclinic
_cell_length_a                    10.920288
_cell_length_b                    10.919304
_cell_length_c                    18.791273
_cell_angle_alpha                 90.336847
_cell_angle_beta                  89.845913
_cell_angle_gamma                 119.611291
_cell_volume                      1948.03231308

loop_
_atom_site_label
_atom_site_type_symbol
_atom_type_description
_atom_site_fract_x
_atom_site_fract_y
_atom_site_fract_z
_atom_type_partial_charge
C1    C     C_R   0.868098 0.636295 0.605102 0.541211
C2    C     C_R   0.923813 0.112048 0.700303 -0.011608
C3    C     C_R   0.933240 0.112562 0.775895 0.002544
C4    C     C_R   0.208646 0.595654 0.610947 0.576911
C5    C     C_R   0.716416 0.138205 0.710543 0.040237
C6    C     C_R   0.748813 0.179304 0.781846 -0.017762
C7    C     C_R   0.584533 0.113961 0.682889 0.055748
C8    C     C_R   0.508575 0.165832 0.720284 -0.166022
C9    C     C_R   0.557773 0.234152 0.785222 -0.134150
C10   C     C_R   0.677196 0.241545 0.815926 -0.073418
C11   C     C_R   0.824300 0.139732 0.668114 0.015364
C12   C     C_R   0.240726 0.528947 0.802874 0.013047
C13   C     C_R   0.706844 0.574318 0.708970 -0.119799
C14   C     C_R   0.690748 0.578203 0.782313 -0.130762
C15   C     C_R   0.810384 0.647516 0.826315 0.026602
C16   C     C_R   0.857662 0.219488 0.600515 0.557290
C17   C     C_R   0.944793 0.706910 0.797093 -0.120852
C18   C     C_R   0.959904 0.709134 0.724464 -0.117718
C19   C     C_R   0.842108 0.645112 0.679906 0.043342
C20   C     C_R   0.400677 0.612669 0.295815 -0.136508
C21   C     C_R   0.420180 0.621367 0.223333 -0.124879
C22   C     C_R   0.378981 0.701995 0.182099 0.033007
C23   C     C_R   0.211262 0.507988 0.730502 -0.166640
C24   C     C_R   0.328950 0.783613 0.214855 -0.153808
C25   C     C_R   0.307767 0.773725 0.288009 -0.138244
C26   C     C_R   0.337345 0.682497 0.327971 0.029107
C27   C     C_R   0.712830 0.104795 0.294590 -0.134264
C28   C     C_R   0.864852 0.638797 0.397887 0.553100
C29   C     C_R   0.701859 0.088292 0.221912 -0.128503
C30   C     C_R   0.822681 0.128539 0.180157 0.032774
C31   C     C_R   0.953731 0.176550 0.212326 -0.150988
C32   C     C_R   0.965294 0.195424 0.285637 -0.141081
C33   C     C_R   0.845309 0.165304 0.326418 0.028481
C34   C     C_R   0.240982 0.621776 0.686721 0.020904
C35   C     C_R   0.890564 0.788724 0.296607 -0.135383
C36   C     C_R   0.883825 0.800056 0.224051 -0.125775
C37   C     C_R   0.804078 0.679434 0.182008 0.033724
C38   C     C_R   0.722884 0.548273 0.213844 -0.152850
C39   C     C_R   0.731097 0.536393 0.286998 -0.138804
C40   C     C_R   0.274006 0.636098 0.397418 0.571267
C41   C     C_R   0.820149 0.656132 0.328014 0.029222
C42   C     C_R   0.807634 0.101313 0.893614 0.579620
C43   C     C_R   0.389566 0.698255 0.898132 0.575134
C44   C     C_R   0.796527 0.689710 0.897607 0.548453
C45   C     C_R   0.843589 0.147265 0.817947 -0.007725
C46   C     C_R   0.802602 0.099133 0.104768 0.557670
C47   C     C_R   0.404969 0.708305 0.106378 0.554327
C48   C     C_R   0.794939 0.699590 0.106687 0.546066
C49   C     C_R   0.862078 0.226816 0.396572 0.557879
C50   C     C_R   0.293819 0.756604 0.716608 -0.128126
C51   C     C_R   0.329971 0.780144 0.788125 -0.171601
C52   C     C_R   0.310597 0.667917 0.831177 0.030711
C53   C     C_2   0.520161 0.030025 0.617230 0.253982
C54   C     C_2   0.205966 0.404128 0.846111 0.237990
C55   C     C_R   0.035365 0.082797 0.805377 -0.081356
C56   C     C_R   0.121438 0.052660 0.762298 -0.152660
C57   C     C_R   0.107665 0.048838 0.688865 -0.121043
C58   C     C_R   0.009540 0.077704 0.657951 -0.075572
Cr1   Cr    Cr6+3 0.791660 0.390250 0.499930 1.020730
Cr2   Cr    Cr6+3 0.098520 0.708290 0.500540 1.008932
Cr3   Cr    Cr6+3 0.109770 0.401430 0.499480 1.008931
Cr4   Cr    Cr6+3 0.874790 0.925890 0.000070 1.025358
Cr5   Cr    Cr6+3 0.574120 0.948670 0.999300 1.018052
Cr6   Cr    Cr6+3 0.551420 0.625320 0.000920 1.031457
H1    H     H_    0.307363 0.844032 0.684776 0.125228
H2    H     H_    0.380127 0.887039 0.808535 0.140711
H3    H     H_    0.259320 0.829572 0.312238 0.137735
H4    H     H_    0.598008 0.043954 0.198432 0.141119
H5    H     H_    0.068989 0.242009 0.309527 0.136974
H6    H     H_    0.957857 0.882461 0.327414 0.130064
H7    H     H_    0.941996 0.903953 0.200852 0.141543
H8    H     H_    0.656844 0.455521 0.182167 0.121120
H9    H     H_    0.675261 0.432574 0.310505 0.137768
H10   H     H_    0.164037 0.402475 0.708259 0.123048
H11   H     H_    0.199610 0.032219 0.786243 0.101122
H12   H     H_    0.499979 0.276431 0.813196 0.107595
H13   H     H_    0.060728 0.092808 0.861047 0.168529
H14   H     H_    0.997786 0.068266 0.600678 0.135280
H15   H     H_    0.411605 0.154257 0.698919 0.084491
H16   H     H_    0.432221 0.033001 0.592129 0.079721
H17   H     H_    0.618897 0.078726 0.325230 0.134236
H18   H     H_    0.046578 0.202503 0.180822 0.125196
H19   H     H_    0.241175 0.332141 0.828533 0.083721
H20   H     H_    0.172172 0.021962 0.655670 0.103355
H21   H     H_    0.711425 0.293233 0.867171 0.143699
H22   H     H_    0.614908 0.520400 0.675153 0.128993
H23   H     H_    0.585408 0.533844 0.804002 0.127623
H24   H     H_    0.038214 0.761098 0.829961 0.131965
H25   H     H_    0.064579 0.762544 0.702797 0.128523
H26   H     H_    0.426552 0.544061 0.325860 0.130919
H27   H     H_    0.466086 0.562876 0.199452 0.142685
H28   H     H_    0.302066 0.850343 0.183870 0.120412
O1    O     O_R   0.766500 0.250040 0.579790 -0.497998
O2    O     O_R   0.413330 0.603360 0.920440 -0.488508
O3    O     O_R   0.676110 0.626250 0.926750 -0.511672
O4    O     O_R   0.798570 0.516780 0.574780 -0.502830
O5    O     O_R   0.895350 0.809870 0.080950 -0.525335
O6    O     O_R   0.872490 0.049760 0.073800 -0.500977
O7    O     O_R   0.691680 0.088070 0.079070 -0.526074
O8    O     O_R   0.451720 0.825250 0.074050 -0.511686
O9    O     O_R   0.413580 0.606370 0.080960 -0.513341
O10   O     O_R   0.676340 0.629040 0.075550 -0.511946
O11   O     O_3   0.666780 0.833290 0.000090 -0.258701
O12   O     O_R   0.218690 0.701900 0.425960 -0.497203
O13   O     O_R   0.984000 0.732950 0.581090 -0.541810
O14   O     O_R   0.218600 0.700890 0.574760 -0.494553
O15   O     O_R   0.249390 0.515350 0.579940 -0.501760
O16   O     O_R   0.982790 0.280900 0.573700 -0.536895
O17   O     O_R   0.766600 0.251130 0.419260 -0.517242
O18   O     O_R   0.798660 0.517790 0.425980 -0.505199
O19   O     O_R   0.984100 0.734040 0.420570 -0.524601
O20   O     O_2   0.561476 0.953683 0.591854 -0.493418
O21   O     O_2   0.141120 0.383222 0.901891 -0.503851
O22   O     O_R   0.249490 0.516440 0.419420 -0.519650
O23   O     O_R   0.982880 0.281910 0.424890 -0.509824
O24   O     O_3   0.999980 0.499990 0.499980 -0.268900
O25   O     O_R   0.895110 0.806860 0.920430 -0.524292
O26   O     O_R   0.872260 0.046970 0.925000 -0.495156
O27   O     O_R   0.691430 0.085060 0.918550 -0.521597
O28   O     O_R   0.451490 0.822460 0.925250 -0.509628

loop_
_geom_bond_atom_site_label_1
_geom_bond_atom_site_label_2
_ccdc_geom_bond_type
Cr6   O11   S    
C46   O7    A    
C10   H21   S    
C47   O9    A    
C6    C45   A    
C27   C29   A    
C17   H24   S    
C35   C36   A    
C25   H3    S    
C55   C56   A    
Cr1   O18   S    
C7    C8    A    
C39   C41   A    
C27   C33   A    
Cr6   O10   S    
C48   O5    A    
C12   C23   A    
C16   O1    A    
C29   C30   A    
C31   H18   S    
C20   C26   A    
C36   C37   A    
C37   C38   A    
C15   C44   S    
C5    C11   A    
C30   C31   A    
C55   H13   S    
C43   C52   S    
C33   C49   S    
C29   H4    S    
C54   O21   D    
C28   C41   S    
C43   O2    A    
C56   C57   A    
C18   C19   A    
Cr3   O16   S    
Cr4   O25   S    
Cr5   O7    S    
C42   O27   A    
Cr4   O6    S    
C3    C55   A    
C40   O22   A    
C35   H6    S    
Cr1   O24   S    
C13   H22   S    
Cr3   O23   S    
C8    H15   S    
C9    H12   S    
C13   C14   A    
C9    C10   A    
C36   H7    S    
C43   O28   A    
C22   C47   S    
C46   O6    A    
C56   H11   S    
C21   C22   A    
C35   C41   A    
C2    C11   A    
C24   H28   S    
C54   H19   S    
C12   C52   A    
C50   C51   A    
C4    C34   S    
C28   O19   A    
Cr6   O9    S    
C4    O15   A    
C38   H8    S    
C34   C50   A    
C1    C19   S    
C13   C19   A    
C51   C52   A    
C27   H17   S    
C53   H16   S    
C38   C39   A    
C24   C25   A    
Cr5   O11   S    
C5    C7    A    
C58   H14   S    
C8    C9    A    
C28   O18   A    
C25   C26   A    
C4    O14   A    
C3    C45   A    
C47   O8    A    
C42   C45   S    
C6    C10   A    
Cr5   O8    S    
C40   O12   A    
Cr4   O5    S    
Cr5   O27   S    
C11   C16   S    
C31   C32   A    
C23   C34   A    
C48   O10   A    
Cr3   O24   S    
C17   C18   A    
C57   H20   S    
C37   C48   S    
C53   O20   D    
C49   O23   A    
C22   C24   A    
Cr2   O24   S    
Cr1   O4    S    
C7    C53   S    
C23   H10   S    
Cr2   O14   S    
C49   O17   A    
Cr4   O11   S    
C21   H27   S    
C15   C17   A    
C18   H25   S    
C30   C46   S    
C42   O26   A    
Cr6   O3    S    
C14   H23   S    
C2    C58   A    
C32   H5    S    
C32   C33   A    
C2    C3    A    
Cr6   O2    S    
Cr2   O19   S    
Cr5   O28   S    
C26   C40   S    
C57   C58   A    
C5    C6    A    
C20   H26   S    
C44   O25   A    
C1    O4    A    
Cr1   O17   S    
C39   H9    S    
Cr3   O15   S    
C50   H1    S    
Cr4   O26   S    
C16   O16   A    
C20   C21   A    
Cr3   O22   S    
C44   O3    A    
C14   C15   A    
Cr1   O1    S    
Cr2   O12   S    
C51   H2    S    
C12   C54   S    
Cr2   O13   S    
C1    O13   A    
