data_mof_unit_57242.cif
_audit_creation_date              2012-12-10T18:04:03-0500
_audit_creation_method            fapswitch 2.2
_symmetry_space_group_name_H-M    P1
_symmetry_Int_Tables_number       1
_space_group_crystal_system       triclinic
_cell_length_a                    10.736696
_cell_length_b                    9.570318
_cell_length_c                    10.837627
_cell_angle_alpha                 90.290588
_cell_angle_beta                  90.536946
_cell_angle_gamma                 89.858076
_cell_volume                      1113.5386265

loop_
_atom_site_label
_atom_site_type_symbol
_atom_type_description
_atom_site_fract_x
_atom_site_fract_y
_atom_site_fract_z
_atom_type_partial_charge
C1    C     C_R   0.262651 0.500335 0.502661 0.851567
C2    C     C_R   0.737509 0.499740 0.502105 0.847160
C3    C     C_R   0.408771 0.074913 0.440113 -0.104150
C4    C     C_R   0.590637 0.075845 0.560101 -0.058480
C5    C     C_R   0.408256 0.926338 0.439227 0.315520
C6    C     C_R   0.592785 0.927793 0.559679 0.355686
C7    C     C_R   0.498703 0.499782 0.262415 0.795266
C8    C     C_R   0.498059 0.500313 0.737478 0.822218
C9    C     C_R   0.510803 0.622795 0.063755 0.029312
C10   C     C_R   0.505273 0.624976 0.936649 0.058483
C11   C     C_R   0.489642 0.500056 0.129114 -0.070635
C12   C     C_R   0.487345 0.501364 0.870348 -0.121071
C13   C     C_R   0.454479 0.379220 0.063335 -0.227091
C14   C     C_R   0.454269 0.379568 0.934387 -0.204830
C15   C     C_3   0.606417 0.732706 0.927859 0.052702
C16   C     C_3   0.615393 0.727288 0.068554 0.028237
C17   C     C_R   0.066623 0.485745 0.619712 0.203183
C18   C     C_R   0.935567 0.482124 0.618894 0.189487
C19   C     C_R   0.871473 0.499087 0.506210 -0.076160
C20   C     C_R   0.128977 0.501999 0.506966 -0.073503
C21   C     C_R   0.935139 0.519146 0.396390 -0.260128
C22   C     C_R   0.063740 0.520253 0.396496 -0.243149
Cu1   Cu    Cu3+1 0.500000 0.640660 0.500000 0.962106
Cu2   Cu    Cu3+1 0.500000 0.359340 0.500000 0.940180
H1    H     H_    0.432022 0.283415 0.110952 0.159883
H2    H     H_    0.432420 0.283745 0.885348 0.165131
H3    H     H_    0.690405 0.694941 0.878668 0.135029
H4    H     H_    0.589759 0.827072 0.114717 0.123630
H5    H     H_    0.885036 0.532933 0.310661 0.155308
H6    H     H_    0.112619 0.534397 0.310384 0.146766
H7    H     H_    0.335350 0.131564 0.392921 0.145169
H8    H     H_    0.661364 0.133218 0.610392 0.150115
N1    N     N_R   0.500000 0.852070 0.500000 -0.206493
N2    N     N_R   0.500000 0.147940 0.500000 -0.197040
O1    O     O_R   0.319640 0.618740 0.499990 -0.561463
O2    O     O_R   0.680360 0.618740 0.500010 -0.587117
O3    O     O_R   0.319620 0.381170 0.499990 -0.583117
O4    O     O_R   0.680380 0.381170 0.500010 -0.580085
O5    O     O_R   0.499990 0.618810 0.319660 -0.564879
O6    O     O_R   0.500010 0.618810 0.680340 -0.591411
O7    O     O_R   0.499960 0.381240 0.319650 -0.589181
O8    O     O_R   0.500040 0.381240 0.680350 -0.581191
N3    N     N_2   0.565200 0.868137 0.881038 -0.421620
H9    H     H_    0.630548 0.945946 0.893074 0.257573
C23   C     C_3   0.438094 0.914814 0.899578 -0.673254
H10   H     H_    0.423405 0.015624 0.851271 0.216853
H11   H     H_    0.419790 0.930843 0.999148 0.206435
H12   H     H_    0.371020 0.838450 0.859840 0.241643
N4    N     N_2   0.734430 0.672830 0.114021 -0.428723
H13   H     H_    0.751895 0.696754 0.205387 0.259148
C24   C     C_3   0.777759 0.534485 0.078201 -0.700710
H14   H     H_    0.881063 0.532200 0.082029 0.220812
H15   H     H_    0.748368 0.505594 0.983340 0.239484
H16   H     H_    0.742094 0.454905 0.142960 0.219632
N5    N     N_2   0.135834 0.470937 0.731812 -0.440363
H17   H     H_    0.097866 0.401808 0.793525 0.264964
C25   C     C_3   0.171132 0.601926 0.789388 -0.734398
H18   H     H_    0.087160 0.663807 0.813793 0.218481
H19   H     H_    0.230129 0.664063 0.726672 0.249595
H20   H     H_    0.225183 0.581009 0.875130 0.234613
N6    N     N_2   0.867681 0.467211 0.730371 -0.463008
H21   H     H_    0.899847 0.525483 0.804207 0.254520
C26   C     C_3   0.833484 0.325631 0.762086 -0.719786
H22   H     H_    0.891728 0.288428 0.840603 0.212421
H23   H     H_    0.845725 0.252326 0.683158 0.234930
H24   H     H_    0.734442 0.323842 0.790187 0.240691
N7    N     N_2   0.308483 0.855168 0.379854 -0.370230
H25   H     H_    0.223458 0.878602 0.418479 0.235972
C27   C     C_3   0.304889 0.867164 0.247023 -0.714450
H26   H     H_    0.233037 0.795398 0.208702 0.227264
H27   H     H_    0.396020 0.837539 0.207942 0.237428
H28   H     H_    0.281340 0.975745 0.219267 0.196218
N8    N     N_2   0.689711 0.860917 0.627614 -0.415010
H29   H     H_    0.673698 0.768648 0.671954 0.304304
C28   C     C_3   0.818033 0.896100 0.601751 -0.737904
H30   H     H_    0.869652 0.800625 0.573842 0.248047
H31   H     H_    0.862370 0.939731 0.686398 0.224102
H32   H     H_    0.825431 0.973604 0.526142 0.223365

loop_
_geom_bond_atom_site_label_1
_geom_bond_atom_site_label_2
_ccdc_geom_bond_type
C16   H4    S    
N5    H17   S    
C26   H23   S    
Cu2   O8    S    
N8    H29   S    
C5    N7    S    
C23   H10   S    
C7    C11   S    
C19   C21   A    
C9    C16   S    
C8    O8    A    
C10   C15   S    
C25   H19   S    
Cu1   O6    S    
C17   C20   A    
C27   H27   S    
C18   C19   A    
N6    C26   S    
Cu1   N1    S    
C5    N1    A    
Cu2   O4    S    
Cu1   Cu2   S    
C9    C10   A    
C17   N5    S    
C1    O3    A    
C26   H24   S    
C13   C14   A    
Cu2   O7    S    
N8    C28   S    
C13   H1    S    
C27   H26   S    
C17   C18   A    
C23   H11   S    
C4    N2    A    
N7    H25   S    
C16   N4    S    
C4    C6    A    
C25   H20   S    
C3    N2    A    
N4    C24   S    
C21   H5    S    
Cu2   N2    S    
C24   H14   S    
C24   H15   S    
C27   H28   S    
C28   H30   S    
C28   H31   S    
C2    O4    A    
C15   H3    S    
C8    C12   S    
Cu2   O3    S    
C14   H2    S    
C3    H7    S    
C9    C11   A    
C4    H8    S    
C10   C12   A    
C12   C14   A    
Cu1   O2    S    
Cu1   O1    S    
N5    C25   S    
N3    H9    S    
C1    O1    A    
C6    N8    S    
C23   H12   S    
C2    O2    A    
C1    C20   S    
C22   H6    S    
C2    C19   S    
C20   C22   A    
C3    C5    A    
C18   N6    S    
C6    N1    A    
C24   H16   S    
C15   N3    S    
N3    C23   S    
C11   C13   A    
C25   H18   S    
Cu1   O5    S    
C7    O7    A    
N6    H21   S    
C28   H32   S    
C26   H22   S    
N4    H13   S    
C7    O5    A    
C8    O6    A    
N7    C27   S    
C21   C22   A    
C15   C16   S    
