data_mof_unit_58613.cif
_audit_creation_date              2012-12-10T20:31:58-0500
_audit_creation_method            fapswitch 2.2
_symmetry_space_group_name_H-M    P1
_symmetry_Int_Tables_number       1
_space_group_crystal_system       triclinic
_cell_length_a                    9.890963
_cell_length_b                    10.668014
_cell_length_c                    15.509079
_cell_angle_alpha                 90.035055
_cell_angle_beta                  67.735686
_cell_angle_gamma                 90.288763
_cell_volume                      1514.44409276

loop_
_atom_site_label
_atom_site_type_symbol
_atom_type_description
_atom_site_fract_x
_atom_site_fract_y
_atom_site_fract_z
_atom_type_partial_charge
C1    C     C_R   0.498985 0.739826 0.501577 0.882127
C2    C     C_R   0.741790 0.487039 0.029074 0.171915
C3    C     C_R   0.596615 0.449835 0.084041 0.095490
C4    C     C_R   0.408603 0.498736 0.675965 0.876968
C5    C     C_R   0.840646 0.516969 0.071368 -0.214931
C6    C     C_R   0.794488 0.517137 0.168091 -0.202169
C7    C     C_R   0.553039 0.451379 0.180766 -0.266428
C8    C     C_R   0.394783 0.935687 0.480345 0.130400
C9    C     C_R   0.490635 0.871631 0.510728 -0.103611
C10   C     C_R   0.568940 0.935693 0.555767 -0.222675
C11   C     C_R   0.569822 0.065512 0.555127 -0.226787
C12   C     C_R   0.426610 0.448726 0.907585 0.085798
C13   C     C_R   0.489977 0.128539 0.510905 -0.094341
C14   C     C_R   0.393954 0.063428 0.480783 0.134463
C15   C     C_3   0.376240 0.070645 0.389367 -0.499034
C16   C     C_R   0.498681 0.260230 0.501487 0.874197
C17   C     C_3   0.377607 0.928526 0.388768 -0.482103
C18   C     C_R   0.930210 0.610122 0.499392 0.097416
C19   C     C_R   0.931884 0.391190 0.492907 -0.112882
C20   C     C_R   0.075539 0.391197 0.492808 -0.123262
C21   C     C_R   0.072207 0.609948 0.499950 0.113907
C22   C     C_3   0.036544 0.709473 0.572404 -0.534370
C23   C     C_R   0.287781 0.395150 0.958375 0.180847
C24   C     C_3   0.884041 0.711210 0.571107 0.451542
C25   C     C_R   0.591446 0.497891 0.324087 0.861257
C26   C     C_R   0.353637 0.479521 0.776486 -0.067494
C27   C     C_R   0.649017 0.488013 0.222795 -0.059297
C28   C     C_R   0.184085 0.383103 0.917059 -0.221853
C29   C     C_R   0.218035 0.423037 0.825495 -0.206633
C30   C     C_R   0.451824 0.499031 0.819958 -0.243742
C31   C     C_R   0.535493 0.452530 0.946094 0.059437
C32   C     C_R   0.495877 0.422676 0.041347 0.070896
C33   C     C_R   0.356639 0.368340 0.090621 -0.227985
C34   C     C_R   0.255324 0.353305 0.049046 -0.237975
C35   C     C_R   0.683145 0.482951 0.892023 -0.206362
C36   C     C_R   0.784931 0.497885 0.932988 -0.239432
F1    F     F_    0.778648 0.670800 0.654357 -0.663976
H1    H     H_    0.150342 0.310541 0.088568 0.149981
H2    H     H_    0.131117 0.303088 0.488437 0.143160
H3    H     H_    0.040727 0.675023 0.639030 0.234274
H4    H     H_    0.441477 0.431386 0.225161 0.158786
H5    H     H_    0.098483 0.797520 0.545431 0.159588
H6    H     H_    0.857863 0.800228 0.544102 0.050232
H7    H     H_    0.870532 0.544454 0.199910 0.158760
H8    H     H_    0.896347 0.523208 0.889688 0.155459
H9    H     H_    0.078938 0.339368 0.954475 0.147325
H10   H     H_    0.141131 0.406003 0.792263 0.159954
H11   H     H_    0.549796 0.552062 0.782909 0.211530
H12   H     H_    0.951761 0.545113 0.029863 0.151988
H13   H     H_    0.324684 0.332415 0.160569 0.144724
H14   H     H_    0.724003 0.492872 0.817240 0.188902
H15   H     H_    0.632276 0.886177 0.588172 0.183028
H16   H     H_    0.636251 0.115875 0.585558 0.165851
H17   H     H_    0.268891 0.110412 0.396475 0.195982
H18   H     H_    0.472484 0.113439 0.333426 0.201116
H19   H     H_    0.271265 0.886370 0.395133 0.199683
H20   H     H_    0.474917 0.888248 0.332655 0.201851
H21   H     H_    0.880588 0.303011 0.488574 0.142583
N1    N     N_R   0.856900 0.500860 0.500610 -0.077462
N2    N     N_R   0.142540 0.500820 0.500610 -0.084638
O1    O     O_R   0.385310 0.683210 0.499990 -0.610213
O2    O     O_R   0.614650 0.683240 0.500000 -0.613437
O3    O     O_R   0.319830 0.499970 0.632240 -0.618561
O4    O     O_R   0.549170 0.500000 0.632250 -0.562656
O5    O     O_R   0.385350 0.316760 0.500000 -0.624096
O6    O     O_R   0.614690 0.316790 0.500010 -0.631958
O7    O     O_R   0.450830 0.500000 0.367750 -0.613818
O8    O     O_R   0.680170 0.500030 0.367760 -0.619418
Zn1   Zn    Zn3+2 0.346870 0.499980 0.499990 0.945606
Zn2   Zn    Zn3+2 0.653130 0.500020 0.500010 0.976574

loop_
_geom_bond_atom_site_label_1
_geom_bond_atom_site_label_2
_ccdc_geom_bond_type
C3    C32   A    
C4    C26   S    
C26   C30   A    
C1    O1    A    
O4    Zn2   S    
C20   N2    A    
C18   C21   A    
C9    C10   A    
C4    O4    A    
C6    C27   A    
C11   H16   S    
C23   C34   A    
C22   H3    S    
C1    O2    A    
C22   C24   S    
C2    C3    A    
C10   H15   S    
C36   H8    S    
C19   H21   S    
C15   H18   S    
O6    Zn2   S    
C23   C28   A    
C32   C33   A    
C8    C17   S    
C11   C13   A    
C17   H19   S    
C28   H9    S    
C21   N2    A    
C22   H5    S    
C25   O8    A    
N2    Zn1   S    
C29   H10   S    
C4    O3    A    
C18   C24   S    
C31   C35   A    
C21   C22   S    
C28   C29   A    
C33   C34   A    
C24   F1    S    
C3    C7    A    
O1    Zn1   S    
C7    H4    S    
C12   C31   A    
C35   H14   S    
C5    C6    A    
O5    Zn1   S    
C5    H12   S    
C2    C5    A    
C16   O6    A    
C10   C11   A    
N1    Zn2   S    
C2    C36   A    
C15   H17   S    
O3    Zn1   S    
C18   N1    A    
C7    C27   A    
O2    Zn2   S    
C26   C29   A    
C15   C17   S    
C6    H7    S    
C13   C16   S    
C30   H11   S    
C24   H6    S    
C20   H2    S    
C14   C15   S    
C34   H1    S    
C12   C23   A    
C16   O5    A    
C8    C14   A    
C19   N1    A    
C33   H13   S    
C13   C14   A    
O8    Zn2   S    
C12   C30   A    
C35   C36   A    
C31   C32   A    
C1    C9    S    
C19   C20   A    
C17   H20   S    
C8    C9    A    
O7    Zn1   S    
C25   C27   S    
C25   O7    A    
