data_mof_unit_61987.cif
_audit_creation_date              2012-12-11T15:10:57-0500
_audit_creation_method            fapswitch 2.2
_symmetry_space_group_name_H-M    P1
_symmetry_Int_Tables_number       1
_space_group_crystal_system       monoclinic
_cell_length_a                    13.73523
_cell_length_b                    13.73522
_cell_length_c                    28.304483
_cell_angle_alpha                 90.0
_cell_angle_beta                  90.0
_cell_angle_gamma                 120.000183
_cell_volume                      4624.41300279

loop_
_atom_site_label
_atom_site_type_symbol
_atom_type_description
_atom_site_fract_x
_atom_site_fract_y
_atom_site_fract_z
_atom_type_partial_charge
C1    C     C_R   0.545457 0.432862 0.183980 0.545164
C2    C     C_3   0.929807 0.484719 0.536076 -0.141962
C3    C     C_3   0.554914 0.070198 0.536077 -0.141962
C4    C     C_3   0.515282 0.445086 0.536077 -0.141962
C5    C     C_1   0.451098 0.913894 0.634181 0.045659
C6    C     C_1   0.086107 0.537204 0.634181 0.045659
C7    C     C_1   0.462796 0.548903 0.634181 0.045659
C8    C     C_1   0.925923 0.456954 0.363858 0.050757
C9    C     C_1   0.531032 0.074079 0.363859 0.050757
C10   C     C_1   0.543047 0.468967 0.363859 0.050757
C11   C     C_3   0.470757 0.018862 0.453747 -0.002518
C12   C     C_R   0.567138 0.112595 0.183980 0.545164
C13   C     C_3   0.981141 0.451896 0.453746 -0.002518
C14   C     C_3   0.548104 0.529242 0.453747 -0.002518
C15   C     C_3   0.039914 0.481259 0.543463 0.003744
C16   C     C_3   0.441347 0.960088 0.543463 0.003744
C17   C     C_3   0.518741 0.558653 0.543463 0.003743
C18   C     C_3   0.345026 0.982588 0.526693 0.141845
C19   C     C_3   0.017411 0.362436 0.526693 0.141844
C20   C     C_3   0.637563 0.654973 0.526693 0.141845
C21   C     C_3   0.987575 0.347387 0.472484 0.144820
C22   C     C_3   0.359812 0.012424 0.472484 0.144820
C23   C     C_R   0.887405 0.454543 0.183980 0.545163
C24   C     C_3   0.652613 0.640186 0.472484 0.144821
C25   C     C_1   0.439954 0.931195 0.593546 0.006516
C26   C     C_1   0.068807 0.508758 0.593546 0.006516
C27   C     C_1   0.491241 0.560047 0.593546 0.006515
C28   C     C_1   0.949934 0.449354 0.403889 0.012832
C29   C     C_1   0.499421 0.050069 0.403889 0.012831
C30   C     C_1   0.550647 0.500578 0.403890 0.012831
C31   C     C_R   0.547455 0.432766 0.317340 0.553312
C32   C     C_R   0.567234 0.114690 0.317339 0.553312
C33   C     C_R   0.885311 0.452545 0.317339 0.553311
C34   C     C_R   0.432868 0.545447 0.816015 0.546446
C35   C     C_R   0.431364 0.548693 0.681978 0.552809
C36   C     C_R   0.117330 0.568636 0.681978 0.552808
C37   C     C_R   0.451307 0.882671 0.681978 0.552807
C38   C     C_3   0.528776 0.124528 0.019541 -0.214886
C39   C     C_3   0.875451 0.404307 0.019540 -0.214887
C40   C     C_3   0.595802 0.471303 0.019543 -0.214888
C41   C     C_3   0.099350 0.478237 0.978770 -0.214839
C42   C     C_3   0.378920 0.900601 0.978773 -0.214844
C43   C     C_3   0.521599 0.621056 0.978778 -0.214841
C44   C     C_3   0.388513 0.919859 0.032998 -0.215541
C45   C     C_R   0.112579 0.567132 0.816015 0.546445
C46   C     C_3   0.080093 0.468573 0.032995 -0.215536
C47   C     C_3   0.531262 0.611462 0.033002 -0.215538
C48   C     C_3   0.894668 0.413994 0.965341 -0.215555
C49   C     C_3   0.519245 0.105310 0.965342 -0.215555
C50   C     C_3   0.586117 0.480835 0.965344 -0.215557
C51   C     C_1   0.471736 0.935560 0.862081 -0.014483
C52   C     C_1   0.064442 0.536177 0.862081 -0.014483
C53   C     C_1   0.463822 0.528264 0.862081 -0.014483
C54   C     C_1   0.935477 0.471678 0.137903 -0.014293
C55   C     C_1   0.536202 0.064526 0.137902 -0.014292
C56   C     C_R   0.454553 0.887421 0.816015 0.546445
C57   C     C_1   0.528323 0.463798 0.137902 -0.014292
C58   C     C_3   0.507487 0.016390 0.045973 0.072096
C59   C     C_3   0.983617 0.491100 0.045974 0.072102
C60   C     C_3   0.508899 0.492513 0.045973 0.072100
C61   C     C_3   0.016219 0.507444 0.954003 0.072058
C62   C     C_3   0.491228 0.983787 0.954002 0.072054
C63   C     C_3   0.492555 0.508772 0.954002 0.072055
C64   C     C_3   0.585521 0.965516 0.974578 -0.213093
C65   C     C_3   0.034574 0.620036 0.974584 -0.213091
C66   C     C_3   0.380015 0.414425 0.974573 -0.213092
C67   C     C_3   0.457044 0.900702 0.459935 -0.139861
C68   C     C_3   0.015477 0.610444 0.028705 -0.213335
C69   C     C_3   0.595028 0.984615 0.028699 -0.213336
C70   C     C_3   0.389607 0.404917 0.028694 -0.213333
C71   C     C_1   0.481897 0.962880 0.902927 -0.073840
C72   C     C_1   0.037125 0.519020 0.902928 -0.073839
C73   C     C_1   0.480979 0.518104 0.902928 -0.073840
C74   C     C_1   0.962737 0.481781 0.097050 -0.073851
C75   C     C_1   0.519047 0.037269 0.097049 -0.073853
C76   C     C_1   0.518219 0.480953 0.097049 -0.073852
C77   C     C_3   0.570970 0.104753 0.483690 -0.231768
C78   C     C_3   0.099302 0.556342 0.459935 -0.139862
C79   C     C_3   0.895252 0.466221 0.483690 -0.231765
C80   C     C_3   0.533779 0.429028 0.483691 -0.231766
C81   C     C_3   0.134777 0.572094 0.512497 -0.245062
C82   C     C_3   0.437322 0.865227 0.512498 -0.245060
C83   C     C_3   0.427906 0.562679 0.512498 -0.245062
C84   C     C_1   0.363720 0.822297 0.429115 0.210203
C85   C     C_1   0.177703 0.541418 0.429115 0.210204
C86   C     C_1   0.458580 0.636282 0.429116 0.210204
C87   C     C_1   0.842596 0.398165 0.566674 0.210768
C88   C     C_1   0.555568 0.157407 0.566675 0.210769
C89   C     C_3   0.443658 0.542957 0.459935 -0.139863
C90   C     C_1   0.601837 0.444431 0.566675 0.210771
Cl1   Cl    Cl    0.355170 0.137292 0.461015 -0.625424
Cl2   Cl    Cl    0.862705 0.217878 0.461015 -0.625427
Cl3   Cl    Cl    0.782122 0.644825 0.461016 -0.625428
Cl4   Cl    Cl    0.131924 0.339556 0.539205 -0.607639
Cl5   Cl    Cl    0.207633 0.868073 0.539206 -0.607642
Cl6   Cl    Cl    0.660443 0.792367 0.539205 -0.607641
Cr1   Cr    Cr6+3 0.748260 0.501860 0.250510 1.061316
Cr2   Cr    Cr6+3 0.498140 0.246400 0.250510 1.061316
Cr3   Cr    Cr6+3 0.753600 0.251740 0.250510 1.061316
Cr4   Cr    Cr6+3 0.501860 0.748260 0.749490 1.060658
Cr5   Cr    Cr6+3 0.246400 0.498140 0.749490 1.060658
Cr6   Cr    Cr6+3 0.251740 0.753600 0.749490 1.060658
H1    H     H_    0.452532 0.120520 0.951032 0.113420
H2    H     H_    0.808967 0.393226 0.478643 0.169159
H3    H     H_    0.584256 0.191036 0.478644 0.169158
H4    H     H_    0.606775 0.415740 0.478644 0.169159
H5    H     H_    0.286175 0.946948 0.452827 0.210903
H6    H     H_    0.053050 0.339224 0.452826 0.210904
H7    H     H_    0.660776 0.713823 0.452827 0.210904
H8    H     H_    0.946472 0.295245 0.546986 0.208577
H9    H     H_    0.348771 0.053526 0.546986 0.208578
H10   H     H_    0.704754 0.651227 0.546987 0.208579
H11   H     H_    0.466777 0.149297 0.031195 0.111215
H12   H     H_    0.879397 0.332052 0.951027 0.113413
H13   H     H_    0.850623 0.317520 0.031190 0.111204
H14   H     H_    0.682555 0.533343 0.031201 0.111219
H15   H     H_    0.087943 0.397444 0.964781 0.113193
H16   H     H_    0.309495 0.911946 0.964788 0.113188
H17   H     H_    0.602352 0.690520 0.964797 0.113181
H18   H     H_    0.371278 0.841048 0.051271 0.110310
H19   H     H_    0.158923 0.530107 0.051269 0.110309
H20   H     H_    0.469646 0.628640 0.051274 0.110309
H21   H     H_    0.833322 0.433316 0.948204 0.110736
H22   H     H_    0.599892 0.166695 0.948202 0.110733
H23   H     H_    0.668023 0.547590 0.951038 0.113423
H24   H     H_    0.566913 0.400208 0.948201 0.110732
H25   H     H_    0.356858 0.812369 0.971126 0.105798
H26   H     H_    0.187601 0.544365 0.971124 0.105802
H27   H     H_    0.455389 0.643062 0.971129 0.105798
H28   H     H_    0.804538 0.418594 0.028291 0.105126
H29   H     H_    0.613954 0.195480 0.028289 0.105123
H30   H     H_    0.581632 0.386143 0.028288 0.105119
H31   H     H_    0.681474 0.052810 0.037681 0.113647
H32   H     H_    0.947324 0.628757 0.037691 0.113651
H33   H     H_    0.371413 0.318487 0.037674 0.113639
H34   H     H_    0.059101 0.383079 0.044985 0.114581
H35   H     H_    0.121550 0.688842 0.966811 0.109934
H36   H     H_    0.567411 0.878561 0.966803 0.109945
H37   H     H_    0.311130 0.432475 0.966797 0.109950
H38   H     H_    0.581332 0.906822 0.046835 0.113161
H39   H     H_    0.093292 0.674502 0.046843 0.113153
H40   H     H_    0.325470 0.418554 0.046829 0.113163
H41   H     H_    0.975624 0.642962 0.957657 0.115066
H42   H     H_    0.667378 0.024507 0.957647 0.115063
H43   H     H_    0.357207 0.332584 0.957640 0.115060
H44   H     H_    0.625836 0.057910 0.547319 0.177641
H45   H     H_    0.323971 0.940789 0.044991 0.114581
H46   H     H_    0.942096 0.567929 0.547319 0.177643
H47   H     H_    0.432072 0.374165 0.547320 0.177641
H48   H     H_    0.097781 0.632767 0.447883 0.173631
H49   H     H_    0.534991 0.902226 0.447883 0.173633
H50   H     H_    0.367234 0.465010 0.447883 0.173632
H51   H     H_    0.647299 0.105746 0.470874 0.205118
H52   H     H_    0.894264 0.541561 0.470874 0.205119
H53   H     H_    0.458441 0.352700 0.470875 0.205118
H54   H     H_    0.152073 0.656023 0.524126 0.187824
H55   H     H_    0.503958 0.847935 0.524126 0.187825
H56   H     H_    0.616716 0.676044 0.044999 0.114577
H57   H     H_    0.343977 0.496046 0.524126 0.187823
H58   H     H_    0.356186 0.786013 0.517662 0.147896
H59   H     H_    0.213988 0.570169 0.517662 0.147897
H60   H     H_    0.429831 0.643816 0.517662 0.147898
N1    N     N_1   0.292229 0.767665 0.403060 -0.262754
N2    N     N_1   0.232332 0.524555 0.403059 -0.262753
N3    N     N_1   0.475443 0.707774 0.403060 -0.262752
N4    N     N_1   0.780928 0.329562 0.592268 -0.234334
N5    N     N_1   0.548629 0.219072 0.592269 -0.234336
N6    N     N_1   0.670441 0.451370 0.592269 -0.234333
O1    O     O_R   0.863770 0.527700 0.199270 -0.505972
O2    O     O_R   0.490970 0.643280 0.797590 -0.496733
O3    O     O_R   0.152310 0.509030 0.797590 -0.496733
O4    O     O_R   0.356720 0.847690 0.797590 -0.496733
O5    O     O_R   0.862920 0.527590 0.302350 -0.488341
O6    O     O_R   0.472410 0.335330 0.302350 -0.488340
O7    O     O_R   0.664670 0.137080 0.302350 -0.488340
O8    O     O_R   0.527590 0.862920 0.697650 -0.488742
O9    O     O_R   0.335330 0.472410 0.697650 -0.488743
O10   O     O_R   0.137080 0.664670 0.697650 -0.488741
O11   O     O_R   0.642490 0.490870 0.297970 -0.490620
O12   O     O_R   0.472300 0.336070 0.199270 -0.505972
O13   O     O_R   0.509130 0.151620 0.297970 -0.490620
O14   O     O_R   0.848380 0.357510 0.297970 -0.490619
O15   O     O_R   0.490870 0.642490 0.702030 -0.491888
O16   O     O_R   0.151620 0.509130 0.702030 -0.491888
O17   O     O_R   0.357510 0.848380 0.702030 -0.491887
O18   O     O_3   0.666667 0.333333 0.250440 -0.280355
O19   O     O_3   0.333333 0.666667 0.749560 -0.283195
O20   O     O_R   0.663930 0.136230 0.199270 -0.505971
O21   O     O_R   0.527700 0.863770 0.800730 -0.505109
O22   O     O_R   0.336070 0.472300 0.800730 -0.505109
O23   O     O_R   0.136230 0.663930 0.800730 -0.505108
O24   O     O_R   0.643280 0.490970 0.202410 -0.497636
O25   O     O_R   0.509030 0.152310 0.202410 -0.497636
O26   O     O_R   0.847690 0.356720 0.202410 -0.497636

loop_
_geom_bond_atom_site_label_1
_geom_bond_atom_site_label_2
_ccdc_geom_bond_type
C35   O9    A    
C13   C79   S    
C40   C60   S    
C5    C37   S    
C46   C59   S    
C12   O25   A    
C7    C27   T    
Cr4   O21   S    
C41   C61   S    
C20   H10   S    
C44   H45   S    
C48   H21   S    
C43   C63   S    
C15   C81   S    
C38   C49   S    
C6    C26   T    
C15   C19   S    
C4    H47   S    
Cr3   O26   S    
C56   O21   A    
C81   H54   S    
C51   C71   T    
C23   C54   S    
C57   C76   T    
C19   C21   S    
C4    C80   S    
C12   C55   S    
Cr2   O6    S    
C1    O12   A    
C40   C50   S    
Cr1   O11   S    
C87   N4    T    
C44   H18   S    
C35   O15   A    
C22   H5    S    
C12   O20   A    
C80   H4    S    
C17   C20   S    
Cr1   O1    S    
C51   C56   S    
C14   C24   S    
Cr4   O15   S    
C66   H43   S    
C62   C64   S    
C2    C79   S    
C11   C77   S    
C9    C32   S    
C77   H51   S    
C47   C60   S    
C38   C58   S    
C3    H44   S    
C10   C31   S    
C45   O23   A    
C89   H50   S    
C37   O17   A    
C66   H37   S    
C20   C24   S    
C44   C58   S    
Cr3   O14   S    
C83   H57   S    
Cr4   O8    S    
C69   H31   S    
C41   C46   S    
C46   H19   S    
C50   H24   S    
C14   C80   S    
C33   O5    A    
C42   C62   S    
C34   O2    A    
C9    C29   T    
C8    C33   S    
C65   H35   S    
C65   C68   S    
C69   H38   S    
C40   H30   S    
C63   C66   S    
C67   C84   S    
C54   C74   T    
C56   O4    A    
C18   Cl5   S    
C41   H26   S    
C60   C70   S    
C86   N3    T    
C42   C44   S    
C2    H46   S    
C14   C30   S    
C45   O3    A    
Cr3   O20   S    
C11   C67   S    
C58   C75   S    
C4    C90   S    
Cr1   O24   S    
Cr6   O4    S    
Cr1   O18   S    
C83   C89   S    
C32   O7    A    
C70   H40   S    
Cr6   O17   S    
Cr1   O5    S    
C67   H49   S    
C17   C27   S    
C32   O13   A    
C34   O22   A    
Cr4   O19   S    
C36   O10   A    
C18   H9    S    
Cr5   O22   S    
C82   H55   S    
C42   H16   S    
C47   H20   S    
C64   H36   S    
C63   C73   S    
C45   C52   S    
C49   H22   S    
Cr4   O2    S    
C78   C85   S    
C60   C76   S    
C68   H39   S    
Cr2   O25   S    
C31   O11   A    
C17   C83   S    
C14   C89   S    
C52   C72   T    
C1    C57   S    
C59   C68   S    
C82   H58   S    
C10   C30   T    
C23   O1    A    
C43   H27   S    
C22   Cl1   S    
C88   N5    T    
C39   C59   S    
C16   C82   S    
Cr6   O23   S    
C13   C21   S    
C2    C87   S    
C13   C28   S    
C50   H23   S    
C64   C69   S    
C2    C15   S    
C19   Cl4   S    
C59   C74   S    
C84   N1    T    
C42   H25   S    
C67   C82   S    
C36   O16   A    
C4    C17   S    
C61   C72   S    
C83   H60   S    
C39   H13   S    
C70   H33   S    
Cr6   O10   S    
C5    C25   T    
C79   H2    S    
Cr2   O12   S    
C3    C77   S    
C65   H41   S    
C78   H48   S    
C80   H53   S    
C48   H12   S    
C19   H8    S    
C16   C25   S    
C38   H11   S    
C13   C78   S    
Cr5   O16   S    
C49   C62   S    
C90   N6    T    
C3    C88   S    
C18   C22   S    
C7    C35   S    
C53   C73   T    
C24   H7    S    
C15   C26   S    
C86   C89   S    
C49   H1    S    
C58   C69   S    
C39   H28   S    
C64   H42   S    
C66   C70   S    
C11   C22   S    
Cr6   O19   S    
C38   H29   S    
Cr2   O13   S    
C68   H32   S    
C55   C75   T    
Cr2   O18   S    
C24   Cl3   S    
C79   H52   S    
C78   C81   S    
C48   C61   S    
C40   H14   S    
C8    C28   T    
C23   O26   A    
C77   H3    S    
C6    C36   S    
C62   C71   S    
Cr5   O3    S    
C50   C63   S    
C20   Cl6   S    
C47   H56   S    
C21   H6    S    
Cr5   O9    S    
C46   H34   S    
C1    O24   A    
C61   C65   S    
Cr3   O7    S    
C11   C29   S    
C34   C53   S    
C16   C18   S    
C33   O14   A    
C85   N2    T    
C81   H59   S    
C41   H15   S    
Cr5   O19   S    
C43   C47   S    
C21   Cl2   S    
Cr3   O18   S    
C3    C16   S    
C43   H17   S    
C39   C48   S    
C37   O8    A    
C31   O6    A    
