data_mof_unit_28749.cif
_audit_creation_date              2013-03-05T15:59:22-0500
_audit_creation_method            fapswitch 2.2
_symmetry_space_group_name_H-M    P1
_symmetry_Int_Tables_number       1
_space_group_crystal_system       triclinic
_cell_length_a                    10.504698
_cell_length_b                    12.599595
_cell_length_c                    13.214882
_cell_angle_alpha                 83.534957
_cell_angle_beta                  90.694921
_cell_angle_gamma                 101.64006
_cell_volume                      1702.08986695

loop_
_atom_site_label
_atom_site_type_symbol
_atom_site_description
_atom_site_fract_x
_atom_site_fract_y
_atom_site_fract_z
_atom_type_partial_charge
O1    O     O_R   0.467970 0.366730 0.627150 -0.569949
O2    O     O_R   0.510820 0.544830 0.662520 -0.630152
C1    C     C_R   0.492121 0.439715 0.691084 0.906922
O3    O     O_R   0.664630 0.410960 0.482340 -0.644306
O4    O     O_R   0.707470 0.589060 0.517710 -0.602563
C2    C     C_R   0.741993 0.499928 0.500122 0.884724
Zn1   Zn    Zn3+2 0.471390 0.381080 0.476380 0.972786
Zn2   Zn    Zn3+2 0.528610 0.618920 0.523620 0.933558
O5    O     O_R   0.489180 0.455170 0.337480 -0.562230
O6    O     O_R   0.532030 0.633270 0.372850 -0.647209
O7    O     O_R   0.292530 0.410940 0.482290 -0.609911
O8    O     O_R   0.335370 0.589040 0.517660 -0.649239
C3    C     C_R   0.524726 0.559179 0.309686 0.870013
C4    C     C_R   0.257985 0.500339 0.499163 0.888378
C5    C     C_3   0.935272 0.401145 0.479158 -0.225989
C6    C     C_3   0.025433 0.422513 0.571486 -0.243081
H1    H     H_    0.050829 0.360340 0.630392 0.156735
H2    H     H_    0.878502 0.320533 0.463126 0.166721
C7    C     C_3   0.123165 0.501325 0.498606 -0.064284
C8    C     C_3   0.035930 0.479184 0.406125 -0.220781
C9    C     C_3   0.975871 0.575537 0.428489 0.079355
C10   C     C_3   0.065892 0.600865 0.518502 -0.228430
C11   C     C_3   0.966403 0.521109 0.589363 0.556054
C12   C     C_3   0.876859 0.499387 0.499435 -0.057876
H3    H     H_    0.069140 0.463767 0.330689 0.133820
H4    H     H_    0.122040 0.682235 0.533009 0.160518
C13   C     C_R   0.656015 0.720451 0.061801 -0.217978
H5    H     H_    0.615345 0.764039 0.209052 0.186814
H6    H     H_    0.698409 0.803893 0.033528 0.149776
C14   C     C_R   0.566889 0.589278 0.203715 -0.177621
C15   C     C_R   0.416389 0.300007 0.838228 0.526938
C16   C     C_R   0.386590 0.277927 0.942048 0.029425
C17   C     C_R   0.438175 0.354006 0.007794 -0.270668
C18   C     C_R   0.528670 0.450090 0.973011 0.079834
C19   C     C_R   0.559314 0.473087 0.868671 -0.039528
C20   C     C_R   0.579078 0.529392 0.038230 -0.030213
C21   C     C_R   0.640019 0.635957 0.998275 0.054085
C22   C     C_R   0.685865 0.652619 0.897271 0.068285
C23   C     C_R   0.651920 0.568553 0.835544 -0.124929
C24   C     C_R   0.571324 0.505178 0.143184 0.452850
C25   C     C_R   0.610537 0.697880 0.162532 -0.275636
C26   C     C_R   0.493714 0.402140 0.800267 -0.274835
H7    H     H_    0.400862 0.338307 0.084978 0.202319
H8    H     H_    0.695896 0.580064 0.760721 0.205081
C27   C     C_R   0.316375 0.087697 0.348246 -0.298124
H9    H     H_    0.295727 0.254495 0.333333 0.129490
H10   H     H_    0.244774 0.067028 0.290285 0.159339
N1    N     N_R   0.432930 0.222190 0.444670 -0.093839
C28   C     C_R   0.663114 0.803310 0.621938 0.047287
C29   C     C_R   0.700057 0.909706 0.645569 -0.246559
C30   C     C_R   0.637094 0.989366 0.599892 -0.207683
C31   C     C_R   0.538657 0.963387 0.527579 0.016415
C32   C     C_R   0.506211 0.854029 0.505036 0.205967
C33   C     C_R   0.473672 0.041665 0.475542 -0.061304
C34   C     C_R   0.380630 0.010206 0.399485 0.165196
C35   C     C_R   0.353662 0.902316 0.375555 0.047031
C36   C     C_R   0.415502 0.825927 0.429286 -0.263441
C37   C     C_R   0.497558 0.151013 0.495785 -0.043474
C38   C     C_R   0.344367 0.193937 0.372287 0.048273
N2    N     N_R   0.566370 0.776980 0.554790 -0.130502
H11   H     H_    0.565900 0.182411 0.551701 0.119945
H12   H     H_    0.713740 0.741728 0.655183 0.159526
H13   H     H_    0.670029 0.070472 0.620888 0.131950
H14   H     H_    0.778337 0.930898 0.698212 0.158078
H15   H     H_    0.393230 0.745123 0.408463 0.216716
O9    O     O_3   0.574404 0.400006 0.186005 -0.606498
C39   C     C_3   0.705090 0.391553 0.202044 -0.267236
H16   H     H_    0.707374 0.306980 0.234918 0.186783
H17   H     H_    0.751857 0.447045 0.257569 0.149105
H18   H     H_    0.761452 0.407941 0.129178 0.146019
O10   O     O_3   0.355814 0.227541 0.772897 -0.580306
C40   C     C_3   0.430498 0.146869 0.767925 -0.252293
H19   H     H_    0.431035 0.096288 0.842494 0.159606
H20   H     H_    0.531981 0.183352 0.742030 0.136533
H21   H     H_    0.386064 0.091817 0.711583 0.188270
N3    N     N_3   0.296843 0.180392 0.979575 -0.431350
H22   H     H_    0.343263 0.137668 0.036184 0.177294
H23   H     H_    0.218268 0.202727 0.013568 0.179255
N4    N     N_3   0.263891 0.870465 0.296031 -0.462510
H24   H     H_    0.249476 0.786483 0.292103 0.170760
H25   H     H_    0.307334 0.907820 0.226796 0.178980
N5    N     N_3   0.942921 0.657952 0.351921 -0.431377
H26   H     H_    0.026426 0.690858 0.308020 0.186346
H27   H     H_    0.874767 0.618194 0.303418 0.165762
O11   O     O_3   0.918074 0.541332 0.682879 -0.632809
C41   C     C_3   0.021497 0.561994 0.751333 -0.330418
H28   H     H_    0.093462 0.636769 0.723356 0.170439
H29   H     H_    0.069800 0.490994 0.766212 0.163744
H30   H     H_    0.981773 0.576093 0.824955 0.195998
N6    N     N_3   0.769560 0.752127 0.856546 -0.482156
H31   H     H_    0.719994 0.815796 0.859294 0.177725
H32   H     H_    0.851546 0.765952 0.902598 0.186464

loop_
_geom_bond_atom_site_label_1
_geom_bond_atom_site_label_2
_geom_bond_distance
_ccdc_geom_bond_type
C5    H2    1.110446 S    
C34   C35   1.402635 A    
C1    C26   1.467985 S    
C15   C26   1.417786 A    
H9    C38   1.082004 S    
C13   H6    1.081612 S    
C29   H14   1.082031 S    
C7    C8    1.535446 S    
O11   C41   1.407652 S    
Zn1   O7    1.993294 S    
C28   N2    1.355956 A    
C20   C21   1.411767 A    
N3    H23   1.045687 S    
O3    Zn1   1.990718 S    
O4    C2    1.293021 A    
O7    C4    1.293680 A    
C41   H29   1.112439 S    
C8    H3    1.110221 S    
C5    C6    1.549598 S    
H5    C25   1.083036 S    
C35   C36   1.392734 A    
C18   C19   1.404262 A    
C19   C26   1.417510 A    
O5    C3    1.299670 A    
C6    H1    1.110289 S    
C11   C12   1.521241 S    
C14   C25   1.401408 A    
C37   H11   1.075298 S    
C15   O10   1.383353 S    
O9    C39   1.409885 S    
C24   O9    1.387516 S    
C9    C10   1.532130 S    
C40   H21   1.109308 S    
C32   N2    1.366689 A    
C31   C33   1.420977 A    
C29   C30   1.389586 A    
C27   H10   1.082651 S    
C5    C8    1.551719 S    
C30   C31   1.414039 A    
C17   H7    1.079862 S    
C3    C14   1.459028 S    
C20   C24   1.385918 A    
C7    C10   1.544864 S    
C30   H13   1.076949 S    
N3    H22   1.045742 S    
O3    C2    1.288137 A    
N4    H25   1.045648 S    
C32   C36   1.398543 A    
C41   H28   1.112082 S    
C41   H30   1.109465 S    
C39   H16   1.109312 S    
O1    C1    1.303622 A    
C19   C23   1.415761 A    
C21   C22   1.403316 A    
C13   C25   1.398728 A    
N6    H32   1.045500 S    
C15   C16   1.395342 A    
Zn2   O8    1.990720 S    
C2    C12   1.418261 S    
C17   C18   1.414724 A    
C14   C24   1.405904 A    
C8    C9    1.534140 S    
C35   N4    1.439767 S    
C40   H20   1.113794 S    
C5    C12   1.538079 S    
O8    C4    1.288294 A    
C28   C29   1.388020 A    
C6    C11   1.537545 S    
N5    H27   1.044407 S    
C11   O11   1.410040 S    
C31   C32   1.415582 A    
N1    C38   1.352277 A    
C33   C37   1.405191 A    
Zn1   O5    1.956437 S    
C33   C34   1.425527 A    
C27   C38   1.383416 A    
C28   H12   1.077934 S    
O1    Zn1   1.980317 S    
C4    C7    1.418722 S    
O2    Zn2   1.956435 S    
C36   H15   1.064147 S    
C40   H19   1.112262 S    
O6    C3    1.311137 A    
C16   N3    1.432313 S    
O4    Zn2   1.993291 S    
N1    C37   1.348918 A    
C23   H8    1.078830 S    
C22   N6    1.431516 S    
C39   H18   1.113604 S    
C16   C17   1.390643 A    
O2    C1    1.311247 A    
O10   C40   1.411047 S    
Zn1   N1    2.050623 S    
N6    H31   1.044752 S    
C22   C23   1.396252 A    
C13   C21   1.411358 A    
C6    C7    1.537813 S    
C18   C20   1.410996 A    
N4    H24   1.045374 S    
C9    N5    1.456649 S    
C27   C34   1.404757 A    
Zn2   O6    1.980320 S    
N5    H26   1.043725 S    
C10   H4    1.110503 S    
C9    C12   1.516489 S    
C10   C11   1.538497 S    
C39   H17   1.112103 S    
Zn2   N2    2.038394 S    
