data_mof_unit_18650.cif
_audit_creation_date              2012-12-10T17:22:41-0500
_audit_creation_method            fapswitch 2.2
_symmetry_space_group_name_H-M    P1
_symmetry_Int_Tables_number       1
_space_group_crystal_system       triclinic
_cell_length_a                    10.656582
_cell_length_b                    10.83401
_cell_length_c                    9.624849
_cell_angle_alpha                 89.909587
_cell_angle_beta                  91.196947
_cell_angle_gamma                 95.887103
_cell_volume                      1105.12062121

loop_
_atom_site_label
_atom_site_type_symbol
_atom_type_description
_atom_site_fract_x
_atom_site_fract_y
_atom_site_fract_z
_atom_type_partial_charge
C1    C     C_R   0.505706 0.262594 0.501292 0.776336
C2    C     C_3   0.968342 0.569354 0.394910 0.322299
C3    C     C_3   0.028773 0.447964 0.379354 0.482365
C4    C     C_3   0.122942 0.490693 0.496687 -0.204388
C5    C     C_R   0.540644 0.113278 0.764040 -0.298167
C6    C     C_R   0.511889 0.048778 0.888617 0.552734
C7    C     C_R   0.441565 0.933207 0.880726 -0.225751
C8    C     C_R   0.418290 0.874548 0.752740 -0.233703
C9    C     C_R   0.462078 0.932856 0.628867 0.088812
C10   C     C_R   0.503692 0.060150 0.633035 0.026375
C11   C     C_R   0.507898 0.127504 0.505657 -0.101807
C12   C     C_R   0.259437 0.492200 0.498670 0.893168
C13   C     C_R   0.497002 0.062956 0.379399 -0.209609
C14   C     C_R   0.485493 0.934801 0.377641 -0.211268
C15   C     C_R   0.471369 0.868304 0.501998 -0.081727
C16   C     C_R   0.652121 0.680786 0.155145 -0.087315
C17   C     C_R   0.708717 0.786192 0.095783 -0.275705
C18   C     C_R   0.708798 0.796498 0.954814 -0.273293
C19   C     C_R   0.655981 0.697752 0.868401 0.549231
C20   C     C_R   0.575630 0.594731 0.928681 0.068657
C21   C     C_R   0.575011 0.591009 0.078512 0.117650
C22   C     C_R   0.428512 0.413178 0.071981 -0.003721
C23   C     C_R   0.486894 0.735562 0.500045 0.829774
C24   C     C_R   0.428941 0.412829 0.924474 -0.059995
C25   C     C_R   0.741100 0.504288 0.501325 0.881942
C26   C     C_3   0.036714 0.424607 0.606597 -0.354842
C27   C     C_3   0.940338 0.381783 0.487660 -0.362945
C28   C     C_3   0.878635 0.504670 0.503701 -0.240390
C29   C     C_3   0.973468 0.545917 0.622259 0.483873
C30   C     C_3   0.060849 0.611483 0.513938 0.340846
Cu1   Cu    Cu3+1 0.499990 0.499990 0.640660 0.971163
Cu2   Cu    Cu3+1 0.500010 0.500010 0.359340 0.956763
H1    H     H_    0.887485 0.288283 0.478316 0.159648
H2    H     H_    0.365372 0.783884 0.752036 0.202963
H3    H     H_    0.369636 0.341778 0.125522 0.157899
H4    H     H_    0.672428 0.674736 0.262807 0.231971
H5    H     H_    0.760230 0.857384 0.159676 0.177914
H6    H     H_    0.762781 0.878631 0.916059 0.143228
H7    H     H_    0.370600 0.341132 0.868321 0.141016
H8    H     H_    0.499663 0.111687 0.281359 0.220338
H9    H     H_    0.595728 0.202072 0.771020 0.172959
N1    N     N_R   0.501210 0.501210 0.147910 -0.199511
N2    N     N_R   0.501250 0.501290 0.852040 -0.196772
O1    O     O_R   0.499990 0.319640 0.618810 -0.602875
O2    O     O_R   0.500000 0.319660 0.381240 -0.586472
O3    O     O_R   0.316850 0.499960 0.618770 -0.587559
O4    O     O_R   0.316860 0.499980 0.381190 -0.555898
O5    O     O_R   0.500000 0.680340 0.618760 -0.545883
O6    O     O_R   0.500010 0.680360 0.381190 -0.620751
O7    O     O_R   0.683140 0.500020 0.618810 -0.517000
O8    O     O_R   0.683150 0.500040 0.381230 -0.598916
H10   H     H_    0.410579 0.885557 0.974903 0.157299
H11   H     H_    0.488118 0.888021 0.278497 0.185522
O9    O     O_3   0.699336 0.690342 0.734462 -0.503920
C31   C     C_3   0.754091 0.802337 0.675217 -0.283087
H12   H     H_    0.850006 0.827492 0.719164 0.163830
H13   H     H_    0.695036 0.879650 0.688948 0.138461
H14   H     H_    0.762732 0.788007 0.561912 0.155698
H15   H     H_    0.069302 0.364197 0.690379 0.165138
O10   O     O_3   0.942750 0.605171 0.745719 -0.562351
C32   C     C_3   0.917898 0.517000 0.851820 -0.266014
H16   H     H_    0.006834 0.481501 0.888926 0.149942
H17   H     H_    0.847625 0.439176 0.817972 0.161513
H18   H     H_    0.877899 0.563091 0.941087 0.188717
O11   O     O_3   0.141159 0.723428 0.523332 -0.597460
C33   C     C_3   0.072306 0.821803 0.559500 -0.307346
H19   H     H_    0.056693 0.820528 0.673025 0.197726
H20   H     H_    0.982198 0.821191 0.498949 0.165134
H21   H     H_    0.129813 0.910221 0.535662 0.183416
O12   O     O_3   0.923322 0.644143 0.288531 -0.604765
C34   C     C_3   0.023401 0.688792 0.202630 -0.305214
H22   H     H_    0.063547 0.612018 0.148311 0.202841
H23   H     H_    0.098580 0.746405 0.261569 0.201945
H24   H     H_    0.986131 0.748877 0.121486 0.183016
O13   O     O_3   0.068029 0.396620 0.254871 -0.571553
C35   C     C_3   0.961381 0.344058 0.178866 -0.356367
H25   H     H_    0.890718 0.411659 0.161377 0.188851
H26   H     H_    0.917384 0.259501 0.231341 0.162632
H27   H     H_    0.992206 0.315200 0.075580 0.169236
O14   O     O_3   0.539879 0.099195 0.019663 -0.597419
C36   C     C_3   0.662673 0.162124 0.027910 -0.390772
H28   H     H_    0.662283 0.258996 0.989977 0.174742
H29   H     H_    0.732956 0.112698 0.971561 0.148140
H30   H     H_    0.693568 0.167428 0.138668 0.188807

loop_
_geom_bond_atom_site_label_1
_geom_bond_atom_site_label_2
_ccdc_geom_bond_type
C33   H20   S    
C31   H12   S    
C16   C21   A    
Cu2   O2    S    
C19   C20   A    
C1    C11   S    
C35   H27   S    
C20   N2    A    
C36   H28   S    
C7    C8    A    
C27   H1    S    
C25   C28   S    
C22   H3    S    
C26   C27   S    
Cu1   N2    S    
C28   C29   S    
C35   H26   S    
C7    H10   S    
C5    C6    A    
C23   O6    A    
C33   H21   S    
C24   H7    S    
C18   C19   A    
C32   H17   S    
C25   O7    A    
C13   H8    S    
C8    C9    A    
Cu1   O3    S    
O12   C34   S    
C4    C12   S    
C3    O13   S    
C9    C10   A    
C15   C23   S    
C33   H19   S    
C13   C14   A    
C12   O4    A    
C36   H29   S    
Cu1   O1    S    
C35   H25   S    
C12   O3    A    
C34   H23   S    
C16   C17   A    
C17   H5    S    
O10   C32   S    
C32   H18   S    
O13   C35   S    
C25   O8    A    
Cu2   O8    S    
C29   C30   S    
C1    O1    A    
C6    O14   S    
Cu1   Cu2   S    
C29   O10   S    
C17   C18   A    
C8    H2    S    
C19   O9    S    
Cu1   O5    S    
C31   H13   S    
Cu2   O4    S    
C22   C24   A    
Cu1   O7    S    
C3    C4    S    
C36   H30   S    
C26   H15   S    
C5    H9    S    
O9    C31   S    
C23   O5    A    
O14   C36   S    
C34   H24   S    
C4    C26   S    
C6    C7    A    
C2    C30   S    
C3    C27   S    
C2    C3    S    
C18   H6    S    
C5    C10   A    
C16   H4    S    
C11   C13   A    
C1    O2    A    
C22   N1    A    
C9    C15   A    
C32   H16   S    
Cu2   O6    S    
C30   O11   S    
C10   C11   A    
C21   N1    A    
C34   H22   S    
C14   H11   S    
C20   C21   A    
C26   C29   S    
O11   C33   S    
C31   H14   S    
C27   C28   S    
C24   N2    A    
Cu2   N1    S    
C14   C15   A    
C2    C28   S    
C2    O12   S    
C4    C30   S    
