data_mof_unit_11539.cif
_audit_creation_date              2012-12-10T17:38:48-0500
_audit_creation_method            fapswitch 2.2
_symmetry_space_group_name_H-M    P1
_symmetry_Int_Tables_number       1
_space_group_crystal_system       triclinic
_cell_length_a                    12.312931
_cell_length_b                    13.182665
_cell_length_c                    23.544685
_cell_angle_alpha                 77.694745
_cell_angle_beta                  101.203844
_cell_angle_gamma                 116.313021
_cell_volume                      3325.20701853

loop_
_atom_site_label
_atom_site_type_symbol
_atom_type_description
_atom_site_fract_x
_atom_site_fract_y
_atom_site_fract_z
_atom_type_partial_charge
C1    C     C_R   0.854669 0.286475 0.505411 0.775371
C2    C     C_R   0.943456 0.295222 0.049398 -0.224920
C3    C     C_R   0.941701 0.293193 0.990082 0.164073
C4    C     C_R   0.978454 0.396879 0.950494 -0.008650
C5    C     C_R   0.017852 0.501869 0.971838 -0.113246
C6    C     C_R   0.055753 0.606651 0.933249 -0.008592
C7    C     C_R   0.094770 0.710612 0.955691 0.164528
C8    C     C_R   0.094756 0.708892 0.015278 -0.225256
C9    C     C_R   0.976466 0.399553 0.890119 0.551727
C10   C     C_R   0.052862 0.603406 0.873481 0.553991
C11   C     C_R   0.087758 0.469702 0.772447 -0.102529
C12   C     C_R   0.999689 0.500241 0.609028 0.812065
C13   C     C_R   0.083576 0.469540 0.712965 -0.267882
C14   C     C_R   0.000041 0.500870 0.671886 -0.039621
C15   C     C_R   0.919776 0.532627 0.692021 0.117735
C16   C     C_R   0.924780 0.532042 0.752028 -0.157642
C17   C     C_R   0.008502 0.500928 0.792167 0.326327
C18   C     C_R   0.905778 0.488448 0.228105 -0.171290
C19   C     C_R   0.897961 0.486303 0.287006 0.128297
C20   C     C_R   0.001549 0.499046 0.328554 -0.108218
C21   C     C_R   0.109565 0.511931 0.310081 -0.231055
C22   C     C_R   0.116281 0.513302 0.251487 0.194243
C23   C     C_R   0.144953 0.713429 0.492125 0.805534
C24   C     C_R   0.013756 0.501749 0.210317 0.293423
C25   C     C_R   0.266354 0.031983 0.448150 -0.196094
C26   C     C_R   0.227018 0.835218 0.485610 -0.047866
C27   C     C_R   0.814453 0.088075 0.549427 -0.241844
C28   C     C_R   0.733496 0.981808 0.573256 -0.114280
C29   C     C_R   0.607947 0.947745 0.560549 0.164738
C30   C     C_R   0.561335 0.015761 0.515729 0.027673
C31   C     C_R   0.645137 0.125189 0.491982 -0.001189
C32   C     C_R   0.435300 0.981852 0.494726 0.046807
C33   C     C_R   0.392705 0.063303 0.461443 0.116366
C34   C     C_R   0.999848 0.499266 0.391079 0.818953
C35   C     C_R   0.477486 0.170519 0.438305 0.113599
C36   C     C_R   0.600703 0.195002 0.449247 -0.164022
C37   C     C_R   0.351875 0.867289 0.501089 -0.255807
C38   C     C_R   0.183908 0.918888 0.461639 -0.175136
C39   C     C_R   0.771320 0.163871 0.512592 -0.088283
C40   C     C_R   0.346227 0.327250 0.592646 -0.296798
C41   C     C_R   0.757695 0.645330 0.420745 0.385484
C42   C     C_R   0.659077 0.674772 0.403600 -0.288194
C43   C     C_R   0.556447 0.619255 0.433229 -0.211076
C44   C     C_R   0.550149 0.532630 0.480898 -0.006281
C45   C     C_R   0.055373 0.603765 0.113234 0.537617
C46   C     C_R   0.652697 0.504293 0.497076 0.257567
C47   C     C_R   0.446159 0.473483 0.513107 -0.030145
C48   C     C_R   0.446106 0.386426 0.560251 0.165436
C49   C     C_R   0.545992 0.359397 0.575137 -0.287716
C50   C     C_R   0.647123 0.417505 0.544617 -0.144847
C51   C     C_R   0.341547 0.497004 0.500941 0.015556
C52   C     C_R   0.246689 0.354746 0.578572 0.070704
C53   C     C_R   0.981301 0.400456 0.130024 0.537037
C54   C     C_R   0.981089 0.398406 0.070658 -0.028714
C55   C     C_R   0.018825 0.502034 0.031996 -0.018899
C56   C     C_R   0.056871 0.605769 0.053552 -0.029190
Cu1   Cu    Cu3+1 0.098270 0.475410 0.513370 0.934633
Cu2   Cu    Cu3+1 0.901730 0.524590 0.486630 0.968565
H1    H     H_    0.384271 0.801423 0.514695 0.162206
H2    H     H_    0.910620 0.114985 0.564705 0.163427
H3    H     H_    0.546716 0.293142 0.611342 0.159120
H4    H     H_    0.345346 0.260401 0.628737 0.145861
H5    H     H_    0.483613 0.646036 0.417722 0.146163
H6    H     H_    0.719385 0.391713 0.560452 0.209020
H7    H     H_    0.146247 0.444721 0.699235 0.171185
H8    H     H_    0.863381 0.556045 0.767551 0.142297
H9    H     H_    0.827372 0.478552 0.195771 0.141084
N1    N     N_R   0.017900 0.502109 0.149914 -0.464481
N2    N     N_R   0.013059 0.501314 0.853497 -0.481336
N3    N     N_R   0.246280 0.438190 0.533650 -0.180359
N4    N     N_R   0.754320 0.561190 0.466710 -0.199313
O1    O     O_R   0.972510 0.318130 0.516820 -0.580241
O2    O     O_2   0.944949 0.301827 0.167613 -0.545021
O3    O     O_2   0.937096 0.301596 0.867621 -0.497491
O4    O     O_2   0.089896 0.701083 0.835284 -0.498170
O5    O     O_R   0.806530 0.359650 0.494230 -0.612055
O6    O     O_R   0.082990 0.479200 0.593420 -0.592240
O7    O     O_R   0.917010 0.520720 0.570830 -0.566022
O8    O     O_R   0.193470 0.640350 0.505770 -0.595119
O9    O     O_R   0.027490 0.681870 0.483180 -0.558669
O10   O     O_R   0.082990 0.479280 0.429170 -0.596001
O11   O     O_R   0.917010 0.520800 0.406580 -0.529453
O12   O     O_2   0.090574 0.702362 0.134499 -0.542212
H10   H     H_    0.914597 0.214899 0.078735 0.187504
N5    N     N_3   0.784768 0.468651 0.304686 -0.556927
H11   H     H_    0.721559 0.470599 0.268183 0.217359
H12   H     H_    0.748505 0.386223 0.328029 0.216193
H13   H     H_    0.189842 0.521940 0.341176 0.175979
N6    N     N_3   0.227858 0.526340 0.234561 -0.588103
H14   H     H_    0.209656 0.455535 0.214945 0.234890
H15   H     H_    0.257956 0.599311 0.203299 0.238733
H16   H     H_    0.087366 0.896111 0.449918 0.154221
N7    N     N_3   0.441386 0.253753 0.400475 -0.590210
H17   H     H_    0.384561 0.217208 0.364265 0.224445
H18   H     H_    0.392980 0.276713 0.423415 0.226589
H19   H     H_    0.230513 0.093154 0.425475 0.139322
N8    N     N_3   0.534629 0.855679 0.600922 -0.604632
H20   H     H_    0.458778 0.866296 0.607162 0.237882
H21   H     H_    0.510704 0.777335 0.587271 0.216936
H22   H     H_    0.768771 0.929381 0.606176 0.157320
N9    N     N_3   0.902309 0.184942 0.970798 -0.507717
H23   H     H_    0.813634 0.133186 0.981446 0.222535
H24   H     H_    0.958946 0.146253 0.994011 0.219495
H25   H     H_    0.660934 0.270818 0.423889 0.181965
H26   H     H_    0.169245 0.309394 0.603391 0.124357
H27   H     H_    0.333447 0.561612 0.465960 0.121834
N10   N     N_3   0.862367 0.704042 0.389528 -0.515986
H28   H     H_    0.834417 0.691528 0.345727 0.220396
H29   H     H_    0.895151 0.791513 0.390994 0.178435
H30   H     H_    0.662247 0.741321 0.367024 0.153762
N11   N     N_3   0.134153 0.818793 0.918517 -0.507182
H31   H     H_    0.078570 0.858208 0.921552 0.222408
H32   H     H_    0.223431 0.870028 0.934358 0.221501
H33   H     H_    0.124479 0.789346 0.031330 0.186807
H34   H     H_    0.152971 0.445792 0.803335 0.149327
N12   N     N_3   0.833926 0.566494 0.652151 -0.568830
H35   H     H_    0.851812 0.649480 0.657348 0.225064
H36   H     H_    0.746557 0.512213 0.663818 0.219382

loop_
_geom_bond_atom_site_label_1
_geom_bond_atom_site_label_2
_ccdc_geom_bond_type
C55   C56   A    
C4    C9    A    
C17   N2    S    
N7    H17   S    
C50   H6    S    
C41   C42   A    
Cu1   O8    S    
C2    H10   S    
C19   C20   A    
C8    C56   A    
N8    H20   S    
Cu2   O5    S    
C7    C8    A    
C13   H7    S    
N5    H11   S    
N9    H23   S    
C18   C24   A    
C28   C29   A    
C9    N2    A    
C27   H2    S    
Cu2   O11   S    
C5    C6    A    
Cu2   N4    S    
C15   C16   A    
C38   H16   S    
C40   H4    S    
N12   H35   S    
C18   C19   A    
C23   C26   S    
C53   N1    A    
C35   C36   A    
C45   C56   A    
C7    N11   S    
C16   C17   A    
C12   O7    A    
N10   H28   S    
C51   N3    A    
C23   O9    A    
N6    H15   S    
C11   H34   S    
C44   C47   A    
C8    H33   S    
C41   N4    A    
C20   C34   S    
C28   H22   S    
N5    H12   S    
C21   H13   S    
N9    H24   S    
C21   C22   A    
N10   H29   S    
C45   O12   S    
N8    H21   S    
C44   C46   A    
C35   N7    S    
C1    O1    A    
C49   H3    S    
C43   H5    S    
Cu1   O6    S    
C2    C54   A    
C27   C39   A    
C1    C39   S    
C26   C38   A    
C47   C51   A    
C18   H9    S    
C53   C54   A    
C24   N1    S    
C43   C44   A    
C29   C30   A    
C25   C38   A    
C10   O4    S    
C47   C48   A    
C14   C15   A    
C12   O6    A    
C45   N1    A    
N11   H32   S    
C32   C37   A    
C46   N4    A    
C37   H1    S    
C48   C49   A    
C34   O10   A    
C12   C14   S    
C52   H26   S    
Cu1   N3    S    
C22   C24   A    
C16   H8    S    
C42   C43   A    
C3    C4    A    
C40   C48   A    
C54   C55   A    
C11   C17   A    
C41   N10   S    
N11   H31   S    
C15   N12   S    
C1    O5    A    
C5    C55   A    
C53   O2    S    
C4    C5    A    
C19   N5    S    
C6    C10   A    
C26   C37   A    
C6    C7    A    
Cu2   O9    S    
C46   C50   A    
C29   N8    S    
C36   H25   S    
C32   C33   A    
C2    C3    A    
C42   H30   S    
C40   C52   A    
C30   C32   A    
C11   C13   A    
C3    N9    S    
Cu1   Cu2   S    
C30   C31   A    
C51   H27   S    
C33   C35   A    
C22   N6    S    
N12   H36   S    
Cu1   O10   S    
Cu1   O1    S    
C52   N3    A    
Cu2   O7    S    
C10   N2    A    
C20   C21   A    
C25   H19   S    
N7    H18   S    
C49   C50   A    
C9    O3    S    
C27   C28   A    
C31   C39   A    
C31   C36   A    
C34   O11   A    
C23   O8    A    
N6    H14   S    
C13   C14   A    
C25   C33   A    
