data_mof_unit_19207.cif
_audit_creation_date              2013-03-05T16:18:42-0500
_audit_creation_method            fapswitch 2.2
_symmetry_space_group_name_H-M    P1
_symmetry_Int_Tables_number       1
_space_group_crystal_system       triclinic
_cell_length_a                    15.687963
_cell_length_b                    10.849615
_cell_length_c                    9.938268
_cell_angle_alpha                 86.717265
_cell_angle_beta                  89.49846
_cell_angle_gamma                 90.530593
_cell_volume                      1688.65517132

loop_
_atom_site_label
_atom_site_type_symbol
_atom_site_description
_atom_site_fract_x
_atom_site_fract_y
_atom_site_fract_z
_atom_type_partial_charge
O1    O     O_R   0.499980 0.314910 0.616040 -0.570664
O2    O     O_R   0.500040 0.314680 0.383960 -0.659998
C1    C     C_R   0.506131 0.259886 0.502466 0.947110
O3    O     O_R   0.376750 0.500100 0.616020 -0.573749
O4    O     O_R   0.376810 0.499870 0.383940 -0.538731
C2    C     C_R   0.338546 0.498481 0.500488 0.982948
Zn1   Zn    Zn3+2 0.499960 0.500150 0.654960 1.043390
Zn2   Zn    Zn3+2 0.500040 0.499850 0.345040 1.081102
O5    O     O_R   0.499960 0.685320 0.616040 -0.629835
O6    O     O_R   0.500020 0.685090 0.383960 -0.494545
O7    O     O_R   0.623190 0.500130 0.616060 -0.634966
O8    O     O_R   0.623250 0.499900 0.383980 -0.592626
C3    C     C_R   0.500040 0.743289 0.497505 0.927936
C4    C     C_R   0.661519 0.499701 0.499585 0.890407
C5    C     C_3   0.970014 0.375252 0.496897 0.409981
C6    C     C_3   0.027211 0.441079 0.389148 0.207078
H1    H     H_    0.949841 0.612858 0.299228 0.200480
C7    C     C_1   0.249733 0.494937 0.501081 0.012070
C8    C     C_1   0.750388 0.497420 0.498753 -0.099479
C9    C     C_3   0.025356 0.425011 0.608309 0.185076
C10   C     C_3   0.083632 0.489089 0.500470 -0.091016
C11   C     C_3   0.971130 0.542282 0.612753 -0.232271
C12   C     C_3   0.916515 0.492516 0.499202 0.028257
C13   C     C_3   0.029900 0.607420 0.502894 -0.208389
C14   C     C_3   0.973085 0.558563 0.389412 -0.212980
C15   C     C_1   0.174460 0.491703 0.500889 0.134091
C16   C     C_1   0.825695 0.495050 0.498701 0.090038
H2    H     H_    0.056229 0.702590 0.505439 0.199946
H3    H     H_    0.946204 0.583440 0.704780 0.200450
C17   C     C_3   0.533794 0.066487 0.642538 0.099582
H4    H     H_    0.481871 0.087311 0.713444 0.184730
C18   C     C_3   0.539773 0.925915 0.634207 0.041139
H5    H     H_    0.608279 0.899422 0.632550 0.161538
H6    H     H_    0.372694 0.920749 0.579389 0.206032
C19   C     C_3   0.415906 0.081301 0.461769 0.034469
C20   C     C_3   0.570947 0.083061 0.395664 -0.492378
C21   C     C_3   0.507195 0.125512 0.503809 -0.244294
H7    H     H_    0.558432 0.132289 0.296561 0.228090
H8    H     H_    0.637705 0.109021 0.415226 0.235952
C22   C     C_3   0.499894 0.882581 0.496285 -0.302917
C23   C     C_3   0.407317 0.939091 0.484443 0.116050
C24   C     C_3   0.562535 0.942202 0.383135 0.141575
H9    H     H_    0.626688 0.901159 0.400469 0.134574
H10   H     H_    0.410801 0.106586 0.352185 0.215969
C25   C     C_3   0.492713 0.372403 0.091721 -0.526981
H11   H     H_    0.439254 0.322418 0.142663 0.249106
H12   H     H_    0.548003 0.317991 0.130594 0.161915
C26   C     C_3   0.493387 0.368696 0.930400 0.466234
H13   H     H_    0.551860 0.319548 0.901501 0.132844
C27   C     C_3   0.425246 0.574324 0.074900 0.622003
C28   C     C_3   0.581678 0.547617 0.070680 0.182824
N1    N     N_3   0.498170 0.499750 0.138610 -0.165418
H14   H     H_    0.633387 0.481837 0.100341 0.119679
N2    N     N_3   0.498850 0.496730 0.861320 -0.154099
C29   C     C_3   0.424877 0.566507 0.912279 0.303036
C30   C     C_3   0.577661 0.551331 0.910756 -0.533321
H15   H     H_    0.633591 0.501191 0.872500 0.204267
H16   H     H_    0.583714 0.645191 0.862427 0.274415
H17   H     H_    0.431666 0.659774 0.863495 0.146999
N3    N     N_R   0.056516 0.386711 0.266434 0.223998
O9    O     O_R   0.001267 0.351441 0.179406 -0.295939
O10   O     O_R   0.137417 0.372216 0.243524 -0.272554
N4    N     N_R   0.503584 0.870285 0.760264 0.193608
O11   O     O_R   0.421794 0.869753 0.780590 -0.522352
O12   O     O_R   0.552305 0.864289 0.865426 -0.307879
N5    N     N_R   0.345509 0.144694 0.526910 0.212342
O13   O     O_R   0.328524 0.124829 0.654443 -0.369425
O14   O     O_R   0.294039 0.212992 0.453494 -0.338672
N6    N     N_R   0.539216 0.922426 0.243858 0.282723
O15   O     O_R   0.601201 0.923289 0.156206 -0.246912
O16   O     O_R   0.466801 0.964104 0.200542 -0.451399
N7    N     N_R   0.351087 0.884780 0.385891 0.228349
O17   O     O_R   0.330993 0.768436 0.402769 -0.409709
O18   O     O_R   0.299278 0.955587 0.315649 -0.347677
O19   O     O_3   0.931368 0.257659 0.491029 -0.574704
C31   C     C_3   0.994045 0.165464 0.500300 -0.081378
H18   H     H_    0.018534 0.153513 0.604553 0.195272
H19   H     H_    0.047581 0.184049 0.427748 0.179174
H20   H     H_    0.964218 0.076518 0.475769 0.191632
O20   O     O_3   0.422486 0.301361 0.882610 -0.494412
C32   C     C_3   0.416147 0.180877 0.945935 -0.090822
H21   H     H_    0.373499 0.180777 0.035520 0.200320
H22   H     H_    0.478780 0.140240 0.974235 0.172072
H23   H     H_    0.384966 0.118168 0.877893 0.228561
N8    N     N_R   0.341244 0.528687 0.131177 0.223090
O21   O     O_R   0.312684 0.418606 0.109707 -0.301675
O22   O     O_R   0.289156 0.601716 0.190063 -0.355613
O23   O     O_3   0.348388 0.508857 0.868968 -0.499169
C33   C     C_3   0.281869 0.591612 0.834865 -0.109613
H24   H     H_    0.304020 0.674989 0.773653 0.138469
H25   H     H_    0.245592 0.615149 0.925835 0.187388
H26   H     H_    0.235429 0.543341 0.772724 0.202076
N9    N     N_R   0.613992 0.668065 0.111286 0.296870
O24   O     O_R   0.663712 0.732137 0.027494 -0.298995
O25   O     O_R   0.626553 0.685558 0.236929 -0.339225
O26   O     O_3   0.439300 0.699186 0.109274 -0.599391
C34   C     C_3   0.378097 0.785754 0.060465 0.067652
H27   H     H_    0.338136 0.814591 0.143942 0.253944
H28   H     H_    0.334725 0.754588 0.984096 0.057793
H29   H     H_    0.411110 0.868637 0.016621 0.246297
N10   N     N_R   0.052834 0.353907 0.728818 0.214735
O27   O     O_R   0.996430 0.310841 0.816378 -0.292009
O28   O     O_R   0.133212 0.332358 0.749327 -0.326564
N11   N     N_R   0.613512 0.116169 0.696951 0.223712
O29   O     O_R   0.616441 0.136696 0.824327 -0.359803
O30   O     O_R   0.685516 0.110476 0.631912 -0.378908

loop_
_geom_bond_atom_site_label_1
_geom_bond_atom_site_label_2
_geom_bond_distance
_ccdc_geom_bond_type
N5    O14   1.301122 A    
C10   C15   1.424975 S    
N4    O12   1.299175 A    
C6    C10   1.534083 S    
C11   H3    1.110193 S    
C29   H17   1.100590 S    
C20   C24   1.544941 S    
C7    C15   1.181096 T    
C31   H20   1.109173 S    
C32   H23   1.100806 S    
N11   O30   1.300264 A    
C34   H27   1.097002 S    
N8    O21   1.301412 A    
C26   N2    1.515213 S    
N9    O24   1.302839 A    
C20   C21   1.553690 S    
C19   C21   1.573644 S    
C31   H19   1.111542 S    
C17   H4    1.105777 S    
O7    C4    1.300004 A    
C5    C6    1.531544 S    
C30   H15   1.112230 S    
N3    O10   1.300043 A    
C28   C30   1.589383 S    
C6    N3    1.457475 S    
C29   O23   1.429107 S    
N6    O16   1.294678 A    
O5    C3    1.303244 A    
N9    O25   1.290265 A    
C3    C22   1.510644 S    
C27   N8    1.495974 S    
C34   H28   1.089727 S    
C27   N1    1.528229 S    
C12   C16   1.425347 S    
C33   H25   1.107519 S    
C8    C16   1.181923 T    
Zn2   N1    2.052085 S    
O23   C33   1.413767 S    
C5    C12   1.531790 S    
N5    O13   1.298320 A    
N10   O28   1.300274 A    
H6    C23   1.092030 S    
O3    Zn1   1.974596 S    
N11   O29   1.298977 A    
C32   H22   1.112477 S    
C32   H21   1.108955 S    
C25   H12   1.113267 S    
C5    C9    1.532256 S    
C2    C7    1.393421 S    
N2    C30   1.466754 S    
N8    O22   1.301822 A    
C28   N1    1.540622 S    
N10   O27   1.300318 A    
C13   C14   1.557151 S    
N7    O18   1.303140 A    
O20   C32   1.420226 S    
C9    N10   1.457650 S    
C19   N5    1.471181 S    
C25   H11   1.098387 S    
C24   N6    1.461925 S    
C17   C21   1.548877 S    
N3    O9    1.300243 A    
C28   H14   1.115858 S    
Zn1   O7    1.968187 S    
O19   C31   1.408945 S    
Zn2   O8    1.974596 S    
O26   C34   1.418460 S    
C31   H18   1.109244 S    
C33   H26   1.106489 S    
C19   H10   1.111514 S    
C28   N9    1.476255 S    
C23   N7    1.468430 S    
O3    C2    1.300771 A    
C26   H13   1.109181 S    
O8    C4    1.300864 A    
C11   C13   1.556767 S    
C24   H9    1.115090 S    
C34   H29   1.099676 S    
C5    O19   1.411934 S    
C25   C26   1.606003 S    
C6    C14   1.538234 S    
Zn1   O5    2.024053 S    
N2    C29   1.492058 S    
C22   C23   1.584381 S    
O1    Zn1   2.068304 S    
C4    C8    1.394596 S    
C20   H8    1.103778 S    
O2    Zn2   2.024054 S    
C13   H2    1.110265 S    
C18   N4    1.466523 S    
C9    C11   1.539580 S    
N7    O17   1.299363 A    
O6    C3    1.324268 A    
O4    Zn2   1.968187 S    
C27   C29   1.623297 S    
C25   N1    1.485167 S    
H1    C14   1.110189 S    
C18   H5    1.115283 S    
C26   O20   1.424938 S    
C20   H7    1.113086 S    
O2    C1    1.293242 A    
C17   C18   1.535812 S    
C27   O26   1.431537 S    
O4    C2    1.299175 A    
C22   C24   1.591931 S    
C30   H16   1.103690 S    
C18   C22   1.604575 S    
N6    O15   1.299452 A    
C19   C23   1.550925 S    
N4    O11   1.297090 A    
C12   C14   1.540569 S    
C9    C10   1.534117 S    
C1    C21   1.457459 S    
Zn2   O6    2.068304 S    
C10   C13   1.543580 S    
C17   N11   1.476396 S    
C11   C12   1.541842 S    
Zn1   N2    2.048989 S    
O1    C1    1.309985 A    
C33   H24   1.112024 S    
