data_mof_unit_8939.cif
_audit_creation_date              2012-12-10T17:42:44-0500
_audit_creation_method            fapswitch 2.2
_symmetry_space_group_name_H-M    P1
_symmetry_Int_Tables_number       1
_space_group_crystal_system       triclinic
_cell_length_a                    9.892534
_cell_length_b                    10.678671
_cell_length_c                    13.138013
_cell_angle_alpha                 90.963376
_cell_angle_beta                  70.137008
_cell_angle_gamma                 89.241881
_cell_volume                      1304.87017659

loop_
_atom_site_label
_atom_site_type_symbol
_atom_type_description
_atom_site_fract_x
_atom_site_fract_y
_atom_site_fract_z
_atom_type_partial_charge
C1    C     C_R   0.503219 0.739407 0.488726 0.894647
C2    C     C_R   0.369288 0.480544 0.821023 -0.116812
C3    C     C_R   0.254975 0.895602 0.462961 0.191785
C4    C     C_R   0.420521 0.492848 0.703734 0.837945
C5    C     C_R   0.119744 0.953451 0.509875 -0.156208
C6    C     C_R   0.103949 0.059631 0.575965 -0.204140
C7    C     C_R   0.225617 0.116273 0.584900 -0.161862
C8    C     C_R   0.363833 0.062338 0.532241 0.073978
C9    C     C_R   0.374695 0.941216 0.488200 0.048214
C10   C     C_R   0.504141 0.872871 0.474346 -0.107229
C11   C     C_R   0.629027 0.934587 0.471483 -0.211572
C12   C     C_R   0.432027 0.469275 0.983604 0.081799
C13   C     C_R   0.624575 0.061622 0.488527 -0.215923
C14   C     C_R   0.492883 0.126392 0.517603 -0.117500
C15   C     C_R   0.795589 0.665574 0.641444 -0.147170
C16   C     C_R   0.496332 0.260310 0.509390 0.869831
C17   C     C_R   0.834093 0.744253 0.712115 -0.198755
C18   C     C_R   0.973314 0.741176 0.713438 -0.194821
C19   C     C_R   0.075154 0.660189 0.643386 -0.163100
C20   C     C_R   0.040061 0.579578 0.570524 0.172849
C21   C     C_R   0.895611 0.580813 0.569932 0.174325
C22   C     C_R   0.959762 0.423033 0.433026 -0.135252
C23   C     C_R   0.463567 0.437438 0.873552 0.088595
C24   C     C_R   0.103066 0.423286 0.432866 -0.090535
C25   C     C_R   0.579842 0.498740 0.295822 0.896828
C26   C     C_R   0.781000 0.375222 0.015669 -0.196317
C27   C     C_R   0.628094 0.480623 0.179048 -0.060532
C28   C     C_R   0.231637 0.526830 0.881960 -0.207761
C29   C     C_R   0.191417 0.538863 0.993695 -0.139350
C30   C     C_R   0.291305 0.513754 0.044324 -0.180798
C31   C     C_R   0.542656 0.455430 0.028268 0.074378
C32   C     C_R   0.673292 0.391535 0.969343 0.180807
C33   C     C_R   0.692991 0.343179 0.866127 -0.249613
C34   C     C_R   0.589240 0.365352 0.818793 -0.197728
C35   C     C_R   0.527822 0.506568 0.129354 -0.243989
C36   C     C_R   0.757271 0.417700 0.121497 -0.204627
H1    H     H_    0.836090 0.396631 0.159582 0.154072
H2    H     H_    0.254411 0.526757 0.131155 0.149308
H3    H     H_    0.084465 0.573005 0.040804 0.153904
H4    H     H_    0.607813 0.323942 0.739383 0.170562
H5    H     H_    0.730160 0.884668 0.457162 0.174308
H6    H     H_    0.998771 0.102819 0.614242 0.146450
H7    H     H_    0.210871 0.201839 0.633100 0.156932
H8    H     H_    0.789619 0.290039 0.821197 0.142153
H9    H     H_    0.182587 0.360609 0.378058 0.156250
H10   H     H_    0.880717 0.325769 0.971674 0.139998
H11   H     H_    0.435509 0.564024 0.173137 0.180735
H12   H     H_    0.027509 0.918216 0.492603 0.160331
H13   H     H_    0.724416 0.108776 0.478721 0.168799
H14   H     H_    0.931337 0.360204 0.378394 0.142897
H15   H     H_    0.686727 0.674991 0.645748 0.208675
H16   H     H_    0.755164 0.808160 0.766167 0.155107
H17   H     H_    0.003064 0.802612 0.768413 0.155230
H18   H     H_    0.180261 0.663697 0.648178 0.205645
H19   H     H_    0.156603 0.557065 0.843054 0.158183
I1    I     I_    0.276599 0.776568 0.326778 -0.425758
N1    N     N_R   0.856860 0.501200 0.500990 -0.118597
N2    N     N_R   0.142450 0.501280 0.501020 -0.113170
O1    O     O_R   0.385310 0.683220 0.500000 -0.615117
O2    O     O_R   0.614640 0.683250 0.500010 -0.639732
O3    O     O_R   0.328400 0.499950 0.653610 -0.641268
O4    O     O_R   0.557730 0.499970 0.653620 -0.631150
O5    O     O_R   0.385360 0.316750 0.499990 -0.616041
O6    O     O_R   0.614690 0.316780 0.500000 -0.626768
O7    O     O_R   0.442270 0.500030 0.346380 -0.593863
O8    O     O_R   0.671600 0.500050 0.346390 -0.613727
Zn1   Zn    Zn3+2 0.346880 0.499980 0.499990 0.942913
Zn2   Zn    Zn3+2 0.653120 0.500020 0.500010 0.928354

loop_
_geom_bond_atom_site_label_1
_geom_bond_atom_site_label_2
_ccdc_geom_bond_type
C36   H1    S    
O8    Zn2   S    
C22   C24   A    
C21   N1    A    
C6    C7    A    
C3    C9    A    
C16   O5    A    
C7    H7    S    
C27   C36   A    
C25   C27   S    
C2    C28   A    
C9    C10   A    
O3    Zn1   S    
C2    C4    S    
C19   C20   A    
O4    Zn2   S    
C22   H14   S    
C23   C34   A    
C35   H11   S    
C32   C33   A    
C29   H3    S    
C22   N1    A    
C17   C18   A    
C3    C5    A    
C7    C8    A    
C13   C14   A    
C26   C32   A    
C11   C13   A    
C12   C23   A    
C30   H2    S    
C29   C30   A    
C27   C35   A    
C17   H16   S    
C13   H13   S    
C24   H9    S    
O6    Zn2   S    
C19   H18   S    
C26   C36   A    
C28   C29   A    
C28   H19   S    
C33   C34   A    
C15   H15   S    
C1    O1    A    
C12   C31   A    
C5    C6    A    
C5    H12   S    
O5    Zn1   S    
C1    O2    A    
C10   C11   A    
C26   H10   S    
N1    Zn2   S    
C20   N2    A    
C3    I1    S    
C4    O4    A    
N2    Zn1   S    
C15   C21   A    
C25   O7    A    
C20   C21   A    
O2    Zn2   S    
C24   N2    A    
C18   C19   A    
C6    H6    S    
C11   H5    S    
C2    C23   A    
C15   C17   A    
C31   C35   A    
C34   H4    S    
C8    C14   A    
C16   O6    A    
C18   H17   S    
O1    Zn1   S    
C14   C16   S    
C33   H8    S    
C12   C30   A    
C4    O3    A    
C25   O8    A    
C31   C32   A    
C1    C10   S    
C8    C9    A    
O7    Zn1   S    
