data_mof_unit_65503.cif
_audit_creation_date              2012-10-26T17:28:00-0400
_audit_creation_method            fapswitch 2.2
_symmetry_space_group_name_H-M    P1
_symmetry_Int_Tables_number       1
_space_group_crystal_system       triclinic
_cell_length_a                    18.874248
_cell_length_b                    18.70418
_cell_length_c                    18.757234
_cell_angle_alpha                 109.098391
_cell_angle_beta                  110.042661
_cell_angle_gamma                 109.333328
_cell_volume                      5093.37155504

loop_
_atom_site_label
_atom_site_type_symbol
_atom_type_description
_atom_site_fract_x
_atom_site_fract_y
_atom_site_fract_z
_atom_type_partial_charge
C1    C     C_R   0.618444 0.619091 0.499903 0.551209
C2    C     C_R   0.826513 0.749962 0.514011 0.027327
C3    C     C_3   0.844614 0.686332 0.461736 -0.276780
C4    C     C_R   0.380382 0.499624 0.380206 0.551331
C5    C     C_3   0.773381 0.615234 0.459183 -0.269392
C6    C     C_R   0.754926 0.495097 0.681069 0.019927
C7    C     C_R   0.685807 0.500655 0.687751 0.017250
C8    C     C_R   0.683077 0.507362 0.763869 -0.156648
C9    C     C_R   0.748096 0.506545 0.828842 -0.154256
C10   C     C_R   0.817799 0.501997 0.819465 0.020560
C11   C     C_R   0.818770 0.497551 0.744676 0.014477
C12   C     C_3   0.180577 0.418834 0.201671 -0.121386
C13   C     C_3   0.866755 0.489341 0.696681 -0.273213
C14   C     C_3   0.794376 0.487625 0.624427 -0.271324
C15   C     C_R   0.316509 0.241842 0.497414 0.017261
C16   C     C_R   0.381128 0.381217 0.499618 0.550784
C17   C     C_R   0.313264 0.314961 0.498032 0.019130
C18   C     C_R   0.241695 0.323042 0.498693 -0.155603
C19   C     C_R   0.176389 0.257815 0.497961 -0.155336
C20   C     C_R   0.183810 0.185661 0.499647 0.019736
C21   C     C_R   0.255778 0.181183 0.500108 0.018364
C22   C     C_3   0.299538 0.128036 0.501070 -0.273219
C23   C     C_3   0.222289 0.477606 0.301284 -0.115887
C24   C     C_3   0.369478 0.197886 0.498980 -0.271200
C25   C     C_R   0.003619 0.619081 0.122069 0.550306
C26   C     C_R   0.123236 0.499513 0.123030 0.550996
C27   C     C_R   0.004340 0.381283 0.885799 0.550754
C28   C     C_R   0.619543 0.500249 0.619881 0.553486
C29   C     C_R   0.884515 0.500377 0.884550 0.552532
C30   C     C_R   0.999624 0.118943 0.618111 0.551068
C31   C     C_R   0.881443 0.881264 0.500324 0.548399
C32   C     C_R   0.000846 0.881380 0.381802 0.547600
C33   C     C_R   0.118401 0.118680 0.499829 0.551256
C34   C     C_3   0.312169 0.498803 0.311567 0.046632
C35   C     C_R   0.927742 0.690831 0.171498 0.013678
C36   C     C_R   0.003927 0.687353 0.187221 0.019673
C37   C     C_R   0.082718 0.756396 0.262869 -0.155428
C38   C     C_R   0.082247 0.820764 0.327010 -0.157373
C39   C     C_R   0.003250 0.817872 0.314302 0.015109
C40   C     C_3   0.322526 0.578688 0.300485 -0.117461
C41   C     C_R   0.927573 0.755665 0.233594 0.029386
C42   C     C_3   0.840066 0.694311 0.213891 -0.273260
C43   C     C_3   0.840461 0.623026 0.145704 -0.272850
C44   C     C_R   0.927735 0.245869 0.744944 0.015051
C45   C     C_R   0.761957 0.685292 0.511909 0.014030
C46   C     C_R   0.004534 0.315194 0.819635 0.019651
C47   C     C_R   0.083267 0.320343 0.827224 -0.155749
C48   C     C_R   0.082003 0.255477 0.761093 -0.154544
C49   C     C_R   0.002146 0.186744 0.685476 0.018333
C50   C     C_R   0.926679 0.185668 0.680074 0.017677
C51   C     C_3   0.830021 0.136302 0.625105 -0.272038
C52   C     C_3   0.231561 0.557520 0.289113 -0.114579
C53   C     C_3   0.831316 0.205803 0.698723 -0.272191
C54   C     C_3   0.190941 0.498774 0.190622 0.045756
C55   C     C_3   0.280858 0.519927 0.200913 -0.123268
C56   C     C_R   0.686232 0.687359 0.502664 0.017499
C57   C     C_3   0.271491 0.440008 0.212974 -0.125082
C58   C     C_R   0.680426 0.760981 0.504686 -0.154642
C59   C     C_R   0.744498 0.825102 0.503941 -0.156139
C60   C     C_R   0.816118 0.817311 0.504265 0.017784
Cu1   Cu    Cu3+1 0.500490 0.438210 0.438660 0.912143
Cu2   Cu    Cu3+1 0.499510 0.561790 0.561340 0.925492
Cu3   Cu    Cu3+1 0.942090 0.438240 0.003860 0.916107
Cu4   Cu    Cu3+1 0.065700 0.561800 0.003830 0.924048
Cu5   Cu    Cu3+1 0.937720 0.000020 0.437750 0.922631
Cu6   Cu    Cu3+1 0.062280 0.000080 0.562350 0.922871
H1    H     H_    0.213857 0.605637 0.318949 0.105220
H2    H     H_    0.753160 0.424030 0.562381 0.142267
H3    H     H_    0.235814 0.378739 0.498757 0.124055
H4    H     H_    0.382000 0.644154 0.342224 0.108058
H5    H     H_    0.121447 0.264497 0.497667 0.126479
H6    H     H_    0.323683 0.126675 0.563353 0.144034
H7    H     H_    0.260455 0.063313 0.440430 0.132933
H8    H     H_    0.433789 0.237211 0.560313 0.135073
H9    H     H_    0.371229 0.173351 0.437396 0.146220
H10   H     H_    0.143666 0.758059 0.274199 0.119430
H11   H     H_    0.142890 0.871354 0.386910 0.124374
H12   H     H_    0.910565 0.697086 0.500362 0.142326
H13   H     H_    0.842348 0.684140 0.269623 0.123591
H14   H     H_    0.790001 0.710896 0.185033 0.143637
H15   H     H_    0.843095 0.571544 0.161989 0.149295
H16   H     H_    0.303737 0.537221 0.158574 0.118485
H17   H     H_    0.790657 0.598567 0.077560 0.131899
H18   H     H_    0.145086 0.373325 0.884301 0.123228
H19   H     H_    0.142953 0.259576 0.768523 0.128629
H20   H     H_    0.807052 0.138420 0.563171 0.142734
H21   H     H_    0.801201 0.070272 0.617954 0.132149
H22   H     H_    0.809863 0.248559 0.679522 0.131352
H23   H     H_    0.715622 0.568407 0.392480 0.149379
H24   H     H_    0.802563 0.179731 0.733549 0.146843
H25   H     H_    0.288854 0.391776 0.182659 0.124694
H26   H     H_    0.121231 0.353279 0.159986 0.122588
H27   H     H_    0.199615 0.460225 0.343705 0.109829
H28   H     H_    0.624480 0.766622 0.502406 0.122042
H29   H     H_    0.737372 0.879521 0.501453 0.120761
H30   H     H_    0.828279 0.680640 0.396562 0.123571
H31   H     H_    0.798304 0.584903 0.496148 0.129026
H32   H     H_    0.630369 0.511603 0.772321 0.127952
H33   H     H_    0.744492 0.510428 0.886299 0.120545
H34   H     H_    0.931401 0.548752 0.730707 0.147877
H35   H     H_    0.866765 0.426442 0.676571 0.131175
H36   H     H_    0.817138 0.546443 0.617320 0.131956
O1    O     O_R   0.590590 0.537990 0.448210 -0.514809
O2    O     O_R   0.051820 0.090220 0.642110 -0.511455
O3    O     O_R   0.857230 0.909860 0.447430 -0.516216
O4    O     O_R   0.589760 0.642350 0.551800 -0.509275
O5    O     O_R   0.962420 0.909900 0.552660 -0.503060
O6    O     O_R   0.948170 0.909880 0.357990 -0.503681
O7    O     O_R   0.053360 0.909920 0.463210 -0.516984
O8    O     O_R   0.037580 0.090200 0.447440 -0.510899
O9    O     O_R   0.142770 0.090240 0.552670 -0.512842
O10   O     O_R   0.409550 0.447830 0.357350 -0.514063
O11   O     O_R   0.408710 0.552190 0.460940 -0.514889
O12   O     O_R   0.055390 0.642370 0.093330 -0.508228
O13   O     O_R   0.410240 0.357650 0.448200 -0.508525
O14   O     O_R   0.409410 0.462010 0.551790 -0.514787
O15   O     O_R   0.591290 0.447810 0.539060 -0.512574
O16   O     O_R   0.590450 0.552170 0.642650 -0.509005
O17   O     O_R   0.951010 0.538020 0.093350 -0.515027
O18   O     O_R   0.042570 0.447840 0.094710 -0.512055
O19   O     O_R   0.146960 0.552180 0.094690 -0.516517
O20   O     O_R   0.952400 0.357670 0.914360 -0.508409
O21   O     O_R   0.056780 0.462020 0.914330 -0.514916
O22   O     O_R   0.860840 0.447860 0.913000 -0.515700
O23   O     O_R   0.965220 0.552200 0.912980 -0.505419
O24   O     O_R   0.946640 0.090180 0.536890 -0.512824

loop_
_geom_bond_atom_site_label_1
_geom_bond_atom_site_label_2
_ccdc_geom_bond_type
C30   O24   A    
C42   H14   S    
C29   O23   A    
C43   H17   S    
C41   C42   S    
C19   H5    S    
C35   C36   A    
Cu6   O5    S    
Cu3   O22   S    
C7    C8    A    
C39   C41   A    
C12   C23   S    
C40   H4    S    
C34   C40   S    
C36   C37   A    
Cu1   O1    S    
C1    C56   S    
C26   O18   A    
Cu1   O10   S    
C28   O15   A    
C38   C39   A    
C2    C60   A    
C14   H36   S    
Cu4   O19   S    
C29   O22   A    
C16   O14   A    
C18   C19   A    
C32   C39   S    
Cu5   O3    S    
C49   C50   A    
C8    H32   S    
C46   C47   A    
C44   C53   S    
C19   C20   A    
C45   C56   A    
C52   C54   S    
C8    C9    A    
Cu1   O13   S    
C34   C57   S    
C3    H30   S    
C33   O9    A    
C26   O19   A    
Cu6   O9    S    
C35   C43   S    
C9    C10   A    
C1    O1    A    
Cu5   O6    S    
C1    O4    A    
C23   C34   S    
C18   H3    S    
C4    O10   A    
C59   C60   A    
C9    H33   S    
C21   C22   S    
C31   O3    A    
C59   H29   S    
C26   C54   S    
C51   H20   S    
C22   H6    S    
C42   H13   S    
C27   O20   A    
C44   C46   A    
C50   C51   S    
C2    C45   A    
C4    C34   S    
Cu4   O12   S    
C32   O7    A    
Cu1   O15   S    
Cu6   O2    S    
C4    O11   A    
Cu2   O11   S    
C51   H21   S    
C6    C11   A    
C27   O21   A    
C16   C17   S    
C58   C59   A    
C40   C52   S    
C5    C45   S    
C7    C28   S    
C23   H27   S    
C51   C53   S    
C31   C60   S    
Cu2   O14   S    
C37   C38   A    
C6    C14   S    
Cu3   O17   S    
C47   C48   A    
C40   C55   S    
C17   C18   A    
C47   H18   S    
C55   H16   S    
C52   H1    S    
C37   H10   S    
C20   C33   S    
C27   C46   S    
C48   C49   A    
C30   C49   S    
C5    H31   S    
Cu5   Cu6   S    
C55   C57   S    
C43   H15   S    
C22   C24   S    
C42   C43   S    
C12   C57   S    
C13   H35   S    
C16   O13   A    
Cu3   O20   S    
C44   C50   A    
C15   C17   A    
C54   C55   S    
C15   C24   S    
C57   H25   S    
C31   O5    A    
C12   H26   S    
C3    C5    S    
C24   H9    S    
C6    C7    A    
Cu2   O4    S    
C38   H11   S    
Cu4   O21   S    
C25   O17   A    
Cu5   O24   S    
C13   H34   S    
C2    C3    S    
C58   H28   S    
C28   O16   A    
C25   O12   A    
Cu3   O18   S    
C11   C13   S    
C10   C29   S    
C24   H8    S    
C23   C52   S    
C56   C58   A    
C53   H22   S    
Cu6   O7    S    
Cu1   Cu2   S    
C35   C41   A    
C12   C54   S    
Cu5   O8    S    
Cu2   O16   S    
C10   C11   A    
C25   C36   S    
Cu3   Cu4   S    
C15   C21   A    
C20   C21   A    
Cu4   O23   S    
C32   O6    A    
C30   O2    A    
C53   H24   S    
C14   H2    S    
C48   H19   S    
C33   O8    A    
C22   H7    S    
C13   C14   S    
C3    H12   S    
C5    H23   S    
