data_mof_unit_38807.cif
_audit_creation_date              2012-12-11T16:26:26-0500
_audit_creation_method            fapswitch 2.2
_symmetry_space_group_name_H-M    P1
_symmetry_Int_Tables_number       1
_space_group_crystal_system       triclinic
_cell_length_a                    14.054326
_cell_length_b                    14.011932
_cell_length_c                    31.687013
_cell_angle_alpha                 89.680169
_cell_angle_beta                  89.938879
_cell_angle_gamma                 120.089535
_cell_volume                      5399.03749598

loop_
_atom_site_label
_atom_site_type_symbol
_atom_type_description
_atom_site_fract_x
_atom_site_fract_y
_atom_site_fract_z
_atom_type_partial_charge
C1    C     C_R   0.566396 0.444531 0.810205 0.559745
C2    C     C_R   0.444658 0.566662 0.189774 0.560622
C3    C     C_2   0.994441 0.714056 0.421921 0.741909
C4    C     C_2   0.662826 0.927381 0.065585 0.646481
C5    C     C_2   0.273729 0.301824 0.429924 0.618067
C6    C     C_2   0.741928 0.032499 0.577352 0.687499
C7    C     C_2   0.925775 0.661612 0.934128 0.645565
C8    C     C_2   0.284143 0.286942 0.576954 0.720412
C9    C     C_2   0.735489 0.074382 0.934396 0.640194
C10   C     C_2   0.974194 0.699942 0.570293 0.617905
C11   C     C_2   0.336409 0.263538 0.934776 0.643932
C12   C     C_2   0.974346 0.333299 0.152676 0.658388
C13   C     C_R   0.433090 0.876935 0.310511 0.564084
C14   C     C_2   0.310145 0.948312 0.367628 0.654624
C15   C     C_2   0.667026 0.642348 0.152132 0.658264
C16   C     C_2   0.975462 0.329141 0.348632 0.660071
C17   C     C_2   0.359161 0.026359 0.152671 0.659827
C18   C     C_2   0.663229 0.652628 0.352439 0.665933
C19   C     C_2   0.353035 0.028108 0.636061 0.653588
C20   C     C_2   0.026534 0.359528 0.846840 0.661636
C21   C     C_2   0.647937 0.670690 0.651084 0.665839
C22   C     C_2   0.332413 0.972616 0.847290 0.658263
C23   C     C_2   0.000247 0.339240 0.645373 0.662609
C24   C     C_R   0.122165 0.555610 0.189729 0.563367
C25   C     C_2   0.641133 0.667520 0.846579 0.659245
C26   C     C_1   0.005151 0.531828 0.018431 0.197090
C27   C     C_1   0.553596 0.980033 0.482329 0.180215
C28   C     C_1   0.470008 0.471552 0.018937 0.182881
C29   C     C_1   0.980451 0.532571 0.477873 0.190891
C30   C     C_1   0.527424 0.998267 0.018779 0.189463
C31   C     C_1   0.456130 0.462854 0.483032 0.159659
C32   C     C_1   0.567413 0.009468 0.518477 0.176392
C33   C     C_R   0.876321 0.432733 0.688969 0.568136
C34   C     C_1   0.003843 0.531116 0.980521 0.214180
C35   C     C_1   0.453515 0.466796 0.521160 0.177711
C36   C     C_1   0.527631 0.998546 0.980920 0.194071
C37   C     C_1   0.986844 0.535596 0.516007 0.178828
C38   C     C_1   0.470558 0.471052 0.981022 0.173374
C39   C     C_R   0.938526 0.477181 0.850352 -0.061183
C40   C     C_R   0.545281 0.069635 0.648066 -0.057561
C41   C     C_R   0.522413 0.461171 0.850414 -0.064254
C42   C     C_R   0.933336 0.475102 0.647422 -0.064383
C43   C     C_R   0.538118 0.060315 0.850408 -0.062499
C44   C     C_R   0.555183 0.121638 0.810184 0.560677
C45   C     C_R   0.519043 0.465728 0.650665 -0.070293
C46   C     C_R   0.472642 0.926900 0.352712 -0.048360
C47   C     C_R   0.062961 0.539781 0.149267 -0.062388
C48   C     C_R   0.458528 0.523680 0.352110 -0.066429
C49   C     C_R   0.477606 0.939308 0.149477 -0.057954
C50   C     C_R   0.051479 0.534054 0.348894 -0.065261
C51   C     C_R   0.461299 0.523073 0.149511 -0.065261
C52   C     C_R   0.923658 0.556782 0.871293 -0.142665
C53   C     C_R   0.633646 0.058401 0.633324 -0.124607
C54   C     C_R   0.442139 0.366668 0.871591 -0.139422
C55   C     C_R   0.566252 0.445386 0.689787 0.562185
C56   C     C_R   0.931381 0.565417 0.628717 -0.147818
C57   C     C_R   0.632343 0.074673 0.871301 -0.139367
C58   C     C_R   0.424394 0.376781 0.633332 -0.124107
C59   C     C_R   0.575063 0.944057 0.366581 -0.127142
C60   C     C_R   0.078690 0.634894 0.128126 -0.140685
C61   C     C_R   0.365417 0.435651 0.371411 -0.151019
C62   C     C_R   0.558042 0.925559 0.128636 -0.140226
C63   C     C_R   0.044587 0.622837 0.365794 -0.115799
C64   C     C_R   0.366967 0.442328 0.128921 -0.143270
C65   C     C_R   0.950829 0.581103 0.913645 0.016543
C66   C     C_R   0.877954 0.433339 0.810214 0.567956
C67   C     C_R   0.644993 0.041369 0.590610 0.031020
C68   C     C_R   0.418318 0.369211 0.914117 0.023100
C69   C     C_R   0.963182 0.595782 0.586647 0.015756
C70   C     C_R   0.629758 0.048575 0.913880 0.022152
C71   C     C_R   0.390441 0.380756 0.592113 0.072137
C72   C     C_R   0.603261 0.957780 0.409401 0.025762
C73   C     C_R   0.053731 0.633306 0.085496 0.021083
C74   C     C_R   0.368049 0.404370 0.413183 0.023938
C75   C     C_R   0.581215 0.951047 0.085983 0.022807
C76   C     C_R   0.005849 0.619353 0.406885 0.068540
C77   C     C_R   0.556146 0.122519 0.689664 0.562946
C78   C     C_R   0.369068 0.418550 0.086430 0.021455
C79   C     C_R   0.998281 0.527075 0.935261 -0.002344
C80   C     C_R   0.568741 0.041306 0.561627 -0.027972
C81   C     C_R   0.474402 0.470378 0.935729 -0.021915
C82   C     C_R   0.991700 0.531153 0.561756 -0.003983
C83   C     C_R   0.528596 0.002561 0.935703 -0.013503
C84   C     C_R   0.457218 0.474428 0.566901 0.001158
C85   C     C_R   0.523976 0.947866 0.439183 -0.026603
C86   C     C_R   0.008693 0.532308 0.063733 -0.017871
C87   C     C_R   0.463395 0.465850 0.437244 -0.003260
C88   C     C_R   0.443624 0.567071 0.310923 0.561892
C89   C     C_R   0.524783 0.995290 0.064007 -0.017673
C90   C     C_R   0.977292 0.525296 0.432123 0.008180
C91   C     C_R   0.469654 0.475143 0.064230 -0.014618
C92   C     C_R   0.032413 0.462057 0.912903 0.221260
C93   C     C_R   0.482703 0.057962 0.575878 0.203380
C94   C     C_R   0.540878 0.570012 0.913259 0.197471
C95   C     C_R   0.011780 0.452373 0.581491 0.227098
C96   C     C_R   0.429334 0.968763 0.913549 0.195674
C97   C     C_R   0.536847 0.572889 0.586587 0.172581
C98   C     C_R   0.418046 0.923059 0.425822 0.199187
C99   C     C_R   0.433559 0.878316 0.189792 0.563708
C100  C     C_R   0.973830 0.432223 0.086105 0.190064
C101  C     C_R   0.562413 0.541353 0.416714 0.177904
C102  C     C_R   0.459226 0.029181 0.086100 0.186773
C103  C     C_R   0.958580 0.426753 0.412525 0.163815
C104  C     C_R   0.569176 0.541555 0.086144 0.194437
C105  C     C_R   0.999036 0.433812 0.870344 0.029849
C106  C     C_R   0.462830 0.056082 0.619622 0.040111
C107  C     C_R   0.567065 0.565145 0.870357 0.035395
C108  C     C_R   0.980931 0.422778 0.624428 0.037915
C109  C     C_R   0.434328 0.000438 0.870656 0.034885
C110  C     C_R   0.120518 0.554550 0.310130 0.564474
C111  C     C_R   0.568390 0.568492 0.628940 0.030353
C112  C     C_R   0.399183 0.929059 0.382368 0.036414
C113  C     C_R   0.003706 0.436179 0.129088 0.034771
C114  C     C_R   0.560007 0.572023 0.374045 0.030978
C115  C     C_R   0.432839 0.998136 0.129086 0.034431
C116  C     C_R   0.996988 0.431280 0.370543 0.029546
C117  C     C_R   0.564761 0.567992 0.129000 0.033673
C118  C     C_2   0.078261 0.739586 0.065030 0.644368
C119  C     C_2   0.712338 0.973473 0.422008 0.674601
C120  C     C_2   0.263659 0.335770 0.066510 0.647529
Cr1   Cr    Cr6+3 0.504240 0.249200 0.750000 1.089361
Cr2   Cr    Cr6+3 0.744960 0.495760 0.750000 1.096221
Cr3   Cr    Cr6+3 0.750800 0.255040 0.750000 1.089813
Cr4   Cr    Cr6+3 0.249200 0.504240 0.250000 1.089399
Cr5   Cr    Cr6+3 0.495760 0.744960 0.250000 1.094016
Cr6   Cr    Cr6+3 0.255040 0.750800 0.250000 1.091796
H1    H     H_    0.881653 0.594096 0.855645 0.189817
H2    H     H_    0.596783 0.885416 0.144653 0.188882
H3    H     H_    0.073993 0.697673 0.347340 0.205172
H4    H     H_    0.288164 0.403415 0.145036 0.189287
H5    H     H_    0.112045 0.831617 0.012128 0.406498
H6    H     H_    0.806139 0.959838 0.467110 0.393756
H7    H     H_    0.169677 0.280674 0.014443 0.405930
H8    H     H_    0.965851 0.790316 0.469853 0.380273
H9    H     H_    0.715469 0.886195 0.013287 0.408028
H10   H     H_    0.222959 0.157261 0.460355 0.376927
H11   H     H_    0.858938 0.996203 0.593918 0.375341
H12   H     H_    0.696963 0.067378 0.655112 0.201185
H13   H     H_    0.884579 0.713145 0.986664 0.408695
H14   H     H_    0.181764 0.209025 0.528619 0.354766
H15   H     H_    0.828712 0.116747 0.986785 0.407676
H16   H     H_    0.066744 0.840705 0.537457 0.378308
H17   H     H_    0.282605 0.169762 0.987421 0.407710
H18   H     H_    0.981481 0.193265 0.156124 0.366141
H19   H     H_    0.268930 0.041461 0.331794 0.352866
H20   H     H_    0.806072 0.790396 0.154783 0.367134
H21   H     H_    0.989474 0.192848 0.348522 0.368688
H22   H     H_    0.336596 0.096096 0.204378 0.353301
H23   H     H_    0.403800 0.287483 0.855927 0.189024
H24   H     H_    0.793620 0.807010 0.350454 0.372260
H25   H     H_    0.232587 0.064975 0.640387 0.365401
H26   H     H_    0.093867 0.335573 0.794611 0.351679
H27   H     H_    0.797739 0.807573 0.651680 0.364060
H28   H     H_    0.193893 0.981762 0.844112 0.365737
H29   H     H_    0.074728 0.304713 0.692534 0.350262
H30   H     H_    0.789051 0.806521 0.842749 0.366426
H31   H     H_    0.773266 0.337903 0.032169 0.332407
H32   H     H_    0.345129 0.781158 0.509860 0.370646
H33   H     H_    0.663965 0.436189 0.031829 0.331769
H34   H     H_    0.903508 0.612280 0.646798 0.190055
H35   H     H_    0.025126 0.303535 0.458902 0.393211
H36   H     H_    0.564315 0.228328 0.030051 0.331296
H37   H     H_    0.690301 0.734334 0.460028 0.378853
H38   H     H_    0.530000 0.190893 0.489835 0.367693
H39   H     H_    0.262890 0.511589 0.976579 0.371214
H40   H     H_    0.725895 0.688477 0.538501 0.383700
H41   H     H_    0.315320 0.755517 0.967794 0.353381
H42   H     H_    0.032512 0.225797 0.557971 0.386051
H43   H     H_    0.442975 0.681219 0.967572 0.334567
H44   H     H_    0.711453 0.115962 0.855416 0.189904
H45   H     H_    0.378701 0.301406 0.651504 0.200283
H46   H     H_    0.632120 0.942692 0.343885 0.188312
H47   H     H_    0.119456 0.713773 0.143997 0.191561
H48   H     H_    0.289131 0.391278 0.354069 0.185950
O1    O     O_R   0.480350 0.140770 0.796330 -0.478484
O2    O     O_R   0.140770 0.480350 0.203670 -0.476588
O3    O     O_2   0.579390 0.781588 0.589462 -0.213898
O4    O     O_3   0.720206 0.753578 0.546555 -0.415737
O5    O     O_2   0.261941 0.964103 0.955509 -0.162964
O6    O     O_2   0.215200 0.807027 0.909706 -0.251205
O7    O     O_3   0.309864 0.816843 0.980660 -0.497688
O8    O     O_2   0.140206 0.464031 0.514667 -0.275117
O9    O     O_2   0.177054 0.412192 0.583472 -0.271452
O10   O     O_3   0.002902 0.267243 0.542867 -0.443617
O11   O     O_2   0.705368 0.738589 0.954063 -0.155892
O12   O     O_2   0.593600 0.784546 0.908582 -0.254088
O13   O     O_R   0.519650 0.660420 0.296330 -0.470033
O14   O     O_3   0.511345 0.690150 0.980187 -0.506287
O15   O     O_R   0.339580 0.859230 0.203670 -0.480629
O16   O     O_R   0.514930 0.348530 0.793250 -0.503134
O17   O     O_R   0.833600 0.485070 0.706750 -0.499327
O18   O     O_R   0.651470 0.166400 0.793250 -0.500599
O19   O     O_R   0.514930 0.348530 0.706750 -0.500184
O20   O     O_R   0.833600 0.485070 0.793250 -0.500584
O21   O     O_R   0.651470 0.166400 0.706750 -0.503330
O22   O     O_R   0.348530 0.514930 0.293250 -0.501591
O23   O     O_R   0.660420 0.519650 0.703670 -0.472189
O24   O     O_R   0.485070 0.833600 0.206750 -0.501342
O25   O     O_R   0.166400 0.651470 0.293250 -0.498318
O26   O     O_R   0.348530 0.514930 0.206750 -0.503607
O27   O     O_R   0.485070 0.833600 0.293250 -0.504130
O28   O     O_R   0.166400 0.651470 0.206750 -0.500388
O29   O     O_3   0.666667 0.333333 0.750000 -0.271782
O30   O     O_3   0.333333 0.666667 0.250000 -0.271716
O31   O     O_2   0.080267 0.812974 0.086441 -0.406521
O32   O     O_R   0.099917 0.757273 0.021818 -0.619338
O33   O     O_2   0.787394 0.007464 0.396222 -0.431992
O34   O     O_R   0.859230 0.339580 0.796330 -0.479377
O35   O     O_R   0.728939 0.946527 0.462809 -0.622735
O36   O     O_2   0.193080 0.260607 0.087931 -0.400388
O37   O     O_R   0.243494 0.343384 0.023853 -0.660803
O38   O     O_2   0.997430 0.781623 0.396533 -0.427057
O39   O     O_R   0.973796 0.723446 0.464314 -0.612611
O40   O     O_2   0.738564 0.932694 0.086413 -0.408610
O41   O     O_R   0.653392 0.897782 0.023142 -0.622167
O42   O     O_2   0.179779 0.277965 0.421161 -0.462453
O43   O     O_R   0.293118 0.228485 0.453346 -0.596684
O44   O     O_2   0.778440 0.057351 0.541465 -0.414071
O45   O     O_R   0.480350 0.140770 0.703670 -0.468870
O46   O     O_R   0.793721 0.998409 0.606515 -0.625458
O47   O     O_2   0.928954 0.736784 0.913185 -0.407567
O48   O     O_R   0.897092 0.651629 0.976783 -0.623095
O49   O     O_2   0.217555 0.221526 0.602383 -0.485429
O50   O     O_R   0.256478 0.275766 0.534299 -0.623914
O51   O     O_2   0.807669 0.072217 0.913520 -0.404855
O52   O     O_R   0.754309 0.103004 0.976954 -0.625522
O53   O     O_2   0.909663 0.729328 0.581416 -0.462142
O54   O     O_R   0.063498 0.768380 0.544342 -0.589474
O55   O     O_2   0.261344 0.192351 0.913954 -0.403514
O56   O     O_R   0.660420 0.519650 0.796330 -0.476383
O57   O     O_R   0.344885 0.243768 0.977452 -0.617493
O58   O     O_2   0.923317 0.313234 0.185919 -0.446070
O59   O     O_R   0.006172 0.260235 0.137192 -0.589525
O60   O     O_2   0.215073 0.886947 0.378271 -0.446882
O61   O     O_R   0.335970 0.036565 0.340171 -0.646885
O62   O     O_2   0.687165 0.611731 0.185446 -0.448725
O63   O     O_R   0.739484 0.747560 0.136122 -0.589850
O64   O     O_2   0.928577 0.306247 0.314563 -0.444063
O65   O     O_R   0.009028 0.259667 0.366575 -0.593665
O66   O     O_2   0.267800 0.999448 0.139041 -0.400676
O67   O     O_R   0.859230 0.339580 0.703670 -0.471537
O68   O     O_R   0.394015 0.082095 0.191019 -0.645914
O69   O     O_2   0.693334 0.625308 0.320815 -0.438910
O70   O     O_R   0.725046 0.759816 0.367903 -0.635162
O71   O     O_2   0.303871 0.948064 0.659426 -0.457740
O72   O     O_R   0.307084 0.093462 0.626470 -0.621865
O73   O     O_2   0.000998 0.268558 0.861202 -0.402837
O74   O     O_R   0.080235 0.393395 0.807832 -0.639508
O75   O     O_2   0.622671 0.693158 0.685011 -0.444232
O76   O     O_R   0.751324 0.740825 0.633487 -0.593367
O77   O     O_2   0.312414 0.922086 0.814100 -0.453796
O78   O     O_R   0.140770 0.480350 0.296330 -0.472826
O79   O     O_R   0.260251 0.005416 0.862903 -0.589824
O80   O     O_2   0.955645 0.244849 0.632152 -0.478157
O81   O     O_R   0.068181 0.368626 0.680794 -0.633373
O82   O     O_2   0.610289 0.687680 0.813365 -0.446392
O83   O     O_R   0.746411 0.739893 0.861814 -0.589219
O84   O     O_2   0.967464 0.263799 0.044308 -0.165136
O85   O     O_2   0.810568 0.218034 0.090442 -0.249795
O86   O     O_3   0.822648 0.314551 0.019435 -0.503115
O87   O     O_2   0.250040 0.933100 0.462499 -0.131603
O88   O     O_2   0.222435 0.751751 0.444985 -0.306473
O89   O     O_R   0.519650 0.660420 0.203670 -0.475306
O90   O     O_3   0.336088 0.846832 0.510933 -0.461136
O91   O     O_2   0.737632 0.705005 0.044068 -0.161430
O92   O     O_2   0.782508 0.592457 0.089962 -0.252695
O93   O     O_3   0.687431 0.509420 0.019102 -0.495612
O94   O     O_2   0.821084 0.307593 0.477461 -0.255380
O95   O     O_2   0.787621 0.221388 0.408406 -0.223604
O96   O     O_3   0.952416 0.240322 0.451535 -0.371058
O97   O     O_2   0.295969 0.035717 0.045431 -0.161741
O98   O     O_2   0.411812 0.194254 0.089788 -0.252416
O99   O     O_3   0.490546 0.178831 0.018180 -0.496827
O100  O     O_R   0.339580 0.859230 0.296330 -0.470107
O101  O     O_2   0.678679 0.524281 0.482535 -0.285985
O102  O     O_2   0.761768 0.565773 0.412500 -0.229484
O103  O     O_3   0.751339 0.721715 0.452257 -0.455667
O104  O     O_2   0.293464 0.027364 0.542476 -0.143027
O105  O     O_2   0.439225 0.215788 0.556149 -0.289073
O106  O     O_3   0.458934 0.120584 0.490533 -0.464050
O107  O     O_2   0.046792 0.302736 0.954426 -0.172964
O108  O     O_2   0.199121 0.419057 0.906741 -0.268924
O109  O     O_3   0.188061 0.501508 0.978315 -0.534038
O110  O     O_2   0.522628 0.692693 0.521039 -0.299929
S1    S     S_3+6 0.892390 0.302962 0.060347 0.069580
S2    S     S_3+6 0.299932 0.887932 0.939602 0.076266
S3    S     S_3+6 0.087482 0.400818 0.554548 0.056470
S4    S     S_3+6 0.590690 0.699909 0.938763 0.072939
S5    S     S_3+6 0.303816 0.863664 0.461418 0.102067
S6    S     S_3+6 0.698336 0.590042 0.060062 0.073588
S7    S     S_3+6 0.875708 0.296979 0.438388 0.100242
S8    S     S_3+6 0.411555 0.110782 0.060104 0.074402
S9    S     S_3+6 0.690579 0.586113 0.442147 0.053865
S10   S     S_3+6 0.415518 0.104948 0.540889 0.104962
S11   S     S_3+6 0.117937 0.418161 0.937960 0.068489
S12   S     S_3+6 0.587643 0.702382 0.560020 0.065252

loop_
_geom_bond_atom_site_label_1
_geom_bond_atom_site_label_2
_ccdc_geom_bond_type
C18   O69   D    
Cr6   O25   S    
C10   O54   S    
Cr4   O22   S    
Cr5   O30   S    
C65   C79   A    
C46   C112  A    
C46   C59   A    
C97   S12   S    
H39   O109  S    
C33   O67   A    
C44   O1    A    
Cr3   O67   S    
C91   C104  A    
C93   S10   S    
C18   C114  S    
H25   O72   S    
C72   C85   A    
C101  S9    S    
Cr2   O17   S    
C40   C77   S    
Cr1   O1    S    
Cr6   O28   S    
C58   H45   S    
C14   C112  S    
C92   S11   S    
Cr5   O27   S    
H8    O39   S    
H18   O59   S    
Cr4   O30   S    
O84   S1    D    
C2    O26   A    
C33   C42   S    
C49   C62   A    
C40   C106  A    
C118  O32   S    
O11   S4    D    
C53   C67   A    
C33   O17   A    
H30   O83   S    
C30   C89   S    
C21   O75   D    
C13   C46   S    
C97   C111  A    
H36   O99   S    
C95   S3    S    
C58   C71   A    
H31   O86   S    
C54   C68   A    
C63   C76   A    
O110  S12   D    
C36   C83   S    
H33   O93   S    
O104  S10   D    
C60   C73   A    
C50   C110  S    
H11   O46   S    
C27   C85   S    
C5    C74   S    
O85   S1    D    
C88   O22   A    
C14   O61   S    
C22   O79   S    
C85   C98   A    
O101  S9    D    
C21   C111  S    
C47   C60   A    
C87   C101  A    
H29   O81   S    
C1    O56   A    
C26   C34   T    
C88   O13   A    
C5    O43   S    
O14   S4    S    
C16   O65   S    
O109  S11   S    
H42   O10   S    
O87   S5    D    
C15   O62   D    
H41   O7    S    
C96   S2    S    
C48   C88   S    
C9    O52   S    
C82   C95   A    
O99   S8    S    
C57   C70   A    
C86   C100  A    
O86   S1    S    
C8    O50   S    
C23   C108  S    
C59   C72   A    
C25   O83   S    
C1    O16   A    
C120  O37   S    
O9    S3    D    
C39   C52   A    
O8    S3    D    
C16   O64   D    
C41   C54   A    
C11   O55   D    
C4    O41   S    
C6    O44   D    
H22   O68   S    
C101  C114  A    
Cr1   O45   S    
Cr3   O21   S    
O107  S11   D    
Cr2   O20   S    
C23   O80   D    
C47   C113  A    
H40   O4    S    
C16   C116  S    
Cr1   O19   S    
C29   C90   S    
C66   O20   A    
C52   H1    S    
C12   O58   D    
C54   H23   S    
C50   C63   A    
C20   O73   D    
O6    S2    D    
C104  S6    S    
C12   O59   S    
Cr2   O56   S    
H9    O41   S    
C45   C58   A    
C119  O35   S    
C4    O40   D    
C60   H47   S    
C61   H48   S    
C102  S8    S    
C53   H12   S    
C118  O31   D    
C31   C87   S    
C9    C70   S    
Cr1   O29   S    
C23   O81   S    
C2    C51   S    
H35   O96   S    
C21   O76   S    
C99   O15   A    
C7    O48   S    
C43   C57   A    
C10   C69   S    
C77   O45   A    
C98   C112  A    
C94   S4    S    
H10   O43   S    
H37   O103  S    
Cr6   O30   S    
C5    O42   D    
C100  S1    S    
C15   C117  S    
Cr2   O29   S    
Cr6   O15   S    
C78   C120  S    
C43   C44   S    
C19   C106  S    
O91   S6    D    
C3    C76   S    
O96   S7    S    
C34   C79   S    
C32   C80   S    
C66   O34   A    
C100  C113  A    
O106  S10   S    
C2    O89   A    
H20   O63   S    
C28   C38   T    
C26   C86   S    
C22   C109  S    
C24   O28   A    
C98   S5    S    
C89   C102  A    
C51   C64   A    
O92   S6    D    
O94   S7    D    
C42   C56   A    
C70   C83   A    
O7    S2    S    
C8    O49   D    
C13   O100  A    
C27   C32   T    
C6    O46   S    
H13   O48   S    
C1    C41   S    
C6    C67   S    
C49   C115  A    
C64   H4    S    
Cr5   O24   S    
C40   C53   A    
O10   S3    S    
H32   O90   S    
C94   C107  A    
H19   O61   S    
C38   C81   S    
O4    S12   S    
C10   O53   D    
C74   C87   A    
C39   C66   S    
C31   C35   T    
C37   C82   S    
C119  O33   D    
C81   C94   A    
C84   C97   A    
C59   H46   S    
C24   O2    A    
O97   S8    D    
C14   O60   D    
C11   C68   S    
C17   C115  S    
C48   C114  A    
C71   C84   A    
H27   O76   S    
C93   C106  A    
C18   O70   S    
C3    O38   D    
C39   C105  A    
Cr4   O26   S    
C79   C92   A    
C8    C71   S    
C11   O57   S    
C73   C118  S    
C41   C107  A    
H7    O37   S    
C55   O19   A    
C110  O25   A    
C20   C105  S    
C24   C47   S    
C64   C78   A    
C7    C65   S    
O93   S6    S    
H14   O50   S    
C67   C80   A    
H43   O14   S    
C17   O68   S    
C35   C84   S    
C45   C111  A    
O95   S7    D    
C103  S7    S    
Cr4   O2    S    
C30   C36   T    
C61   C74   A    
C3    O39   S    
O105  S10   D    
C96   C109  A    
C104  C117  A    
O5    S2    D    
H21   O65   S    
O88   S5    D    
Cr3   O29   S    
Cr5   O13   S    
C110  O78   A    
C120  O36   D    
H15   O52   S    
C103  C116  A    
C77   O21   A    
H6    O35   S    
C22   O77   D    
C56   H34   S    
O12   S4    D    
O98   S8    D    
C62   H2    S    
O102  S9    D    
C69   C82   A    
C49   C99   S    
C48   C61   A    
C55   O23   A    
C68   C81   A    
C80   C93   A    
Cr1   O16   S    
C7    O47   D    
C83   C96   A    
C99   O24   A    
C25   O82   D    
C51   C117  A    
C13   O27   A    
Cr3   O34   S    
C12   C113  S    
C28   C91   S    
C50   C116  A    
O90   S5    S    
C63   H3    S    
Cr2   O23   S    
Cr6   O100  S    
O108  S11   D    
C90   C103  A    
H26   O74   S    
C72   C119  S    
C95   C108  A    
C75   C89   A    
H24   O70   S    
Cr5   O89   S    
C4    C75   S    
C17   O66   D    
C15   O63   S    
C92   C105  A    
C20   O74   S    
O103  S9    S    
C62   C75   A    
C45   C55   S    
O3    S12   D    
Cr4   O78   S    
C56   C69   A    
C29   C37   T    
C19   O71   D    
C78   C91   A    
H38   O106  S    
C9    O51   D    
C73   C86   A    
C43   C109  A    
H17   O57   S    
Cr3   O18   S    
H5    O32   S    
C42   C108  A    
H16   O54   S    
C102  C115  A    
C25   C107  S    
C44   O18   A    
C52   C65   A    
C19   O72   S    
C76   C90   A    
C57   H44   S    
H28   O79   S    
