data_mof_unit_13372.cif
_audit_creation_date              2012-12-10T20:57:54-0500
_audit_creation_method            fapswitch 2.2
_symmetry_space_group_name_H-M    P1
_symmetry_Int_Tables_number       1
_space_group_crystal_system       triclinic
_cell_length_a                    18.203632
_cell_length_b                    18.250565
_cell_length_c                    18.368211
_cell_angle_alpha                 120.113151
_cell_angle_beta                  89.896616
_cell_angle_gamma                 119.890092
_cell_volume                      4318.70376403

loop_
_atom_site_label
_atom_site_type_symbol
_atom_type_description
_atom_site_fract_x
_atom_site_fract_y
_atom_site_fract_z
_atom_type_partial_charge
C1    C     C_R   0.359212 0.220028 0.361137 0.501240
C2    C     C_3   0.778505 0.942032 0.666128 -0.234914
C3    C     C_3   0.314776 0.363036 0.927724 -0.465826
C4    C     C_3   0.698397 0.897583 0.697520 0.065303
C5    C     C_R   0.640886 0.781049 0.639100 0.492131
C6    C     C_3   0.798717 0.102388 0.802171 0.061472
C7    C     C_3   0.794454 0.058375 0.856777 -0.233723
C8    C     C_3   0.837327 0.061862 0.727785 -0.228321
C9    C     C_3   0.638981 0.422000 0.201222 -0.230101
C10   C     C_3   0.698348 0.421351 0.141974 -0.232913
C11   C     C_3   0.760026 0.607679 0.322467 -0.250122
C12   C     C_3   0.758043 0.465990 0.318510 -0.089594
C13   C     C_3   0.279233 0.580793 0.360134 -0.231760
C14   C     C_3   0.697729 0.497801 0.301408 0.072303
C15   C     C_3   0.799255 0.499055 0.199939 0.057867
C16   C     C_3   0.819647 0.608299 0.262667 -0.242678
C17   C     C_R   0.361013 0.502243 0.642402 0.496522
C18   C     C_3   0.817125 0.466064 0.257109 -0.212415
C19   C     C_R   0.377139 0.173069 0.586183 -0.103512
C20   C     C_R   0.362483 0.128934 0.495015 -0.059590
C21   C     C_R   0.284598 0.098388 0.440781 0.064160
C22   C     C_R   0.220974 0.110759 0.478360 -0.087352
C23   C     C_R   0.235606 0.154240 0.569386 -0.118867
C24   C     C_3   0.300941 0.501372 0.302145 0.055401
C25   C     C_R   0.313815 0.185901 0.623374 -0.100091
C26   C     C_R   0.214802 0.943922 0.287916 -0.157389
C27   C     C_R   0.194925 0.892301 0.195619 0.021976
C28   C     C_R   0.229305 0.949169 0.158163 -0.027151
C29   C     C_R   0.640518 0.499988 0.359315 0.489255
C30   C     C_R   0.282964 0.056062 0.214383 -0.147662
C31   C     C_R   0.302891 0.107690 0.306673 0.019075
C32   C     C_R   0.268335 0.050822 0.344139 -0.035239
C33   C     C_R   0.272743 0.884993 0.019838 0.029197
C34   C     C_R   0.255214 0.842414 0.928546 -0.121606
C35   C     C_3   0.199834 0.502257 0.200651 0.067571
C36   C     C_R   0.177482 0.815372 0.878171 -0.116102
C37   C     C_R   0.117186 0.831681 0.918829 -0.105143
C38   C     C_R   0.134459 0.875104 0.010017 -0.077139
C39   C     C_R   0.211883 0.901515 0.061163 0.049892
C40   C     C_R   0.910723 0.678908 0.601136 -0.122500
C41   C     C_R   0.641868 0.500152 0.640082 0.503922
C42   C     C_R   0.863819 0.609987 0.624197 -0.072628
C43   C     C_R   0.843841 0.643435 0.703847 0.047533
C44   C     C_R   0.872454 0.746898 0.760954 -0.090383
C45   C     C_R   0.919670 0.815985 0.737793 0.014357
C46   C     C_3   0.152575 0.392815 0.180503 -0.248033
C47   C     C_R   0.938440 0.781660 0.657640 -0.105694
C48   C     C_R   0.842295 0.567852 0.782392 -0.160102
C49   C     C_R   0.799485 0.498373 0.805664 0.019368
C50   C     C_R   0.704802 0.429138 0.773640 -0.038148
C51   C     C_R   0.655572 0.431753 0.719302 -0.160817
C52   C     C_R   0.698357 0.501137 0.695968 0.020837
C53   C     C_R   0.358125 0.500357 0.359442 0.494142
C54   C     C_R   0.793084 0.569824 0.727398 -0.035312
C55   C     C_R   0.630851 0.251200 0.736447 -0.081606
C56   C     C_R   0.582986 0.178718 0.755770 -0.114045
C57   C     C_3   0.217861 0.578955 0.301061 -0.226694
C58   C     C_R   0.558049 0.206809 0.832370 -0.100017
C59   C     C_R   0.580388 0.307251 0.889480 -0.106846
C60   C     C_R   0.628116 0.379944 0.870340 -0.069934
C61   C     C_R   0.654082 0.352377 0.793968 0.063343
C62   C     C_R   0.486438 0.855262 0.822628 -0.120065
C63   C     C_R   0.438773 0.758102 0.807467 -0.083520
C64   C     C_R   0.348178 0.683946 0.753289 0.077052
C65   C     C_3   0.350334 0.531652 0.242802 -0.211411
C66   C     C_R   0.305419 0.707663 0.712527 0.051123
C67   C     C_R   0.355036 0.805703 0.727939 -0.107304
C68   C     C_3   0.643180 0.939989 0.695253 -0.233443
C69   C     C_R   0.444565 0.879120 0.783213 -0.129859
C70   C     C_R   0.241773 0.582862 0.800981 -0.156351
C71   C     C_R   0.193691 0.496953 0.804069 0.014815
C72   C     C_R   0.202376 0.413929 0.754964 -0.040751
C73   C     C_R   0.258819 0.419407 0.704198 -0.165698
C74   C     C_R   0.306181 0.504797 0.700341 0.009047
C75   C     C_R   0.297335 0.587777 0.749247 -0.028995
C76   C     C_R   0.188194 0.299660 0.801606 0.063408
C77   C     C_3   0.291570 0.533338 0.182696 -0.089491
C78   C     C_R   0.139839 0.199944 0.783640 -0.077520
C79   C     C_3   0.701494 0.059377 0.756659 -0.232472
C80   C     C_R   0.057940 0.119427 0.714365 -0.128810
C81   C     C_R   0.021665 0.137026 0.663157 -0.146920
C82   C     C_R   0.067187 0.235199 0.680776 -0.107693
C83   C     C_R   0.150435 0.316583 0.748990 0.062266
C84   C     C_R   0.857021 0.500000 0.142725 0.493641
C85   C     C_R   0.137269 0.498233 0.860352 0.501013
C86   C     C_R   0.856727 0.218953 0.861792 0.492170
C87   C     C_R   0.138557 0.779975 0.141098 0.503612
C88   C     C_R   0.855898 0.499646 0.861908 0.502753
C89   C     C_3   0.211365 0.392748 0.241007 -0.241304
C90   C     C_3   0.736199 0.938361 0.795301 -0.228461
C91   C     C_R   0.139778 0.499996 0.142897 0.490731
C92   C     C_3   0.342980 0.639265 0.195333 -0.283062
C93   C     C_3   0.417536 0.654251 0.153713 -0.459227
C94   C     C_3   0.703973 0.360904 0.307320 -0.281153
C95   C     C_3   0.764582 0.344430 0.345335 -0.458152
C96   C     C_1   0.353023 0.910884 0.069801 0.177833
C97   C     C_1   0.949326 0.922193 0.796371 0.145361
C98   C     C_3   0.207559 0.631687 0.654309 -0.283766
C99   C     C_3   0.192189 0.540051 0.565621 -0.414715
C100  C     C_3   0.279456 0.388240 0.874238 -0.272833
H1    H     H_    0.365784 0.475184 0.199521 0.116895
H2    H     H_    0.765540 0.084869 0.909799 0.103072
H3    H     H_    0.820396 0.914013 0.666896 0.143815
H4    H     H_    0.415924 0.608267 0.286582 0.111126
H5    H     H_    0.753320 0.914818 0.596291 0.100214
H6    H     H_    0.841750 0.092718 0.687652 0.106274
H7    H     H_    0.906212 0.089800 0.758914 0.168093
H8    H     H_    0.777358 0.910503 0.798863 0.143996
H9    H     H_    0.863318 0.088031 0.890472 0.151323
H10   H     H_    0.597965 0.446121 0.188312 0.123311
H11   H     H_    0.591191 0.342135 0.182681 0.129749
H12   H     H_    0.153191 0.555045 0.314975 0.124099
H13   H     H_    0.681376 0.341666 0.097096 0.128555
H14   H     H_    0.683748 0.442332 0.099176 0.126262
H15   H     H_    0.719072 0.632789 0.311536 0.105620
H16   H     H_    0.807181 0.633219 0.222610 0.108394
H17   H     H_    0.803677 0.526606 0.389006 0.141569
H18   H     H_    0.803769 0.388281 0.211672 0.112971
H19   H     H_    0.889148 0.520224 0.299238 0.115426
H20   H     H_    0.803591 0.664873 0.393727 0.125199
H21   H     H_    0.891552 0.665673 0.305417 0.130319
H22   H     H_    0.325112 0.219939 0.693892 0.107735
H23   H     H_    0.174370 0.370034 0.282383 0.109318
H24   H     H_    0.437390 0.196961 0.627926 0.100525
H25   H     H_    0.411795 0.119090 0.466750 0.099565
H26   H     H_    0.276249 0.473193 0.111772 0.144193
H27   H     H_    0.160243 0.086698 0.437177 0.095324
H28   H     H_    0.186299 0.163365 0.598054 0.116738
H29   H     H_    0.188353 0.901006 0.317094 0.141781
H30   H     H_    0.309316 0.098941 0.185165 0.142767
H31   H     H_    0.301818 0.830243 0.896375 0.115663
H32   H     H_    0.164184 0.782144 0.807629 0.104966
H33   H     H_    0.057238 0.811149 0.879746 0.106239
H34   H     H_    0.086464 0.367865 0.191352 0.108650
H35   H     H_    0.087409 0.887864 0.040853 0.100575
H36   H     H_    0.974762 0.834387 0.639065 0.095706
H37   H     H_    0.224732 0.333908 0.198689 0.134765
H38   H     H_    0.925757 0.652738 0.539506 0.090079
H39   H     H_    0.842549 0.530542 0.580006 0.093742
H40   H     H_    0.857581 0.773124 0.822801 0.097453
H41   H     H_    0.914898 0.620778 0.806320 0.141659
H42   H     H_    0.582987 0.378648 0.695180 0.140746
H43   H     H_    0.650067 0.228801 0.677062 0.091913
H44   H     H_    0.565137 0.100749 0.711356 0.089444
H45   H     H_    0.584886 0.909926 0.717133 0.146187
H46   H     H_    0.521174 0.150659 0.847300 0.095293
H47   H     H_    0.560593 0.328696 0.948484 0.089095
H48   H     H_    0.139293 0.335284 0.109384 0.134656
H49   H     H_    0.645250 0.457610 0.915026 0.092612
H50   H     H_    0.481659 0.954730 0.795396 0.094579
H51   H     H_    0.555712 0.912681 0.865846 0.099762
H52   H     H_    0.471734 0.741557 0.840090 0.098485
H53   H     H_    0.324153 0.826030 0.697890 0.096415
H54   H     H_    0.236965 0.647692 0.840056 0.138951
H55   H     H_    0.264048 0.354808 0.665681 0.143049
H56   H     H_    0.616224 0.912846 0.625815 0.113492
H57   H     H_    0.165026 0.182453 0.821543 0.121284
H58   H     H_    0.245103 0.562266 0.404632 0.120002
H59   H     H_    0.022263 0.043019 0.700451 0.119449
H60   H     H_    0.958314 0.074201 0.609293 0.100735
H61   H     H_    0.039011 0.247131 0.639186 0.099171
H62   H     H_    0.342410 0.660160 0.403166 0.124538
H63   H     H_    0.249136 0.658470 0.318976 0.127515
H64   H     H_    0.466909 0.649653 0.183237 0.142297
H65   H     H_    0.388544 0.594422 0.080607 0.146941
H66   H     H_    0.453301 0.731553 0.165878 0.151611
H67   H     H_    0.702485 0.089679 0.716791 0.117814
H68   H     H_    0.296611 0.645326 0.163241 0.158908
H69   H     H_    0.372853 0.703863 0.267372 0.145003
H70   H     H_    0.813066 0.341423 0.309237 0.143996
H71   H     H_    0.802150 0.407926 0.417208 0.139161
H72   H     H_    0.722822 0.270006 0.338218 0.147572
H73   H     H_    0.654364 0.357581 0.343025 0.156669
H74   H     H_    0.666230 0.295636 0.235785 0.150501
H75   H     H_    0.242503 0.567645 0.535035 0.171521
H76   H     H_    0.196893 0.486990 0.575111 0.162066
H77   H     H_    0.124008 0.495744 0.519208 0.116638
H78   H     H_    0.670794 0.085438 0.807958 0.132230
H79   H     H_    0.164666 0.603579 0.689781 0.143792
H80   H     H_    0.184622 0.670431 0.639473 0.123206
H81   H     H_    0.268259 0.339261 0.962823 0.150745
H82   H     H_    0.323657 0.300851 0.883210 0.143381
H83   H     H_    0.381212 0.432901 0.978526 0.132050
H84   H     H_    0.329760 0.415072 0.843199 0.141193
H85   H     H_    0.275413 0.453675 0.921736 0.163625
H86   H     H_    0.680051 0.907283 0.819435 0.103276
N1    N     N_1   0.417367 0.931611 0.109881 -0.325020
N2    N     N_1   0.973324 0.007625 0.843440 -0.355178
O1    O     O_3   0.500000 0.500000 0.500000 -0.433068
O2    O     O_R   0.113800 0.731630 0.056520 -0.534518
O3    O     O_R   0.819390 0.439310 0.886160 -0.532937
O4    O     O_R   0.383400 0.268380 0.323710 -0.554858
O5    O     O_R   0.115110 0.560720 0.179280 -0.554579
O6    O     O_R   0.941380 0.560750 0.885620 -0.554439
O7    O     O_R   0.115110 0.439270 0.057830 -0.549793
O8    O     O_R   0.942690 0.268390 0.886930 -0.540555
O9    O     O_R   0.114340 0.731630 0.178520 -0.555972
O10   O     O_R   0.820160 0.439310 0.057830 -0.548996
O11   O     O_R   0.113800 0.560730 0.885620 -0.546333
O12   O     O_R   0.383400 0.560740 0.616060 -0.537791
O13   O     O_R   0.555060 0.731630 0.615290 -0.545680
O14   O     O_R   0.383950 0.439280 0.616600 -0.545206
O15   O     O_R   0.677590 0.560710 0.444390 -0.550369
O16   O     O_R   0.556370 0.439260 0.616600 -0.554129
O17   O     O_R   0.382640 0.439290 0.322940 -0.549526
O18   O     O_R   0.678360 0.560700 0.616060 -0.532889
O19   O     O_R   0.382640 0.560750 0.444390 -0.556895
O20   O     O_R   0.555060 0.439270 0.322940 -0.555569
O21   O     O_R   0.383950 0.268380 0.445700 -0.533241
O22   O     O_R   0.677590 0.731610 0.615290 -0.545675
O23   O     O_3   0.997750 0.500010 0.002220 -0.434541
O24   O     O_R   0.942690 0.560750 0.179280 -0.553139
O25   O     O_R   0.114340 0.439270 0.886160 -0.539302
O26   O     O_R   0.820160 0.268410 0.886930 -0.545690
Zn1   Zn    Zn3+2 0.456040 0.586770 0.543190 0.917788
Zn2   Zn    Zn3+2 0.456820 0.413240 0.543960 0.930233
Zn3   Zn    Zn3+2 0.631110 0.586750 0.543190 0.923805
Zn4   Zn    Zn3+2 0.456040 0.413240 0.369660 0.908375
Zn5   Zn    Zn3+2 0.041710 0.413240 0.959030 0.929423
Zn6   Zn    Zn3+2 0.866640 0.413270 0.959030 0.925071
Zn7   Zn    Zn3+2 0.040930 0.586780 0.958260 0.931624
Zn8   Zn    Zn3+2 0.041710 0.586770 0.132560 0.907533

loop_
_geom_bond_atom_site_label_1
_geom_bond_atom_site_label_2
_ccdc_geom_bond_type
C9    H11   S    
C40   C47   A    
C55   C56   A    
C33   C96   S    
C77   C92   S    
C26   C32   A    
C29   O15   A    
C47   H36   S    
C97   N2    T    
C73   C74   A    
C15   C18   S    
C19   C20   A    
C96   N1    T    
O4    Zn4   S    
C16   H21   S    
C25   H22   S    
C24   C89   S    
O7    Zn5   S    
C81   C82   A    
O25   Zn5   S    
C13   H62   S    
C46   C89   S    
O24   Zn8   S    
C98   C99   S    
C44   C45   A    
C48   C54   A    
C5    O22   A    
C26   C27   A    
C37   C38   A    
O22   Zn3   S    
C69   H50   S    
C36   C37   A    
C76   C78   A    
C99   H77   S    
C10   C15   S    
C36   H32   S    
C5    O13   A    
C30   C31   A    
C91   O5    A    
C11   C14   S    
C78   C80   A    
C57   H12   S    
C13   C57   S    
C15   C16   S    
O23   Zn7   S    
C1    C31   S    
O12   Zn1   S    
C17   O12   A    
C41   O18   A    
O13   Zn1   S    
O1    Zn1   S    
C86   O8    A    
C71   C85   S    
C3    C100  S    
C85   O11   A    
C46   H48   S    
C99   H76   S    
O1    Zn3   S    
C7    H2    S    
C40   H38   S    
C53   O17   A    
C70   C71   A    
O11   Zn7   S    
C65   H1    S    
C11   H15   S    
C9    C10   S    
C18   H18   S    
C41   C52   S    
C10   H14   S    
C68   C79   S    
C40   C42   A    
C66   C67   A    
C93   H65   S    
C59   C60   A    
C44   H40   S    
C81   H60   S    
C21   C22   A    
C93   H64   S    
C49   C88   S    
C12   C94   S    
C94   C95   S    
C100  H84   S    
C11   H20   S    
C16   H16   S    
C76   C83   A    
C3    H82   S    
C52   C54   A    
C33   C34   A    
C4    C90   S    
C45   C47   A    
O18   Zn3   S    
O20   Zn4   S    
C19   H24   S    
C21   C32   S    
O10   Zn6   S    
O17   Zn4   S    
O21   Zn2   S    
C55   H43   S    
C62   H51   S    
O15   Zn3   S    
C1    O21   A    
C51   C52   A    
C88   O6    A    
C65   C77   S    
O9    Zn8   S    
C74   C75   A    
O2    Zn7   S    
C4    C68   S    
C72   C73   A    
C80   H59   S    
C6    C8    S    
C90   H86   S    
C28   C39   S    
C84   O10   A    
C58   C59   A    
C30   H30   S    
C7    C90   S    
C35   C77   S    
C12   H17   S    
C62   C69   A    
C60   C61   A    
C67   C69   A    
C64   C66   A    
C2    C4    S    
C9    C14   S    
C86   O26   A    
C62   C63   A    
O23   Zn6   S    
O1    Zn2   S    
C85   O25   A    
C46   H34   S    
C91   O7    A    
C11   C16   S    
C92   H68   S    
C78   H57   S    
C31   C32   A    
C57   H63   S    
C92   H69   S    
C73   H55   S    
O19   Zn1   S    
C50   C51   A    
C79   H78   S    
C33   C39   A    
C38   H35   S    
C43   C54   S    
C27   C87   S    
C29   O20   A    
C15   C84   S    
C26   H29   S    
C24   C65   S    
C3    H81   S    
O6    Zn7   S    
C48   C49   A    
C94   H74   S    
C34   H31   S    
C49   C50   A    
C89   H37   S    
C87   O2    A    
C43   C44   A    
C17   C74   S    
C37   H33   S    
C42   C43   A    
C87   O9    A    
C14   C29   S    
C98   H80   S    
C8    H7    S    
C13   H58   S    
C70   C75   A    
O8    Zn5   S    
O23   Zn5   S    
O1    Zn4   S    
C95   H72   S    
C51   H42   S    
C9    H10   S    
O5    Zn8   S    
C10   H13   S    
C42   H39   S    
C70   H54   S    
C2    C8    S    
C12   C14   S    
C80   C81   A    
C68   H56   S    
C8    H6    S    
O3    Zn6   S    
C93   H66   S    
C41   O16   A    
C84   O24   A    
C6    C7    S    
C82   H61   S    
C76   C100  S    
C89   H23   S    
O16   Zn2   S    
C2    H5    S    
C6    C86   S    
C35   C57   S    
C58   H46   S    
C67   H53   S    
O14   Zn2   S    
C66   C98   S    
C28   C30   A    
C100  H85   S    
C24   C53   S    
C90   H8    S    
C20   H25   S    
O26   Zn6   S    
O23   Zn8   S    
C22   H27   S    
C38   C39   A    
C95   H71   S    
C2    H3    S    
C4    C5    S    
C55   C61   A    
C92   C93   S    
C53   O19   A    
C64   C75   S    
C56   C58   A    
C48   H41   S    
C34   C36   A    
C60   H49   S    
C23   C25   A    
C17   O14   A    
C19   C25   A    
C95   H70   S    
C63   H52   S    
C72   C83   S    
C77   H26   S    
C94   H73   S    
C6    C79   S    
C63   C64   A    
C56   H44   S    
C1    O4    A    
C7    H9    S    
C71   C72   A    
C99   H75   S    
C20   C21   A    
C13   C24   S    
C82   C83   A    
C12   C18   S    
C27   C28   A    
C88   O3    A    
C50   C61   S    
C22   C23   A    
C45   C97   S    
C65   H4    S    
C79   H67   S    
C98   H79   S    
C35   C46   S    
C3    H83   S    
C18   H19   S    
C68   H45   S    
C35   C91   S    
C23   H28   S    
C59   H47   S    
