data_mof_unit_16583.cif
_audit_creation_date              2012-10-26T19:52:25-0400
_audit_creation_method            fapswitch 2.2
_symmetry_space_group_name_H-M    P1
_symmetry_Int_Tables_number       1
_space_group_crystal_system       triclinic
_cell_length_a                    9.55147
_cell_length_b                    10.838061
_cell_length_c                    13.468748
_cell_angle_alpha                 90.449418
_cell_angle_beta                  73.992499
_cell_angle_gamma                 90.588684
_cell_volume                      1340.12571161

loop_
_atom_site_label
_atom_site_type_symbol
_atom_type_description
_atom_site_fract_x
_atom_site_fract_y
_atom_site_fract_z
_atom_type_partial_charge
C1    C     C_R   0.499584 0.737545 0.502979 0.548939
C2    C     C_R   0.376780 0.514293 0.813667 0.000634
C3    C     C_R   0.367089 0.934358 0.528211 0.019661
C4    C     C_R   0.422863 0.507048 0.699687 0.532966
C5    C     C_R   0.496799 0.870352 0.515191 0.012374
C6    C     C_R   0.623123 0.936781 0.517195 -0.157393
C7    C     C_R   0.622578 0.065475 0.516157 -0.155255
C8    C     C_R   0.495859 0.128790 0.512812 0.010892
C9    C     C_R   0.366529 0.061418 0.526612 0.023566
C10   C     C_3   0.255217 0.062654 0.467558 -0.279696
C11   C     C_3   0.254881 0.922938 0.470609 -0.255360
C12   C     C_R   0.435496 0.532093 0.978993 0.035055
C13   C     C_R   0.959271 0.466059 0.413594 0.181309
C14   C     C_R   0.895634 0.546900 0.580567 -0.018230
C15   C     C_R   0.043912 0.547030 0.580826 -0.023662
C16   C     C_R   0.498916 0.262137 0.501935 0.551313
C17   C     C_R   0.106208 0.465606 0.413874 0.243944
C18   C     C_3   0.131488 0.344857 0.358962 -0.272916
C19   C     C_3   0.972753 0.345346 0.358306 -0.282675
C20   C     C_R   0.576449 0.509265 0.300906 0.547501
C21   C     C_R   0.798539 0.567286 0.025981 -0.132420
C22   C     C_R   0.616357 0.532183 0.189055 -0.022908
C23   C     C_R   0.472803 0.553927 0.871513 0.029383
C24   C     C_R   0.238080 0.468224 0.865851 -0.135547
C25   C     C_R   0.199402 0.451338 0.972105 -0.146782
C26   C     C_R   0.298540 0.478881 0.027796 -0.103091
C27   C     C_2   0.387426 0.643604 0.192144 0.582975
C28   C     C_R   0.541697 0.554304 0.032730 0.018908
C29   C     C_R   0.687738 0.577018 0.976649 0.046051
C30   C     C_R   0.717728 0.614445 0.874050 -0.132575
C31   C     C_R   0.606587 0.612924 0.825246 -0.120036
C32   C     C_R   0.506615 0.558534 0.140577 0.030589
C33   C     C_R   0.763119 0.535786 0.130447 -0.150452
Cu1   Cu    Cu3+1 0.359330 0.500020 0.500010 0.970706
Cu2   Cu    Cu3+1 0.640670 0.499980 0.499990 0.943691
H1    H     H_    0.849998 0.521726 0.166469 0.137927
H2    H     H_    0.269347 0.452491 0.107962 0.139778
H3    H     H_    0.094675 0.410782 0.010785 0.114323
H4    H     H_    0.150468 0.102586 0.513614 0.133918
H5    H     H_    0.816859 0.583528 0.646069 0.110520
H6    H     H_    0.208971 0.352106 0.280762 0.144229
H7    H     H_    0.155959 0.272191 0.408280 0.129356
H8    H     H_    0.911643 0.580583 0.983362 0.117915
H9    H     H_    0.321250 0.820188 0.214558 0.326852
H10   H     H_    0.161684 0.438898 0.823850 0.129610
H11   H     H_    0.625721 0.656603 0.751099 0.126534
H12   H     H_    0.723235 0.114440 0.512502 0.130537
H13   H     H_    0.724095 0.890062 0.513677 0.136439
H14   H     H_    0.299604 0.099389 0.388096 0.137127
H15   H     H_    0.150970 0.882954 0.518971 0.139326
H16   H     H_    0.297664 0.879448 0.393338 0.164773
H17   H     H_    0.073833 0.583706 0.647079 0.114793
H18   H     H_    0.958463 0.354475 0.279541 0.128073
H19   H     H_    0.825353 0.647409 0.832703 0.094083
H20   H     H_    0.906794 0.270924 0.405995 0.142013
N1    N     N_R   0.852320 0.499070 0.499340 -0.238928
N2    N     N_R   0.148230 0.499110 0.499340 -0.234049
O1    O     O_R   0.381190 0.680360 0.500000 -0.493873
O2    O     O_R   0.411043 0.770658 0.179775 -0.695272
O3    O     O_R   0.618780 0.680320 0.499990 -0.512104
O4    O     O_R   0.323230 0.500000 0.650990 -0.517981
O5    O     O_R   0.560820 0.499960 0.650980 -0.510506
O6    O     O_R   0.381220 0.319680 0.500010 -0.502222
O7    O     O_R   0.618810 0.319640 0.500000 -0.507118
O8    O     O_R   0.439180 0.500040 0.349020 -0.471434
O9    O     O_R   0.676770 0.500000 0.349010 -0.504051
O10   O     O_2   0.269191 0.604178 0.242083 -0.552046

loop_
_geom_bond_atom_site_label_1
_geom_bond_atom_site_label_2
_ccdc_geom_bond_type
C8    C9    A    
Cu1   N2    S    
C2    C4    S    
C26   H2    S    
C29   C30   A    
C3    C9    A    
C16   O6    A    
C25   H3    S    
C30   H19   S    
C9    C10   S    
C6    C7    A    
C14   N1    A    
C27   O10   D    
C13   C17   A    
C30   C31   A    
C13   N1    A    
C19   H18   S    
C17   C18   S    
Cu2   N1    S    
C7    C8    A    
C8    C16   S    
C11   H15   S    
C27   O2    S    
C15   H17   S    
C15   N2    A    
C12   C23   A    
Cu2   O7    S    
C22   C32   A    
C12   C28   A    
C27   C32   S    
C1    C5    S    
C24   H10   S    
Cu1   O8    S    
C20   O9    A    
Cu1   O6    S    
C12   C26   A    
C20   C22   S    
Cu1   Cu2   S    
Cu2   O5    S    
C2    C23   A    
C18   H7    S    
C11   H16   S    
C2    C24   A    
C5    C6    A    
C18   H6    S    
C21   C33   A    
C10   C11   S    
C13   C19   S    
H9    O2    S    
C14   H5    S    
C4    O5    A    
C20   O8    A    
C28   C32   A    
C33   H1    S    
C3    C11   S    
C24   C25   A    
C18   C19   S    
C1    O3    A    
C19   H20   S    
C6    H13   S    
Cu1   O1    S    
C22   C33   A    
C14   C15   A    
C28   C29   A    
C16   O7    A    
Cu2   O9    S    
C23   C31   A    
C25   C26   A    
C1    O1    A    
C10   H14   S    
C21   C29   A    
C4    O4    A    
C10   H4    S    
Cu1   O4    S    
C21   H8    S    
C17   N2    A    
Cu2   O3    S    
C3    C5    A    
C31   H11   S    
C7    H12   S    
