data_mof_unit_58373.cif
_audit_creation_date              2012-12-11T17:09:34-0500
_audit_creation_method            fapswitch 2.2
_symmetry_space_group_name_H-M    P1
_symmetry_Int_Tables_number       1
_space_group_crystal_system       triclinic
_cell_length_a                    14.78349
_cell_length_b                    6.928526
_cell_length_c                    13.525146
_cell_angle_alpha                 90.000708
_cell_angle_beta                  99.838819
_cell_angle_gamma                 89.999758
_cell_volume                      1364.97562654

loop_
_atom_site_label
_atom_site_type_symbol
_atom_type_description
_atom_site_fract_x
_atom_site_fract_y
_atom_site_fract_z
_atom_type_partial_charge
O1    O     O_R   0.586930 0.505770 0.416350 -0.546582
O2    O     O_R   0.413070 0.005770 0.583650 -0.546579
O3    O     O_R   0.397900 0.173100 0.389630 -0.542040
O4    O     O_R   0.602100 0.673100 0.610370 -0.542040
C1    C     C_R   0.364461 0.345469 0.362613 0.729615
C2    C     C_R   0.635538 0.845470 0.637388 0.729596
O5    O     O_R   0.585280 0.175870 0.404330 -0.519589
O6    O     O_R   0.414720 0.675870 0.595670 -0.519589
O7    O     O_R   0.601790 0.008380 0.598460 -0.531126
O8    O     O_R   0.398210 0.508380 0.401540 -0.531127
C3    C     C_R   0.615629 0.344438 0.383907 0.723588
C4    C     C_R   0.384371 0.844440 0.616092 0.723594
O9    O     O_3   0.505200 0.340120 0.563670 -0.370240
O10   O     O_3   0.494800 0.840120 0.436330 -0.370242
V1    V     V_3+5 0.499040 0.064180 0.488190 1.441717
V2    V     V_3+5 0.500960 0.564180 0.511810 1.441715
C5    C     C_R   0.321699 0.994029 0.759394 0.015383
C6    C     C_R   0.678297 0.494023 0.240604 0.015378
C7    C     C_R   0.316544 0.851417 0.685192 -0.196695
C8    C     C_R   0.683454 0.351412 0.314805 -0.196690
C9    C     C_R   0.246065 0.711329 0.681255 0.409212
C10   C     C_R   0.753936 0.211328 0.318742 0.409215
C11   C     C_R   0.182560 0.721419 0.748462 -0.267669
C12   C     C_R   0.817443 0.221423 0.251537 -0.267671
C13   C     C_R   0.183498 0.876965 0.815573 -0.159221
C14   C     C_R   0.816502 0.376969 0.184427 -0.159219
C15   C     C_R   0.256214 0.008099 0.821783 0.091288
C16   C     C_R   0.743784 0.508097 0.178216 0.091283
C17   C     C_3   0.255582 0.223131 0.817118 -0.379459
C18   C     C_3   0.744412 0.723130 0.182885 -0.379453
C19   C     C_3   0.328041 0.207541 0.750067 -0.342342
C20   C     C_3   0.671953 0.707534 0.249934 -0.342327
H1    H     H_    0.189032 0.281228 0.777674 0.184484
H2    H     H_    0.810961 0.781229 0.222330 0.184489
H3    H     H_    0.396260 0.263811 0.785713 0.162341
H4    H     H_    0.603733 0.763803 0.214288 0.162338
C21   C     C_1   0.783265 0.877175 0.783131 -0.190911
C22   C     C_1   0.216734 0.377175 0.216870 -0.190913
C23   C     C_1   0.715875 0.860215 0.717199 -0.196450
C24   C     C_1   0.284124 0.360214 0.282802 -0.196458
O11   O     O_R   0.101720 0.231700 0.098560 -0.535996
O12   O     O_R   0.898280 0.731700 0.901440 -0.535996
O13   O     O_R   0.914700 0.558980 0.095690 -0.542195
O14   O     O_R   0.085300 0.058980 0.904310 -0.542194
C25   C     C_R   0.885571 0.389822 0.117386 0.719150
C26   C     C_R   0.114429 0.889821 0.882614 0.719149
O15   O     O_R   0.102080 0.561590 0.110390 -0.537485
O16   O     O_R   0.897920 0.061590 0.889610 -0.537485
O17   O     O_R   0.086950 0.728940 0.916330 -0.539580
O18   O     O_R   0.913050 0.228940 0.083670 -0.539579
C27   C     C_R   0.136124 0.391919 0.137417 0.732373
C28   C     C_R   0.863876 0.891918 0.862583 0.732369
O19   O     O_3   0.994770 0.394510 0.936380 -0.370062
O20   O     O_3   0.005230 0.894510 0.063620 -0.370062
V3    V     V_3+5 0.000970 0.670520 0.011800 1.407988
V4    V     V_3+5 0.999030 0.170520 0.988200 1.407987
O21   O     O_3   0.237518 0.565063 0.610975 -0.562204
C29   C     C_3   0.169955 0.615935 0.528066 0.087911
H5    H     H_    0.201185 0.710105 0.476403 0.120927
H6    H     H_    0.109838 0.692260 0.549941 0.105258
C30   C     C_3   0.134129 0.433138 0.472439 -0.729016
H7    H     H_    0.097514 0.343030 0.520925 0.208269
H8    H     H_    0.085843 0.471048 0.402901 0.173203
H9    H     H_    0.191989 0.348384 0.452274 0.219748
O22   O     O_3   0.762480 0.065056 0.389015 -0.562207
C31   C     C_3   0.830039 0.115918 0.471930 0.087899
H10   H     H_    0.798810 0.210125 0.523582 0.120916
H11   H     H_    0.890168 0.192203 0.450063 0.105264
C32   C     C_3   0.865833 0.933115 0.527566 -0.728983
H12   H     H_    0.902462 0.842989 0.479098 0.208253
H13   H     H_    0.914097 0.971008 0.597122 0.173209
H14   H     H_    0.807953 0.848382 0.547696 0.219752
H15   H     H_    0.129084 0.613235 0.743564 0.139056
H16   H     H_    0.870920 0.113242 0.256436 0.139054
H17   H     H_    0.281834 0.289832 0.891203 0.160278
H18   H     H_    0.718161 0.789832 0.108800 0.160277
H19   H     H_    0.304285 0.255595 0.671788 0.227075
H20   H     H_    0.695706 0.755584 0.328214 0.227071

loop_
_geom_bond_atom_site_label_1
_geom_bond_atom_site_label_2
_ccdc_geom_bond_type
C31   H11   S    
C15   C17   S    
O1    C3    A    
O2    C4    A    
C2    O7    A    
O11   V4    S    
O5    C3    A    
C26   O17   A    
C20   H4    S    
C22   C24   T    
C12   C14   A    
C31   C32   S    
C29   H6    S    
C17   H1    S    
C30   H8    S    
C32   H13   S    
C19   H3    S    
C14   C25   S    
O10   V2    S    
C29   C30   S    
O5    V1    S    
C31   H10   S    
O6    V2    S    
C30   H7    S    
C11   H15   S    
O14   C26   A    
C19   H19   S    
O19   V3    S    
C9    C11   A    
O20   V4    S    
C3    C8    S    
C18   H2    S    
C5    C15   A    
C6    C16   A    
O4    C2    A    
C21   C28   S    
O15   C27   A    
C22   C27   S    
C29   H5    S    
O17   V3    S    
O18   V4    S    
O4    V2    S    
C30   H9    S    
C10   O22   S    
C9    O21   S    
O12   V3    S    
C18   H18   S    
O14   V4    S    
O6    C4    A    
O1    V2    S    
O2    V1    S    
O13   C25   A    
O13   V3    S    
C8    C10   A    
O9    V1    S    
C5    C19   S    
C10   C12   A    
O9    V2    S    
C6    C20   S    
C32   H14   S    
O3    V1    S    
O15   V3    S    
O19   V4    S    
O16   V4    S    
O20   V3    S    
C7    C9    A    
C2    C23   S    
O3    C1    A    
C17   H17   S    
C13   C15   A    
C14   C16   A    
C16   C18   S    
O7    V1    S    
C1    O8    A    
C17   C19   S    
O8    V2    S    
C18   C20   S    
C12   H16   S    
O21   C29   S    
C25   O18   A    
C4    C7    S    
C5    C7    A    
C6    C8    A    
C11   C13   A    
C32   H12   S    
C20   H20   S    
O16   C28   A    
C21   C23   T    
O22   C31   S    
C1    C24   S    
O10   V1    S    
C13   C26   S    
O11   C27   A    
O12   C28   A    
