data_mof_unit_48882.cif
_audit_creation_date              2013-03-05T15:58:45-0500
_audit_creation_method            fapswitch 2.2
_symmetry_space_group_name_H-M    P1
_symmetry_Int_Tables_number       1
_space_group_crystal_system       triclinic
_cell_length_a                    6.927015
_cell_length_b                    14.419
_cell_length_c                    15.861978
_cell_angle_alpha                 90.23863
_cell_angle_beta                  90.034372
_cell_angle_gamma                 89.990563
_cell_volume                      1584.2902976

loop_
_atom_site_label
_atom_site_type_symbol
_atom_site_description
_atom_site_fract_x
_atom_site_fract_y
_atom_site_fract_z
_atom_type_partial_charge
O1    O     O_R   0.494320 0.415010 0.412140 -0.588537
O2    O     O_R   0.824010 0.404260 0.587250 -0.602680
O3    O     O_R   0.994320 0.584990 0.587860 -0.591179
C1    C     C_R   0.654785 0.381800 0.616389 0.846530
O4    O     O_R   0.824040 0.403870 0.412760 -0.576740
O5    O     O_R   0.994350 0.584590 0.412130 -0.573438
C2    C     C_R   0.655300 0.382869 0.382389 0.905601
O6    O     O_R   0.494300 0.415410 0.587870 -0.598576
O7    O     O_3   0.660800 0.559290 0.500000 -0.272018
V1    V     V_3+5 0.935650 0.489000 0.500000 1.175368
O8    O     O_R   0.324060 0.595740 0.412750 -0.614885
C3    C     C_R   0.154953 0.617832 0.383238 0.994857
O9    O     O_R   0.324040 0.596130 0.587240 -0.602137
C4    C     C_R   0.155201 0.618602 0.616166 0.913073
V2    V     V_3+5 0.435660 0.511000 0.500000 1.153450
O10   O     O_3   0.160640 0.440710 0.500000 -0.273653
C5    C     C_3   0.059838 0.668260 0.774357 -0.142306
C6    C     C_3   0.233741 0.718626 0.815648 -0.131817
H1    H     H_    0.316577 0.693384 0.870922 0.104628
H2    H     H_    0.999430 0.600641 0.794696 0.100859
C7    C     C_3   0.121506 0.810670 0.811607 -0.077321
C8    C     C_3   0.947406 0.761088 0.771091 -0.096734
C9    C     C_3   0.032477 0.780721 0.682613 -0.135481
C10   C     C_3   0.206376 0.831127 0.723896 -0.150244
C11   C     C_3   0.318839 0.738292 0.727171 -0.094637
C12   C     C_3   0.144756 0.688700 0.686683 -0.078944
H3    H     H_    0.794107 0.770696 0.789536 0.109449
H4    H     H_    0.949089 0.805770 0.627440 0.117201
H5    H     H_    0.266709 0.898698 0.703393 0.092429
H6    H     H_    0.472103 0.728713 0.708658 0.107529
C13   C     C_3   0.205412 0.856600 0.268022 -0.484406
H7    H     H_    0.351067 0.885693 0.254803 0.121265
H8    H     H_    0.111929 0.915866 0.287118 0.167274
C14   C     C_3   0.221377 0.784970 0.341467 0.571350
H9    H     H_    0.377767 0.775314 0.356999 0.001132
H10   H     H_    0.401786 0.753376 0.147558 0.167678
H11   H     H_    0.419617 0.647656 0.254259 0.160108
C15   C     C_3   0.253932 0.728079 0.162457 -0.372821
C16   C     C_3   0.918969 0.771815 0.208709 -0.364089
C17   C     C_3   0.121879 0.810966 0.186874 0.073076
H12   H     H_    0.854588 0.737828 0.152163 0.165000
H13   H     H_    0.820659 0.829317 0.227703 0.155512
C18   C     C_3   0.143372 0.688613 0.312209 -0.055129
C19   C     C_3   0.266045 0.656654 0.235262 -0.442213
C20   C     C_3   0.931283 0.700795 0.281079 -0.301186
H14   H     H_    0.837242 0.724260 0.333897 0.177107
H15   H     H_    0.873475 0.632988 0.258675 0.195823
H16   H     H_    0.197018 0.693552 0.104690 0.157649
H17   H     H_    0.214616 0.588328 0.211966 0.234651
C21   C     C_3   0.429288 0.293244 0.713529 -0.336794
H18   H     H_    0.360837 0.359276 0.734523 0.145787
H19   H     H_    0.345285 0.267160 0.658466 0.148632
C22   C     C_3   0.417019 0.221762 0.785583 -0.351924
H20   H     H_    0.327419 0.161856 0.764596 0.145658
H21   H     H_    0.342990 0.253960 0.840683 0.151901
H22   H     H_    0.691898 0.413241 0.788111 0.133544
H23   H     H_    0.673369 0.306866 0.895399 0.137291
C23   C     C_3   0.753394 0.345919 0.766515 -0.358707
C24   C     C_3   0.731574 0.216916 0.659818 -0.365945
C25   C     C_3   0.642767 0.311164 0.687267 0.129373
H24   H     H_    0.885386 0.226620 0.641638 0.150950
H25   H     H_    0.654099 0.189837 0.603377 0.126765
C26   C     C_3   0.621502 0.187774 0.811655 0.121466
C27   C     C_3   0.740896 0.274002 0.839073 -0.350376
C28   C     C_3   0.719064 0.144931 0.732327 -0.351185
H26   H     H_    0.635547 0.083382 0.710594 0.127819
H27   H     H_    0.867016 0.120500 0.748285 0.148685
H28   H     H_    0.907689 0.358344 0.750590 0.149808
H29   H     H_    0.889365 0.252526 0.857443 0.156921
C29   C     C_3   0.475008 0.336148 0.249308 -0.251608
H30   H     H_    0.336335 0.330062 0.284145 0.185693
H31   H     H_    0.482984 0.408809 0.226692 0.190272
C30   C     C_3   0.470457 0.267764 0.173681 -0.356227
H32   H     H_    0.498560 0.306084 0.114196 0.166301
H33   H     H_    0.323220 0.237357 0.168636 0.159899
H34   H     H_    0.471954 0.213847 0.382890 0.165231
H35   H     H_    0.443254 0.110786 0.272798 0.147851
C31   C     C_3   0.606990 0.214442 0.344895 -0.449435
C32   C     C_3   0.838534 0.309533 0.259253 0.301032
C33   C     C_3   0.644940 0.313370 0.310150 -0.073245
H36   H     H_    0.954011 0.285644 0.303142 0.050908
C34   C     C_3   0.623496 0.189921 0.184915 0.073989
C35   C     C_3   0.589318 0.142919 0.271594 -0.356217
C36   C     C_3   0.825796 0.236918 0.186906 -0.461327
H37   H     H_    0.856149 0.269226 0.124717 0.184304
H38   H     H_    0.939713 0.183561 0.196889 0.141741
H39   H     H_    0.726572 0.193615 0.387719 0.145416
H40   H     H_    0.696249 0.086272 0.280986 0.140286
O11   O     O_R   0.771990 0.083520 0.910980 -0.593197
O12   O     O_R   0.442180 0.095020 0.086060 -0.599278
O13   O     O_R   0.271950 0.914280 0.086680 -0.593313
C37   C     C_R   0.611458 0.118594 0.114363 0.884188
O14   O     O_R   0.442270 0.094630 0.911580 -0.598177
O15   O     O_R   0.272040 0.913890 0.910940 -0.589230
C38   C     C_R   0.611072 0.117113 0.882478 0.855542
O16   O     O_R   0.771900 0.083910 0.086710 -0.592442
O17   O     O_3   0.605520 0.939610 0.998840 -0.267333
V3    V     V_3+5 0.330640 0.009880 0.998810 1.132526
O18   O     O_R   0.942330 0.902710 0.911540 -0.596009
C39   C     C_R   0.111132 0.880528 0.882377 0.902407
O19   O     O_R   0.942240 0.903100 0.086030 -0.600028
C40   C     C_R   0.111117 0.880984 0.115453 0.889110
V4    V     V_3+5 0.830640 0.987830 0.998780 1.135277
O20   O     O_3   0.105630 0.058150 0.998800 -0.273551
N1    N     N_R   0.894873 0.400902 0.226978 0.221069
O21   O     O_R   0.046399 0.442028 0.257737 -0.480631
O22   O     O_R   0.802655 0.439430 0.164774 -0.456456
O23   O     O_3   0.113602 0.816254 0.412235 -0.631537
C41   C     C_3   0.231563 0.868624 0.467181 -0.328189
H41   H     H_    0.305770 0.926063 0.433538 0.143204
H42   H     H_    0.338751 0.823118 0.498933 0.150708
H43   H     H_    0.139286 0.900130 0.516718 0.173378

loop_
_geom_bond_atom_site_label_1
_geom_bond_atom_site_label_2
_geom_bond_distance
_ccdc_geom_bond_type
C31   H39   1.112962 S    
C19   H17   1.109501 S    
O18   V4    2.001668 S    
C26   C28   1.554370 S    
O19   C40   1.299392 A    
C6    C7    1.539558 S    
C30   H32   1.112692 S    
C1    O6    1.294756 A    
O17   V3    2.156753 S    
C16   H12   1.113316 S    
C20   H14   1.113090 S    
C13   C17   1.554593 S    
N1    O22   1.301506 A    
C5    C12   1.539907 S    
H34   C31   1.113093 S    
C14   H9    1.119626 S    
C3    C18   1.525404 S    
C41   H42   1.112489 S    
O5    C3    1.296164 A    
C32   C36   1.552705 S    
C31   C33   1.553843 S    
H35   C35   1.113102 S    
C23   C25   1.553129 S    
V2    O10   2.158036 S    
C26   C38   1.521504 S    
C37   O16   1.294702 A    
C5    H2    1.110282 S    
C34   C37   1.519007 S    
O23   C41   1.411165 S    
C32   N1    1.468364 S    
C6    H1    1.110145 S    
C9    C12   1.539462 S    
C10   H5    1.110252 S    
O8    V2    2.004597 S    
C31   C35   1.555738 S    
O18   C39   1.297233 A    
C28   H27   1.113031 S    
C21   H19   1.113380 S    
C9    C10   1.550311 S    
C13   H8    1.113215 S    
C29   H30   1.112132 S    
O1    V2    2.001856 S    
O7    V1    2.156704 S    
C15   H16   1.112977 S    
C16   C20   1.543787 S    
C20   H15   1.113394 S    
C35   H40   1.112960 S    
C24   C25   1.552382 S    
O19   V4    2.004506 S    
C7    C8    1.540803 S    
O11   V4    2.005863 S    
C30   H33   1.112924 S    
C6    C11   1.549792 S    
C21   H18   1.113398 S    
C16   H13   1.113523 S    
C22   H21   1.113297 S    
C23   C27   1.554832 S    
C24   H24   1.112964 S    
C21   C22   1.544610 S    
C29   C33   1.557565 S    
C36   H37   1.112823 S    
C10   C11   1.549705 S    
C41   H43   1.109010 S    
C16   C17   1.554581 S    
O4    C2    1.299329 A    
C7    C39   1.506844 S    
C11   C12   1.540592 S    
C27   H29   1.113008 S    
C32   C33   1.566559 S    
O11   C38   1.297138 A    
O2    C1    1.301785 A    
C18   C19   1.555813 S    
C15   C19   1.552771 S    
O12   C37   1.300114 A    
C13   H7    1.113133 S    
O15   C39   1.294908 A    
C1    C25   1.522467 S    
C29   C30   1.549963 S    
C5    C6    1.550128 S    
C13   C14   1.563968 S    
C9    H4    1.109947 S    
C4    C12   1.506199 S    
C18   C20   1.559753 S    
O17   V4    1.707496 S    
O3    C4    1.294673 A    
C23   H28   1.113103 S    
C28   H26   1.112883 S    
O6    V2    2.005625 S    
C34   C36   1.556925 S    
C8    H3    1.110141 S    
O9    V2    2.001569 S    
C7    C10   1.540367 S    
O13   C40   1.297153 A    
O2    V1    2.005496 S    
C30   C34   1.554482 S    
H23   C27   1.112871 S    
C32   H36   1.115515 S    
C11   H6    1.110139 S    
C24   H25   1.112903 S    
O1    C2    1.295991 A    
C14   C18   1.559576 S    
C36   H38   1.113700 S    
O5    V1    2.006142 S    
O8    C3    1.301251 A    
C22   H20   1.113415 S    
N1    O21   1.299452 A    
C5    C8    1.549501 S    
C21   C25   1.558468 S    
H11   C19   1.113190 S    
H10   C15   1.113095 S    
O7    V2    1.708032 S    
C14   O23   1.420403 S    
O4    V1    2.001058 S    
O3    V1    2.001625 S    
V1    O10   1.706874 S    
C41   H41   1.113145 S    
C24   C28   1.554914 S    
C15   C17   1.552833 S    
C22   C26   1.555091 S    
V3    O20   1.706882 S    
H22   C23   1.112832 S    
O13   V3    2.006226 S    
C17   C40   1.522383 S    
C26   C27   1.553839 S    
O14   C38   1.299013 A    
C34   C35   1.553685 S    
O16   V4    2.003634 S    
V4    O20   2.158056 S    
O15   V3    2.001637 S    
C8    C9    1.549634 S    
C29   H31   1.110225 S    
O9    C4    1.297161 A    
O14   V3    2.005339 S    
O12   V3    2.001068 S    
C2    C33   1.520755 S    
