data_mof_unit_38005.cif
_audit_creation_date              2012-12-10T18:22:32-0500
_audit_creation_method            fapswitch 2.2
_symmetry_space_group_name_H-M    P1
_symmetry_Int_Tables_number       1
_space_group_crystal_system       triclinic
_cell_length_a                    23.490305
_cell_length_b                    10.621395
_cell_length_c                    9.549336
_cell_angle_alpha                 88.150948
_cell_angle_beta                  89.302056
_cell_angle_gamma                 89.51423
_cell_volume                      2381.06231104

loop_
_atom_site_label
_atom_site_type_symbol
_atom_type_description
_atom_site_fract_x
_atom_site_fract_y
_atom_site_fract_z
_atom_type_partial_charge
C1    C     C_R   0.499115 0.259989 0.501892 0.776476
C2    C     C_R   0.702058 0.575575 0.397781 0.447108
C3    C     C_R   0.238407 0.427184 0.601490 -0.184627
C4    C     C_R   0.761594 0.572810 0.398511 -0.184620
C5    C     C_R   0.209348 0.493375 0.494890 0.289028
C6    C     C_R   0.790652 0.506619 0.505111 0.289023
C7    C     C_3   0.476260 0.034303 0.622660 -0.263998
C8    C     C_3   0.523739 0.965696 0.377339 -0.264001
C9    C     C_3   0.530766 0.952118 0.607402 -0.174569
C10   C     C_3   0.469233 0.047882 0.392597 -0.174568
C11   C     C_3   0.500915 0.877026 0.495105 -0.016010
C12   C     C_R   0.500884 0.740011 0.498107 0.776467
C13   C     C_3   0.499085 0.122973 0.504895 -0.016011
C14   C     C_3   0.447105 0.957564 0.510051 0.195119
C15   C     C_3   0.552894 0.042436 0.489949 0.195118
C16   C     C_R   0.391318 0.498261 0.500390 0.821529
C17   C     C_R   0.608682 0.501739 0.499610 0.821521
C18   C     C_3   0.509772 0.612095 0.044075 0.076473
C19   C     C_3   0.490228 0.387905 0.955925 0.076473
C20   C     C_3   0.460945 0.575792 0.948702 0.069841
C21   C     C_3   0.539055 0.424208 0.051297 0.069840
C22   C     C_3   0.548214 0.535677 0.946766 0.561311
C23   C     C_R   0.240044 0.556633 0.388060 -0.116843
C24   C     C_3   0.451786 0.464323 0.053234 0.561311
C25   C     C_R   0.880563 0.614089 0.524386 0.539999
C26   C     C_R   0.119437 0.385904 0.475617 0.539999
C27   C     C_R   0.879956 0.393063 0.484558 0.541337
C28   C     C_R   0.120044 0.606930 0.515445 0.541336
C29   C     C_R   0.939671 0.388891 0.482457 -0.017797
C30   C     C_R   0.060329 0.611102 0.517547 -0.017797
C31   C     C_R   0.969954 0.500879 0.501222 -0.017513
C32   C     C_R   0.030046 0.499114 0.498782 -0.017513
C33   C     C_R   0.940290 0.614634 0.522370 -0.016443
C34   C     C_R   0.759956 0.443361 0.611940 -0.116844
C35   C     C_R   0.059710 0.385359 0.477634 -0.016443
C36   C     C_R   0.969683 0.275948 0.461423 -0.162838
C37   C     C_R   0.030316 0.724045 0.538581 -0.162838
C38   C     C_R   0.029083 0.274202 0.459023 -0.162517
C39   C     C_R   0.970917 0.725791 0.540981 -0.162517
C40   C     C_3   0.413958 0.661858 0.886644 -0.329976
C41   C     C_3   0.383264 0.739597 0.996977 -0.913018
C42   C     C_3   0.586041 0.338142 0.113356 -0.329977
C43   C     C_3   0.616736 0.260403 0.003023 -0.913017
C44   C     C_3   0.522646 0.743935 0.095546 -0.328961
C45   C     C_R   0.299330 0.556379 0.389756 -0.285754
C46   C     C_3   0.537748 0.838244 0.977259 -0.898694
C47   C     C_3   0.477354 0.256065 0.904454 -0.328962
C48   C     C_3   0.462252 0.161756 0.022741 -0.898696
C49   C     C_3   0.643572 0.590268 0.969766 -0.324086
C50   C     C_3   0.356428 0.409732 0.030235 -0.324091
C51   C     C_3   0.334269 0.230965 0.654376 -0.353204
C52   C     C_3   0.665726 0.769029 0.345635 -0.353187
C53   C     C_3   0.386155 0.908778 0.522840 -0.425302
C54   C     C_3   0.365528 0.857514 0.385197 -0.830886
C55   C     C_3   0.613844 0.091222 0.477160 -0.425302
C56   C     C_R   0.700669 0.443617 0.610244 -0.285752
C57   C     C_3   0.634472 0.142483 0.614803 -0.830890
C58   C     C_R   0.328785 0.494139 0.499156 -0.119571
C59   C     C_R   0.671215 0.505859 0.500844 -0.119573
C60   C     C_R   0.297942 0.424422 0.602220 0.447111
Cu1   Cu    Cu3+1 0.500010 0.499990 0.643150 0.957879
Cu2   Cu    Cu3+1 0.499990 0.500010 0.356850 0.957878
H1    H     H_    0.947407 0.188574 0.446718 0.188588
H2    H     H_    0.785255 0.623596 0.316992 0.162551
H3    H     H_    0.557249 0.910540 0.692429 0.154499
H4    H     H_    0.442750 0.089460 0.307571 0.154499
H5    H     H_    0.455513 0.061040 0.722047 0.141066
H6    H     H_    0.544486 0.938960 0.277953 0.141067
H7    H     H_    0.377714 0.684996 0.097110 0.271842
H8    H     H_    0.407190 0.826650 0.016639 0.252665
H9    H     H_    0.340621 0.768582 0.958043 0.251713
H10   H     H_    0.432107 0.727313 0.806105 0.222295
H11   H     H_    0.382201 0.603322 0.834734 0.219655
H12   H     H_    0.052593 0.811419 0.553286 0.188588
H13   H     H_    0.592810 0.173349 0.983361 0.252665
H14   H     H_    0.622286 0.315004 0.902890 0.271842
H15   H     H_    0.659379 0.231418 0.041958 0.251713
H16   H     H_    0.617799 0.396678 0.165266 0.219655
H17   H     H_    0.567893 0.272687 0.193895 0.222296
H18   H     H_    0.576968 0.809113 0.921218 0.285174
H19   H     H_    0.502408 0.848589 0.902094 0.262963
H20   H     H_    0.545626 0.931776 0.021392 0.232536
H21   H     H_    0.484830 0.780487 0.151885 0.229508
H22   H     H_    0.558822 0.737421 0.168717 0.222583
H23   H     H_    0.050876 0.185520 0.442626 0.188442
H24   H     H_    0.497592 0.151411 0.097906 0.262963
H25   H     H_    0.423032 0.190887 0.078781 0.285173
H26   H     H_    0.454374 0.068224 0.978607 0.232536
H27   H     H_    0.441178 0.262579 0.831283 0.222585
H28   H     H_    0.515170 0.219513 0.848115 0.229508
H29   H     H_    0.669612 0.502762 0.973421 0.188457
H30   H     H_    0.629434 0.614304 0.076381 0.211263
H31   H     H_    0.671424 0.667449 0.929593 0.198777
H32   H     H_    0.370566 0.385694 0.923621 0.211266
H33   H     H_    0.330388 0.497239 0.026579 0.188457
H34   H     H_    0.949124 0.814473 0.557378 0.188442
H35   H     H_    0.328576 0.332551 0.070409 0.198776
H36   H     H_    0.364176 0.232172 0.563029 0.159958
H37   H     H_    0.293402 0.186091 0.626728 0.190716
H38   H     H_    0.353743 0.171590 0.738899 0.177409
H39   H     H_    0.646259 0.828410 0.261106 0.177410
H40   H     H_    0.706589 0.813904 0.373317 0.190709
H41   H     H_    0.635809 0.767809 0.436965 0.159954
H42   H     H_    0.366247 0.932124 0.301081 0.251566
H43   H     H_    0.392679 0.777334 0.352919 0.251024
H44   H     H_    0.321037 0.824700 0.399037 0.260183
H45   H     H_    0.217892 0.606293 0.303934 0.157656
H46   H     H_    0.383998 0.833513 0.606067 0.199178
H47   H     H_    0.357543 0.986952 0.553525 0.204271
H48   H     H_    0.607321 0.222662 0.647083 0.251024
H49   H     H_    0.633753 0.067872 0.698917 0.251567
H50   H     H_    0.678962 0.175298 0.600962 0.260184
H51   H     H_    0.642456 0.013047 0.446472 0.204270
H52   H     H_    0.616001 0.166488 0.393934 0.199179
H53   H     H_    0.782107 0.393701 0.696067 0.157657
H54   H     H_    0.322161 0.606042 0.306157 0.179452
H55   H     H_    0.677838 0.393956 0.693843 0.179452
H56   H     H_    0.214746 0.376398 0.683009 0.162547
N1    N     N_R   0.851732 0.504481 0.505215 -0.455871
N2    N     N_R   0.148268 0.495512 0.494787 -0.455871
N3    N     N_3   0.500040 0.499970 0.858290 -0.256617
N4    N     N_3   0.499960 0.500030 0.141710 -0.256617
O1    O     O_R   0.500030 0.316850 0.620870 -0.605702
O2    O     O_2   0.148517 0.278037 0.453793 -0.541389
O3    O     O_2   0.850292 0.286979 0.464716 -0.538506
O4    O     O_2   0.149708 0.713015 0.535287 -0.538506
O5    O     O_3   0.598187 0.578105 0.876661 -0.561503
O6    O     O_3   0.401813 0.421895 0.123339 -0.561502
O7    O     O_3   0.325489 0.353179 0.704158 -0.609105
O8    O     O_3   0.674513 0.646821 0.295842 -0.609105
O9    O     O_R   0.499970 0.683150 0.379130 -0.605703
O10   O     O_R   0.500000 0.316860 0.379090 -0.580315
O11   O     O_R   0.500000 0.683140 0.620910 -0.580314
O12   O     O_R   0.417890 0.499960 0.620920 -0.574124
O13   O     O_R   0.582110 0.500040 0.379080 -0.574126
O14   O     O_R   0.417870 0.499970 0.379140 -0.526341
O15   O     O_R   0.582130 0.500030 0.620860 -0.526340
O16   O     O_2   0.851483 0.721956 0.546210 -0.541388

loop_
_geom_bond_atom_site_label_1
_geom_bond_atom_site_label_2
_ccdc_geom_bond_type
C46   H18   S    
C37   H12   S    
C52   H41   S    
C34   C56   A    
C23   C45   A    
C12   O9    A    
C27   C29   A    
C56   H55   S    
C45   H54   S    
C1    O10   A    
C16   O12   A    
C51   O7    S    
Cu1   O11   S    
C53   C54   S    
C29   C36   A    
C52   H40   S    
C33   C39   A    
C54   H42   S    
C19   C21   S    
C26   N2    A    
C20   C40   S    
C11   C14   S    
C19   C47   S    
C50   H33   S    
C57   H50   S    
C58   C60   A    
C43   H14   S    
C40   H11   S    
Cu1   N3    S    
Cu2   O14   S    
C21   N4    S    
C46   H20   S    
C7    C14   S    
C20   C24   S    
C44   C46   S    
C17   O13   A    
C48   H26   S    
C36   H1    S    
C41   H9    S    
C3    C60   A    
C44   H21   S    
C51   H36   S    
C42   H17   S    
C21   C22   S    
C43   H13   S    
C47   H27   S    
C26   O2    S    
C49   H29   S    
C25   N1    A    
C28   O4    S    
Cu1   O12   S    
C10   H4    S    
C51   H37   S    
C49   O5    S    
C45   C58   A    
C31   C33   A    
C54   H44   S    
C5    N2    S    
C32   C35   A    
Cu2   O10   S    
C35   C38   A    
C4    C6    A    
C28   N2    A    
C2    C59   A    
C50   H32   S    
C38   H23   S    
C44   H22   S    
C34   H53   S    
C6    C34   A    
C30   C37   A    
C15   C55   S    
Cu2   O13   S    
C2    C4    A    
C1    O1    A    
C3    H56   S    
C18   C44   S    
C46   H19   S    
C47   C48   S    
C5    C23   A    
C13   C15   S    
C23   H45   S    
C24   N4    S    
C48   H25   S    
C16   C58   S    
C9    C11   S    
C20   N3    S    
C52   H39   S    
C18   N4    S    
C8    C10   S    
C40   C41   S    
C17   C59   S    
C42   H16   S    
C8    C15   S    
C12   O11   A    
C55   C57   S    
C10   C14   S    
C47   H28   S    
C48   H24   S    
C1    C13   S    
C42   C43   S    
C49   H30   S    
C16   O14   A    
C6    N1    S    
Cu2   N4    S    
C22   N3    S    
C41   H7    S    
C53   H47   S    
C51   H38   S    
C7    C9    S    
C19   N3    S    
C50   H35   S    
C40   H10   S    
C54   H43   S    
C18   C22   S    
Cu2   O9    S    
C31   C32   A    
C3    C5    A    
C10   C13   S    
C60   O7    S    
C11   C12   S    
C57   H48   S    
C8    H6    S    
C55   H52   S    
C27   N1    A    
C43   H15   S    
C55   H51   S    
C4    H2    S    
C56   C59   A    
Cu1   O1    S    
C52   O8    S    
C36   C38   A    
C25   O16   S    
C9    C15   S    
C29   C31   A    
C30   C32   A    
C27   O3    S    
C53   H46   S    
Cu1   O15   S    
C22   O5    S    
C57   H49   S    
C8    C11   S    
C28   C30   A    
C2    O8    S    
C19   C24   S    
C18   C20   S    
Cu1   Cu2   S    
C9    H3    S    
C39   H34   S    
C7    H5    S    
C21   C42   S    
C26   C35   A    
C7    C13   S    
C14   C53   S    
C50   O6    S    
C37   C39   A    
C24   O6    S    
C17   O15   A    
C49   H31   S    
C25   C33   A    
C41   H8    S    
