data_mof_unit_19299.cif
_audit_creation_date              2012-12-10T17:47:06-0500
_audit_creation_method            fapswitch 2.2
_symmetry_space_group_name_H-M    P1
_symmetry_Int_Tables_number       1
_space_group_crystal_system       triclinic
_cell_length_a                    10.033675
_cell_length_b                    10.638781
_cell_length_c                    13.59732
_cell_angle_alpha                 92.226613
_cell_angle_beta                  83.423052
_cell_angle_gamma                 88.884455
_cell_volume                      1440.40132684

loop_
_atom_site_label
_atom_site_type_symbol
_atom_type_description
_atom_site_fract_x
_atom_site_fract_y
_atom_site_fract_z
_atom_type_partial_charge
C1    C     C_R   0.501168 0.737696 0.486115 0.912549
C2    C     C_R   0.623883 0.931773 0.469442 -0.152116
C3    C     C_R   0.621468 0.059926 0.485915 -0.146463
C4    C     C_R   0.476526 0.498136 0.685088 0.929112
C5    C     C_R   0.498964 0.124575 0.507715 -0.096015
C6    C     C_R   0.836062 0.600282 0.665191 -0.154133
C7    C     C_R   0.881960 0.592600 0.757633 -0.281265
C8    C     C_R   0.017486 0.563700 0.761645 0.358673
C9    C     C_R   0.104962 0.581960 0.675188 0.343243
C10   C     C_R   0.057548 0.540783 0.584471 -0.000330
C11   C     C_R   0.914731 0.546906 0.581615 0.186772
C12   C     C_1   0.460347 0.495224 0.788666 -0.082579
C13   C     C_R   0.942216 0.457570 0.420286 0.025243
C14   C     C_R   0.084486 0.459000 0.419873 -0.071128
C15   C     C_R   0.499619 0.259955 0.505980 0.888328
C16   C     C_R   0.523856 0.499935 0.314783 0.872546
C17   C     C_1   0.541952 0.501961 0.211091 -0.138279
C18   C     C_2   0.560288 0.504390 0.019311 -0.191787
C19   C     C_2   0.446138 0.491594 0.980195 -0.105029
C20   C     C_1   0.450217 0.492994 0.876346 0.137212
C21   C     C_1   0.555054 0.503560 0.123301 0.067631
C22   C     C_R   0.275812 0.899758 0.413185 0.008271
C23   C     C_R   0.150671 0.965586 0.433972 0.389101
C24   C     C_R   0.134306 0.053918 0.516682 0.374064
C25   C     C_R   0.251033 0.105560 0.550011 -0.051838
C26   C     C_R   0.377715 0.059312 0.507023 -0.020353
C27   C     C_R   0.384665 0.939951 0.461880 0.025069
C28   C     C_R   0.503839 0.869727 0.464523 -0.115131
H1    H     H_    0.350747 0.480672 0.025434 0.207678
H2    H     H_    0.352463 0.830961 0.693434 0.364776
H3    H     H_    0.218113 0.732174 0.355758 0.261341
H4    H     H_    0.296514 0.829203 0.271051 0.245817
H5    H     H_    0.999801 0.871179 0.210444 0.394753
H6    H     H_    0.804748 0.978302 0.634749 0.373931
H7    H     H_    0.219310 0.146124 0.698407 0.261922
H8    H     H_    0.174143 0.265317 0.626096 0.244522
H9    H     H_    0.742316 0.648556 0.659983 0.210931
H10   H     H_    0.814250 0.613710 0.824271 0.183217
H11   H     H_    0.147709 0.424581 0.354231 0.152062
H12   H     H_    0.655707 0.515473 0.974195 0.186433
H13   H     H_    0.718538 0.880839 0.462651 0.267665
H14   H     H_    0.714677 0.108139 0.483181 0.272361
H15   H     H_    0.900612 0.421666 0.355135 0.150429
H16   H     H_    0.926356 0.635679 0.982355 0.359755
N1    N     N_R   0.857120 0.501200 0.500900 -0.097858
N2    N     N_R   0.142720 0.501280 0.500940 -0.118859
N3    N     N_3   0.295599 0.795695 0.342198 -0.417473
N4    N     N_3   0.244663 0.193608 0.633369 -0.395417
O1    O     O_R   0.385310 0.683220 0.500000 -0.531901
O2    O     O_2   0.174767 0.644350 0.897554 -0.251458
O3    O     O_3   0.950875 0.545496 0.968893 -0.536853
O4    O     O_2   0.152470 0.790912 0.580253 -0.319664
O5    O     O_2   0.083316 0.817942 0.756384 -0.238021
O6    O     O_3   0.326996 0.742208 0.702002 -0.544745
O7    O     O_2   0.953930 0.809970 0.399684 -0.304394
O8    O     O_2   0.915526 0.033691 0.369751 -0.275680
O9    O     O_3   0.076723 0.904108 0.242297 -0.570451
O10   O     O_2   0.983901 0.122608 0.690776 -0.291952
O11   O     O_2   0.913572 0.201775 0.538462 -0.326439
O12   O     O_R   0.614640 0.683250 0.500010 -0.631934
O13   O     O_3   0.875462 0.965488 0.577937 -0.502446
O14   O     O_R   0.368830 0.499960 0.640340 -0.579036
O15   O     O_R   0.598160 0.499980 0.640350 -0.643620
O16   O     O_R   0.385360 0.316750 0.499990 -0.615157
O17   O     O_R   0.614690 0.316780 0.500000 -0.594045
O18   O     O_R   0.401840 0.500020 0.359650 -0.626906
O19   O     O_R   0.631170 0.500040 0.359660 -0.610194
O20   O     O_2   0.150205 0.417610 0.872914 -0.284130
S1    S     S_3+6 0.078187 0.543119 0.876795 0.060302
S2    S     S_3+6 0.166583 0.737160 0.678183 0.086372
S3    S     S_3+6 0.018023 0.928250 0.362530 0.036884
S4    S     S_3+6 0.974197 0.090575 0.583256 0.060071
Zn1   Zn    Zn3+2 0.346870 0.499980 0.499990 1.008012
Zn2   Zn    Zn3+2 0.653130 0.500020 0.500010 1.008030

loop_
_geom_bond_atom_site_label_1
_geom_bond_atom_site_label_2
_ccdc_geom_bond_type
C10   N2    A    
C1    C28   S    
C2    C28   A    
C15   O16   A    
O14   Zn1   S    
C6    C7    A    
O15   Zn2   S    
C23   S3    S    
O4    S2    D    
C4    C12   S    
C18   C21   S    
C9    C10   A    
O16   Zn1   S    
C19   C20   S    
O6    S2    S    
O11   S4    D    
C23   C24   A    
O8    S3    D    
C12   C20   T    
C22   N3    S    
C8    S1    S    
C6    H9    S    
C7    C8    A    
C14   N2    A    
C16   O19   A    
H3    N3    S    
C13   C14   A    
C24   C25   A    
C13   N1    A    
H2    O6    S    
C4    O15   A    
O10   S4    D    
C26   C27   A    
C16   C17   S    
N1    Zn2   S    
C1    O1    A    
O5    S2    D    
O13   S4    S    
O12   Zn2   S    
C25   C26   A    
O2    S1    D    
H8    N4    S    
C2    C3    A    
C22   C27   A    
N2    Zn1   S    
C24   S4    S    
H4    N3    S    
O1    Zn1   S    
C19   H1    S    
C11   N1    A    
C5    C15   S    
C10   C11   A    
H7    N4    S    
C2    H13   S    
C5    C26   A    
C15   O17   A    
C4    O14   A    
C13   H15   S    
C3    H14   S    
C16   O18   A    
C9    S2    S    
H16   O3    S    
O9    S3    S    
C1    O12   A    
C6    C11   A    
O19   Zn2   S    
C18   H12   S    
C22   C23   A    
C18   C19   D    
H5    O9    S    
O3    S1    S    
C3    C5    A    
C14   H11   S    
O20   S1    D    
O18   Zn1   S    
C25   N4    S    
C7    H10   S    
H6    O13   S    
O7    S3    D    
O17   Zn2   S    
C8    C9    A    
C27   C28   A    
C17   C21   T    
