data_mof_unit_41215.cif
_audit_creation_date              2012-12-10T17:37:45-0500
_audit_creation_method            fapswitch 2.2
_symmetry_space_group_name_H-M    P1
_symmetry_Int_Tables_number       1
_space_group_crystal_system       triclinic
_cell_length_a                    12.318847
_cell_length_b                    13.172265
_cell_length_c                    17.350897
_cell_angle_alpha                 105.003742
_cell_angle_beta                  74.828501
_cell_angle_gamma                 116.606705
_cell_volume                      2396.62291477

loop_
_atom_site_label
_atom_site_type_symbol
_atom_type_description
_atom_site_fract_x
_atom_site_fract_y
_atom_site_fract_z
_atom_type_partial_charge
C1    C     C_R   0.144436 0.714212 0.508805 0.816747
C2    C     C_R   0.887710 0.525061 0.796135 -0.190801
C3    C     C_R   0.957531 0.548482 0.161809 -0.152149
C4    C     C_R   0.946254 0.539865 0.241696 -0.204879
C5    C     C_R   0.116366 0.481057 0.204401 -0.201448
C6    C     C_R   0.127366 0.489430 0.124205 -0.171629
C7    C     C_R   0.046542 0.520944 0.102346 0.193820
C8    C     C_2   0.956620 0.496424 0.985196 -0.230284
C9    C     C_2   0.056116 0.523365 0.016971 -0.231776
C10   C     C_R   0.024866 0.505212 0.263493 -0.024389
C11   C     C_R   0.731160 0.977234 0.387524 -0.191452
C12   C     C_R   0.987077 0.502533 0.651996 0.790025
C13   C     C_R   0.774726 0.164559 0.470665 -0.050211
C14   C     C_R   0.180269 0.918555 0.568538 0.420397
C15   C     C_R   0.260805 0.034364 0.583795 -0.240685
C16   C     C_R   0.385406 0.070111 0.552734 -0.240471
C17   C     C_R   0.433858 0.991691 0.502385 0.082224
C18   C     C_R   0.350784 0.877534 0.477825 0.007444
C19   C     C_R   0.562196 0.023736 0.474397 0.092734
C20   C     C_R   0.604618 0.945962 0.416032 0.163000
C21   C     C_R   0.520191 0.839210 0.385203 -0.235337
C22   C     C_R   0.395183 0.806091 0.414639 -0.173864
C23   C     C_R   0.856022 0.286220 0.487819 0.800443
C24   C     C_R   0.650008 0.130889 0.503172 -0.252993
C25   C     C_R   0.815959 0.086642 0.414196 -0.191223
C26   C     C_R   0.225370 0.838551 0.516294 -0.151367
C27   C     C_R   0.641125 0.673701 0.630001 -0.304607
C28   C     C_R   0.250383 0.352285 0.389717 0.072339
C29   C     C_R   0.349146 0.320094 0.366023 -0.256489
C30   C     C_R   0.448806 0.375731 0.407453 -0.192514
C31   C     C_R   0.450931 0.464868 0.473627 -0.005367
C32   C     C_R   0.347209 0.494691 0.495834 0.287889
C33   C     C_R   0.551313 0.525174 0.518683 -0.036948
C34   C     C_R   0.013677 0.498590 0.348101 0.776754
C35   C     C_R   0.545361 0.613366 0.584639 0.174613
C36   C     C_R   0.443790 0.640891 0.605272 -0.282095
C37   C     C_R   0.347107 0.582875 0.562082 -0.188019
C38   C     C_R   0.658130 0.502353 0.501629 0.011619
C39   C     C_R   0.742982 0.646818 0.610267 0.094528
C40   C     C_R   0.979025 0.500573 0.737087 -0.026335
C41   C     C_R   0.061775 0.471878 0.759667 -0.210210
C42   C     C_R   0.054265 0.468852 0.840200 -0.149108
C43   C     C_R   0.964851 0.496077 0.899489 0.193072
C44   C     C_R   0.880437 0.522243 0.876937 -0.173407
Cu1   Cu    Cu3+1 0.900140 0.524980 0.518800 0.958716
Cu2   Cu    Cu3+1 0.099860 0.475020 0.481200 0.921859
H1    H     H_    0.131962 0.450956 0.715162 0.159560
H2    H     H_    0.197298 0.469113 0.078940 0.122562
H3    H     H_    0.912603 0.111875 0.388219 0.146796
H4    H     H_    0.550843 0.780908 0.338006 0.140758
H5    H     H_    0.764091 0.918374 0.342724 0.133502
H6    H     H_    0.624120 0.191288 0.550427 0.146979
H7    H     H_    0.440712 0.160732 0.567769 0.149810
H8    H     H_    0.227556 0.097250 0.622255 0.137683
H9    H     H_    0.334089 0.724917 0.385337 0.172233
H10   H     H_    0.817097 0.692996 0.645108 0.155585
H11   H     H_    0.876469 0.561207 0.286348 0.155906
H12   H     H_    0.438648 0.708190 0.655756 0.154155
H13   H     H_    0.637103 0.741213 0.680524 0.138888
H14   H     H_    0.173439 0.308467 0.357254 0.122165
H15   H     H_    0.522592 0.347184 0.386534 0.136069
H16   H     H_    0.348419 0.251671 0.315355 0.143810
H17   H     H_    0.273780 0.610318 0.583269 0.208651
H18   H     H_    0.179007 0.455366 0.219961 0.149830
H19   H     H_    0.146372 0.543812 0.979301 0.144363
H20   H     H_    0.810114 0.542161 0.922044 0.122416
H21   H     H_    0.897223 0.577634 0.147039 0.123486
H22   H     H_    0.822222 0.546611 0.780059 0.151019
H23   H     H_    0.866427 0.475790 0.023010 0.144751
H24   H     H_    0.117418 0.443636 0.855468 0.124024
N1    N     N_R   0.749710 0.562810 0.547300 -0.184821
N2    N     N_R   0.249640 0.437820 0.453210 -0.206561
O1    O     O_R   0.025490 0.682370 0.523640 -0.513290
O2    O     O_R   0.194150 0.640180 0.491890 -0.618077
O3    O     O_R   0.905900 0.523560 0.631310 -0.587218
O4    O     O_R   0.074570 0.481370 0.599560 -0.606709
O5    O     O_R   0.805850 0.359820 0.508110 -0.589120
O6    O     O_R   0.974510 0.317630 0.476360 -0.585320
O7    O     O_R   0.925430 0.518630 0.400440 -0.591526
O8    O     O_R   0.094100 0.476440 0.368690 -0.600578
O9    O     O_3   0.058118 0.881939 0.605432 -0.736368
H25   H     H_    0.042573 0.948605 0.639896 0.311860
H26   H     H_    0.670607 0.437089 0.452500 0.124562

loop_
_geom_bond_atom_site_label_1
_geom_bond_atom_site_label_2
_ccdc_geom_bond_type
C24   H6    S    
C38   H26   S    
Cu1   N1    S    
C41   C42   A    
C44   H20   S    
C35   C36   A    
C18   C26   A    
C8    C43   S    
Cu2   O4    S    
O9    H25   S    
C32   N2    A    
Cu1   Cu2   S    
C8    H23   S    
C6    H2    S    
C1    O2    A    
C36   C37   A    
C3    C7    A    
C5    C6    A    
C11   C25   A    
C15   C16   A    
C42   H24   S    
C13   C23   S    
Cu1   O1    S    
C16   H7    S    
C17   C19   A    
C29   H16   S    
C2    H22   S    
C31   C32   A    
C2    C44   A    
C16   C17   A    
C4    H11   S    
C31   C33   A    
Cu2   N2    S    
C34   O8    A    
C21   C22   A    
C13   C25   A    
C28   N2    A    
C21   H4    S    
C37   H17   S    
C9    H19   S    
C28   H14   S    
C11   C20   A    
C15   H8    S    
Cu1   O7    S    
C27   C39   A    
Cu2   O6    S    
C8    C9    D    
C27   C35   A    
C23   O5    A    
C5    H18   S    
C12   C40   S    
C43   C44   A    
C29   C30   A    
C34   O7    A    
C39   H10   S    
C17   C18   A    
C41   H1    S    
C10   C34   S    
C32   C37   A    
C14   C26   A    
C6    C7    A    
C40   C41   A    
C12   O4    A    
C1    C26   S    
C12   O3    A    
C42   C43   A    
C4    C10   A    
C3    C4    A    
Cu2   O2    S    
C7    C9    S    
C38   N1    A    
C28   C29   A    
C18   C22   A    
C3    H21   S    
C22   H9    S    
C36   H12   S    
C33   C38   A    
Cu1   O3    S    
C1    O1    A    
C19   C20   A    
C19   C24   A    
C5    C10   A    
C27   H13   S    
Cu2   O8    S    
C30   C31   A    
C33   C35   A    
C23   O6    A    
C25   H3    S    
C11   H5    S    
C2    C40   A    
C20   C21   A    
C13   C24   A    
C30   H15   S    
C39   N1    A    
C14   C15   A    
Cu1   O5    S    
C14   O9    S    
