data_mof_unit_18023.cif
_audit_creation_date              2012-12-11T15:15:47-0500
_audit_creation_method            fapswitch 2.2
_symmetry_space_group_name_H-M    P1
_symmetry_Int_Tables_number       1
_space_group_crystal_system       triclinic
_cell_length_a                    20.692446
_cell_length_b                    22.738263
_cell_length_c                    6.948424
_cell_angle_alpha                 89.999843
_cell_angle_beta                  87.577548
_cell_angle_gamma                 90.0
_cell_volume                      3266.3832825

loop_
_atom_site_label
_atom_site_type_symbol
_atom_type_description
_atom_site_fract_x
_atom_site_fract_y
_atom_site_fract_z
_atom_type_partial_charge
O1    O     O_R   0.387100 0.552640 0.378490 -0.526602
O2    O     O_R   0.612900 0.052640 0.621510 -0.526602
O3    O     O_R   0.249610 0.559600 0.072250 -0.555741
O4    O     O_R   0.750390 0.059600 0.927750 -0.555741
O5    O     O_R   0.249120 0.447360 0.902040 -0.566482
O6    O     O_R   0.750880 0.947360 0.097960 -0.566481
C1    C     C_R   0.227284 0.573849 0.243638 0.682831
C2    C     C_R   0.772717 0.073849 0.756362 0.682831
O7    O     O_R   0.386610 0.559560 0.048860 -0.526896
O8    O     O_R   0.613390 0.059560 0.951140 -0.526898
O9    O     O_R   0.387100 0.447320 0.878470 -0.527432
O10   O     O_R   0.612900 0.947320 0.121530 -0.527435
C3    C     C_R   0.407968 0.574500 0.216116 0.827428
C4    C     C_R   0.592030 0.074498 0.783885 0.827431
O11   O     O_R   0.249120 0.552680 0.402050 -0.528609
O12   O     O_R   0.750880 0.052680 0.597950 -0.528609
O13   O     O_3   0.318110 0.463180 0.223790 -0.378311
O14   O     O_3   0.681890 0.963180 0.776210 -0.378310
V1    V     V_3+5 0.318110 0.506830 0.948930 1.500615
V2    V     V_3+5 0.681890 0.006830 0.051070 1.500613
O15   O     O_R   0.386610 0.440400 0.548840 -0.499883
O16   O     O_R   0.613390 0.940400 0.451160 -0.499882
C5    C     C_R   0.407380 0.424422 0.715844 0.871785
C6    C     C_R   0.592618 0.924424 0.284157 0.871791
O17   O     O_R   0.249610 0.440440 0.572240 -0.523334
O18   O     O_R   0.750390 0.940440 0.427760 -0.523335
C7    C     C_R   0.225069 0.428598 0.743752 0.707597
C8    C     C_R   0.774931 0.928597 0.256248 0.707596
V3    V     V_3+5 0.318110 0.493170 0.448930 1.564471
V4    V     V_3+5 0.681890 0.993170 0.551070 1.564471
O19   O     O_3   0.318110 0.536820 0.723940 -0.375659
O20   O     O_3   0.681890 0.036820 0.276060 -0.375659
C9    C     C_R   0.166596 0.390511 0.762562 -0.198567
C10   C     C_R   0.833404 0.890511 0.237437 -0.198570
C11   C     C_R   0.144415 0.357737 0.606127 0.436406
C12   C     C_R   0.855587 0.857739 0.393872 0.436402
C13   C     C_R   0.091970 0.319053 0.634691 -0.321558
C14   C     C_R   0.908033 0.819055 0.365309 -0.321557
C15   C     C_R   0.060844 0.312804 0.816614 -0.080117
C16   C     C_R   0.939158 0.812807 0.183386 -0.080122
C17   C     C_R   0.079456 0.349128 0.968880 0.477275
C18   C     C_R   0.920544 0.849129 0.031118 0.477281
C19   C     C_R   0.132232 0.386943 0.941261 -0.319054
C20   C     C_R   0.867768 0.886943 0.058736 -0.319050
C21   C     C_R   0.882580 0.196938 0.905077 -0.081789
C22   C     C_R   0.117423 0.696941 0.094921 -0.081796
C23   C     C_R   0.837217 0.151746 0.910894 -0.258689
C24   C     C_R   0.162786 0.651748 0.089105 -0.258700
C25   C     C_R   0.858753 0.133199 0.569293 0.400873
C26   C     C_R   0.141248 0.633201 0.430705 0.400880
C27   C     C_R   0.903455 0.179570 0.564963 -0.215920
C28   C     C_R   0.096547 0.679573 0.435034 -0.215921
C29   C     C_R   0.916998 0.210336 0.733020 0.143194
C30   C     C_R   0.083005 0.710338 0.266977 0.143194
C31   C     C_2   0.011756 0.266132 0.848649 0.406032
C32   C     C_2   0.988247 0.766134 0.151350 0.406038
C33   C     C_2   0.964672 0.258604 0.722233 -0.272261
C34   C     C_2   0.035332 0.758607 0.277765 -0.272261
C35   C     C_R   0.824195 0.119333 0.744115 -0.151971
C36   C     C_R   0.175806 0.619335 0.255884 -0.151968
H1    H     H_    0.810888 0.143463 0.046046 0.194607
H2    H     H_    0.189115 0.643466 0.953953 0.194612
H3    H     H_    0.962987 0.287553 0.598087 0.117171
H4    H     H_    0.037017 0.787556 0.401909 0.117169
H5    H     H_    0.889619 0.222287 0.034428 0.156226
H6    H     H_    0.110385 0.722290 0.965570 0.156229
H7    H     H_    0.146058 0.413833 0.061340 0.184702
H8    H     H_    0.853941 0.913833 0.938657 0.184702
H9    H     H_    0.076324 0.292957 0.514917 0.187714
H10   H     H_    0.923680 0.792960 0.485084 0.187717
H11   H     H_    0.927921 0.191430 0.429499 0.165848
H12   H     H_    0.072081 0.691431 0.570498 0.165847
C37   C     C_R   0.566279 0.361455 0.865865 0.374066
C38   C     C_R   0.433726 0.861456 0.134077 0.374049
C39   C     C_R   0.462527 0.382212 0.728214 -0.254820
C40   C     C_R   0.537469 0.882215 0.271785 -0.254804
C41   C     C_R   0.475908 0.091548 0.737680 0.314239
C42   C     C_R   0.524090 0.591552 0.262311 0.314242
C43   C     C_R   0.420590 0.126876 0.743482 0.235721
C44   C     C_R   0.579407 0.626882 0.256504 0.235719
C45   C     C_R   0.426364 0.189777 0.739473 0.354731
C46   C     C_R   0.573633 0.689781 0.260529 0.354729
C47   C     C_R   0.489486 0.215863 0.751454 0.038843
C48   C     C_R   0.510510 0.715866 0.248553 0.038840
C49   C     C_R   0.543090 0.177535 0.784062 -0.135013
C50   C     C_R   0.456906 0.677539 0.215944 -0.135010
C51   C     C_R   0.500808 0.279149 0.750078 -0.013804
C52   C     C_R   0.499189 0.779152 0.249922 -0.013809
C53   C     C_R   0.560149 0.300872 0.820329 -0.188276
C54   C     C_R   0.439852 0.800875 0.179642 -0.188271
C55   C     C_R   0.612933 0.261772 0.835196 0.506951
C56   C     C_R   0.387067 0.761776 0.164775 0.506958
C57   C     C_R   0.603656 0.201606 0.819813 -0.197450
C58   C     C_R   0.396341 0.701610 0.180184 -0.197448
C59   C     C_R   0.457206 0.322131 0.677663 0.349916
C60   C     C_R   0.542788 0.822134 0.322345 0.349928
C61   C     C_R   0.517801 0.401302 0.819424 0.347575
C62   C     C_R   0.482201 0.901303 0.180541 0.347555
C63   C     C_R   0.536223 0.115491 0.774448 -0.218957
C64   C     C_R   0.463773 0.615494 0.225556 -0.218979
H13   H     H_    0.645426 0.173683 0.836998 0.106663
H14   H     H_    0.354570 0.673687 0.162999 0.106659
O21   O     O_3   0.171264 0.367271 0.423503 -0.563256
C65   C     C_3   0.195375 0.314518 0.340924 0.068422
H15   H     H_    0.157418 0.294361 0.253831 0.198746
H16   H     H_    0.210125 0.281857 0.449894 0.088151
C66   C     C_3   0.254833 0.329759 0.213734 -0.262927
H17   H     H_    0.249404 0.374495 0.155744 0.235452
H18   H     H_    0.298275 0.330006 0.301425 0.227389
C67   C     C_3   0.264674 0.288140 0.044305 -0.828410
H19   H     H_    0.271090 0.242284 0.093078 0.238019
H20   H     H_    0.308448 0.302327 0.959037 0.263613
H21   H     H_    0.222483 0.289845 0.951081 0.226429
O22   O     O_3   0.828738 0.867272 0.576496 -0.563257
C68   C     C_3   0.804626 0.814518 0.659071 0.068420
H22   H     H_    0.842582 0.794361 0.746167 0.198746
H23   H     H_    0.789877 0.781858 0.550097 0.088154
C69   C     C_3   0.745167 0.829758 0.786255 -0.262919
H24   H     H_    0.750594 0.874493 0.844251 0.235449
H25   H     H_    0.701726 0.830005 0.698557 0.227392
C70   C     C_3   0.735324 0.788136 0.955677 -0.828424
H26   H     H_    0.728912 0.742280 0.906898 0.238008
H27   H     H_    0.691547 0.802320 0.040936 0.263621
H28   H     H_    0.777513 0.789843 0.048911 0.226427
Cl1   Cl    Cl    0.529571 0.477432 0.855846 -0.554967
Cl2   Cl    Cl    0.470433 0.977433 0.144097 -0.554956
O23   O     O_3   0.675510 0.281224 0.859139 -0.550257
C71   C     C_3   0.702654 0.302168 0.681052 0.126494
H29   H     H_    0.740147 0.335191 0.714450 0.170066
H30   H     H_    0.667037 0.325380 0.591705 0.138107
C72   C     C_3   0.735130 0.252092 0.565519 -0.369241
H31   H     H_    0.769074 0.228949 0.658466 0.215793
H32   H     H_    0.698062 0.220229 0.520024 0.195853
C73   C     C_3   0.772412 0.274987 0.386647 -0.762709
H33   H     H_    0.739359 0.298632 0.291269 0.274709
H34   H     H_    0.794466 0.237433 0.305573 0.236719
H35   H     H_    0.811677 0.305134 0.428422 0.214477
O24   O     O_3   0.324492 0.781231 0.140808 -0.550255
C74   C     C_3   0.297344 0.802182 0.318881 0.126469
H36   H     H_    0.259854 0.835206 0.285462 0.170065
H37   H     H_    0.332959 0.825393 0.408235 0.138111
C75   C     C_3   0.264859 0.752112 0.434417 -0.369226
H38   H     H_    0.230916 0.728968 0.341465 0.215795
H39   H     H_    0.301922 0.720248 0.479928 0.195858
C76   C     C_3   0.227573 0.775011 0.613274 -0.762709
H40   H     H_    0.260622 0.798662 0.708646 0.274710
H41   H     H_    0.205519 0.737460 0.694362 0.236713
H42   H     H_    0.188307 0.805154 0.571481 0.214480
Cl3   Cl    Cl    0.629849 0.388095 0.005301 -0.570859
Cl4   Cl    Cl    0.370173 0.888089 0.994561 -0.570755
Cl5   Cl    Cl    0.415198 0.307491 0.468073 -0.681296
Cl6   Cl    Cl    0.584799 0.807492 0.531932 -0.681269
Cl7   Cl    Cl    0.468050 0.015899 0.680988 -0.495905
Cl8   Cl    Cl    0.531955 0.515900 0.318943 -0.495934
O25   O     O_3   0.373179 0.227816 0.749195 -0.564458
C77   C     C_3   0.314272 0.207690 0.674483 0.187837
H43   H     H_    0.281068 0.245889 0.677013 0.111819
H44   H     H_    0.289273 0.176204 0.773467 0.139542
C78   C     C_3   0.318734 0.187232 0.462758 -0.258753
H45   H     H_    0.324456 0.226107 0.368269 0.219747
H46   H     H_    0.360924 0.158422 0.429706 0.227352
C79   C     C_3   0.257274 0.154368 0.412949 -0.841071
H47   H     H_    0.255961 0.110654 0.484246 0.260956
H48   H     H_    0.256137 0.148129 0.255147 0.222964
H49   H     H_    0.213391 0.179347 0.460536 0.227070
O26   O     O_3   0.626818 0.727821 0.250808 -0.564458
C80   C     C_3   0.685727 0.707693 0.325501 0.187844
H50   H     H_    0.718929 0.745894 0.322984 0.111824
H51   H     H_    0.710727 0.676213 0.226500 0.139557
C81   C     C_3   0.681272 0.687224 0.537214 -0.258811
H52   H     H_    0.675545 0.726094 0.631724 0.219743
H53   H     H_    0.639089 0.658406 0.570260 0.227332
C82   C     C_3   0.742741 0.654366 0.586987 -0.841041
H54   H     H_    0.744056 0.610654 0.515675 0.260955
H55   H     H_    0.743888 0.648122 0.744784 0.222955
H56   H     H_    0.786618 0.679350 0.539388 0.227069
O27   O     O_3   0.361533 0.098735 0.734692 -0.560425
C83   C     C_3   0.341880 0.077642 0.919433 0.126558
H57   H     H_    0.329168 0.115100 0.016445 0.092126
H58   H     H_    0.380485 0.051544 0.985514 0.221594
C84   C     C_3   0.282858 0.037966 0.899387 -0.261760
H59   H     H_    0.243058 0.063530 0.836768 0.175207
H60   H     H_    0.295946 0.001258 0.799449 0.257458
C85   C     C_3   0.259040 0.012258 0.092575 -0.747746
H61   H     H_    0.299115 0.990146 0.165502 0.288972
H62   H     H_    0.220409 0.979475 0.068719 0.227152
H63   H     H_    0.238606 0.047357 0.187416 0.217389
O28   O     O_3   0.638465 0.598740 0.265223 -0.560424
C86   C     C_3   0.658101 0.577664 0.080445 0.126460
H64   H     H_    0.670891 0.615128 0.983550 0.092119
H65   H     H_    0.619461 0.551645 0.014228 0.221420
C87   C     C_3   0.717045 0.537893 0.100446 -0.261471
H66   H     H_    0.756873 0.563371 0.163269 0.175191
H67   H     H_    0.703869 0.501164 0.200200 0.257629
C88   C     C_3   0.740867 0.512234 0.907196 -0.747694
H68   H     H_    0.700768 0.490231 0.834046 0.288970
H69   H     H_    0.779416 0.479367 0.930995 0.227237
H70   H     H_    0.761408 0.547340 0.812579 0.217322
O29   O     O_3   0.844680 0.106327 0.397589 -0.577771
C89   C     C_3   0.882212 0.054695 0.371519 0.088131
H71   H     H_    0.855105 0.025184 0.276789 0.141988
H72   H     H_    0.888813 0.030024 0.508266 0.093905
C90   C     C_3   0.947885 0.068374 0.270834 -0.300522
H73   H     H_    0.941001 0.098564 0.147656 0.245097
H74   H     H_    0.979722 0.090284 0.373791 0.207107
C91   C     C_3   0.981025 0.012434 0.195794 -0.833328
H75   H     H_    0.986501 0.980437 0.314693 0.227609
H76   H     H_    0.029713 0.023333 0.132409 0.246919
H77   H     H_    0.952203 0.992025 0.082249 0.227558
O30   O     O_3   0.155319 0.606327 0.602408 -0.577768
C92   C     C_3   0.117784 0.554697 0.628475 0.088130
H78   H     H_    0.144892 0.525182 0.723190 0.141985
H79   H     H_    0.111178 0.530029 0.491725 0.093903
C93   C     C_3   0.052116 0.568377 0.729181 -0.300515
H80   H     H_    0.059006 0.598561 0.852370 0.245089
H81   H     H_    0.020278 0.590294 0.626242 0.207115
C94   C     C_3   0.018972 0.512436 0.804201 -0.833331
H82   H     H_    0.013485 0.480447 0.685285 0.227613
H83   H     H_    0.970288 0.523338 0.867613 0.246924
H84   H     H_    0.047796 0.492017 0.917721 0.227555
O31   O     O_3   0.048777 0.346551 0.149463 -0.553060
C95   C     C_3   0.987079 0.373385 0.146268 0.094348
H85   H     H_    0.949607 0.338350 0.156171 0.148392
H86   H     H_    0.978967 0.399725 0.013517 0.094639
C96   C     C_3   0.978529 0.413993 0.320764 -0.303464
H87   H     H_    0.984833 0.388386 0.454869 0.197678
H88   H     H_    0.016181 0.448893 0.311861 0.197262
C97   C     C_3   0.911798 0.442691 0.330122 -0.833636
H89   H     H_    0.904929 0.469652 0.199205 0.238466
H90   H     H_    0.907261 0.471755 0.458422 0.238774
H91   H     H_    0.873413 0.408570 0.342058 0.232251
O32   O     O_3   0.951224 0.846553 0.850536 -0.553059
C98   C     C_3   0.012920 0.873391 0.853732 0.094343
H92   H     H_    0.050395 0.838359 0.843837 0.148388
H93   H     H_    0.021029 0.899733 0.986481 0.094641
C99   C     C_3   0.021469 0.913997 0.679231 -0.303453
H94   H     H_    0.015175 0.888388 0.545126 0.197666
H95   H     H_    0.983810 0.948891 0.688116 0.197266
C100  C     C_3   0.088194 0.942707 0.669891 -0.833634
H96   H     H_    0.095054 0.969670 0.800807 0.238458
H97   H     H_    0.092731 0.971769 0.541586 0.238780
H98   H     H_    0.126587 0.908592 0.657973 0.232256
Cl9   Cl    Cl    0.023298 0.216517 0.040520 -0.702918
Cl10  Cl    Cl    0.976704 0.716520 0.959480 -0.702914

loop_
_geom_bond_atom_site_label_1
_geom_bond_atom_site_label_2
_ccdc_geom_bond_type
C47   C51   A    
C90   H73   S    
C52   C60   A    
O11   V3    S    
C13   H9    S    
O13   V3    S    
C100  H96   S    
C45   O25   S    
O4    C2    A    
C72   C73   S    
V1    O19   S    
C71   H29   S    
C73   H35   S    
C97   H90   S    
C76   H40   S    
C39   C59   A    
C4    C63   S    
C80   H51   S    
C17   O31   S    
C82   H54   S    
C85   H61   S    
C94   H84   S    
C37   C61   A    
C90   H74   S    
O9    V1    S    
C31   Cl9   S    
C49   C63   A    
C77   H43   S    
C11   C13   A    
C48   C50   A    
C42   C64   A    
C22   H6    S    
C11   O21   S    
C2    C35   S    
C25   O29   S    
C85   H62   S    
C74   C75   S    
C91   H76   S    
C82   H56   S    
C81   H52   S    
C40   C62   A    
C68   H22   S    
C60   Cl6   S    
C39   C61   A    
C96   C97   S    
C99   H94   S    
C86   H65   S    
O7    C3    A    
C69   H24   S    
C97   H89   S    
C70   H28   S    
C50   C58   A    
C41   Cl7   S    
O5    C7    A    
C49   C57   A    
C77   H44   S    
O7    V1    S    
C9    C11   A    
C15   C31   S    
C78   H45   S    
O8    V2    S    
C89   H71   S    
C16   C32   S    
C51   C59   A    
C26   C28   A    
C66   H17   S    
C78   H46   S    
O3    V1    S    
O14   V4    S    
C32   C34   D    
C53   C55   A    
C50   C64   A    
C98   H92   S    
O14   V2    S    
C88   H70   S    
C37   Cl3   S    
C16   C18   A    
C32   Cl10  S    
C56   O24   S    
O29   C89   S    
C2    O12   A    
C14   C16   A    
C34   H4    S    
C17   C19   A    
C75   C76   S    
O10   V2    S    
C86   H64   S    
C18   C20   A    
C65   H16   S    
C65   H15   S    
C45   C47   A    
C28   C30   A    
C24   C36   A    
C80   C81   S    
C79   H48   S    
C21   C23   A    
O17   V3    S    
C96   H88   S    
C90   C91   S    
C22   C24   A    
C78   C79   S    
C23   C35   A    
C46   O26   S    
C76   H41   S    
C9    C19   A    
C87   C88   S    
C83   H57   S    
C10   C20   A    
C61   Cl1   S    
O8    C4    A    
C84   H60   S    
C57   H13   S    
C80   H50   S    
C43   C45   A    
C29   C33   S    
C93   H80   S    
C6    C40   S    
C73   H34   S    
C1    O11   A    
C95   C96   S    
C25   C27   A    
C94   H82   S    
C84   H59   S    
O15   V3    S    
C7    C9    S    
C67   H19   S    
O28   C86   S    
C27   C29   A    
C69   C70   S    
C87   H67   S    
C86   C87   S    
C19   H7    S    
O31   C95   S    
C28   H12   S    
C55   C57   A    
C79   H49   S    
C98   H93   S    
C54   C56   A    
C92   H78   S    
C62   Cl2   S    
C68   C69   S    
C22   C30   A    
C43   O27   S    
C96   H87   S    
C44   O28   S    
C41   C43   A    
C100  H97   S    
C65   C66   S    
C95   H86   S    
C42   C44   A    
C67   H21   S    
C26   O30   S    
C70   H26   S    
C82   H55   S    
C55   O23   S    
O27   C83   S    
C69   H25   S    
C44   C46   A    
C14   H10   S    
C47   C49   A    
C52   C54   A    
O18   V4    S    
C46   C48   A    
C31   C33   D    
C21   H5    S    
O26   C80   S    
C30   C34   S    
C66   C67   S    
O16   C6    A    
C20   H8    S    
O1    C3    A    
O1    V3    S    
C99   C100  S    
C72   H31   S    
C71   C72   S    
C1    C36   S    
O21   C65   S    
C76   H42   S    
C79   H47   S    
V2    O20   S    
C84   C85   S    
C68   H23   S    
C38   C62   A    
C92   H79   S    
C91   H75   S    
O18   C8    A    
C77   C78   S    
C42   Cl8   S    
C48   C52   A    
C33   H3    S    
C5    C39   S    
C72   H32   S    
C93   C94   S    
C71   H30   S    
C23   H1    S    
C83   H58   S    
C74   H36   S    
C27   H11   S    
O22   C68   S    
C73   H33   S    
O5    V1    S    
C94   H83   S    
C15   C17   A    
O6    V2    S    
O10   C6    A    
O3    C1    A    
C25   C35   A    
C85   H63   S    
O2    V4    S    
C26   C36   A    
C87   H66   S    
C38   C54   A    
C3    C64   S    
O15   C5    A    
C24   H2    S    
C93   H81   S    
C37   C53   A    
V3    O19   S    
O16   V4    S    
C40   C60   A    
C12   C14   A    
V4    O20   S    
C74   H37   S    
C91   H77   S    
C56   C58   A    
C66   H18   S    
C81   H53   S    
C89   C90   S    
O9    C5    A    
O32   C98   S    
O13   V1    S    
C99   H95   S    
C12   O22   S    
C41   C63   A    
C100  H98   S    
C10   C12   A    
C8    C10   S    
C95   H85   S    
O2    C4    A    
C98   C99   S    
C67   H20   S    
C70   H27   S    
C83   C84   S    
O24   C74   S    
C21   C29   A    
C88   H68   S    
O4    V2    S    
O6    C8    A    
C13   C15   A    
C92   C93   S    
C59   Cl5   S    
C58   H14   S    
C89   H72   S    
O30   C92   S    
O25   C77   S    
C51   C53   A    
C75   H38   S    
C38   Cl4   S    
O12   V4    S    
C81   C82   S    
C97   H91   S    
C75   H39   S    
O23   C71   S    
C88   H69   S    
O17   C7    A    
C18   O32   S    
