data_mof_unit_14790.cif
_audit_creation_date              2012-12-10T19:09:31-0500
_audit_creation_method            fapswitch 2.2
_symmetry_space_group_name_H-M    P1
_symmetry_Int_Tables_number       1
_space_group_crystal_system       triclinic
_cell_length_a                    16.33399
_cell_length_b                    15.959553
_cell_length_c                    10.415674
_cell_angle_alpha                 91.050317
_cell_angle_beta                  89.736014
_cell_angle_gamma                 90.037532
_cell_volume                      2714.70555573

loop_
_atom_site_label
_atom_site_type_symbol
_atom_type_description
_atom_site_fract_x
_atom_site_fract_y
_atom_site_fract_z
_atom_type_partial_charge
C1    C     C_R   0.121911 0.381759 0.498620 0.980413
C2    C     C_R   0.882481 0.624297 0.500523 0.926507
C3    C     C_R   0.384130 0.874394 0.499636 0.930811
C4    C     C_R   0.382481 0.124297 0.500523 0.926507
C5    C     C_3   0.834456 0.226129 0.603455 0.023358
C6    C     C_3   0.808238 0.251490 0.363510 0.022831
C7    C     C_3   0.834788 0.773270 0.400031 0.001294
C8    C     C_3   0.804094 0.743944 0.638443 0.049409
C9    C     C_3   0.334456 0.726129 0.603455 0.023358
C10   C     C_3   0.308238 0.751490 0.363510 0.022830
C11   C     C_3   0.334788 0.273270 0.400031 0.001294
C12   C     C_R   0.121649 0.618748 0.501132 0.972493
C13   C     C_3   0.304094 0.243944 0.638443 0.049409
C14   C     C_3   0.273609 0.650877 0.569943 0.129443
C15   C     C_3   0.223508 0.702256 0.364748 0.102672
C16   C     C_3   0.273423 0.348544 0.430479 0.132708
C17   C     C_3   0.221744 0.296663 0.635300 0.094585
C18   C     C_3   0.773609 0.150876 0.569943 0.129443
C19   C     C_3   0.723508 0.202256 0.364748 0.102672
C20   C     C_3   0.773423 0.848544 0.430479 0.132707
C21   C     C_3   0.721744 0.796663 0.635300 0.094585
C22   C     C_3   0.732523 0.341783 0.541098 0.565813
C23   C     C_R   0.621911 0.881759 0.498620 0.980413
C24   C     C_3   0.729995 0.658429 0.454627 0.569631
C25   C     C_3   0.232523 0.841783 0.541098 0.565813
C26   C     C_3   0.229995 0.158429 0.454627 0.569631
C27   C     C_3   0.817924 0.301066 0.501245 -0.190805
C28   C     C_3   0.815774 0.697305 0.499262 -0.220446
C29   C     C_3   0.317924 0.801066 0.501245 -0.190805
C30   C     C_3   0.315774 0.197305 0.499262 -0.220446
C31   C     C_3   0.192890 0.684280 0.504554 -0.307338
C32   C     C_3   0.192517 0.315868 0.494912 -0.309006
C33   C     C_3   0.692890 0.184280 0.504554 -0.307338
C34   C     C_R   0.621649 0.118748 0.501132 0.972493
C35   C     C_3   0.692517 0.815868 0.494912 -0.309006
C36   C     C_3   0.166941 0.771711 0.569989 0.583503
C37   C     C_3   0.166143 0.230166 0.426023 0.582261
C38   C     C_3   0.666941 0.271711 0.569989 0.583503
C39   C     C_3   0.666143 0.730166 0.426023 0.582261
C40   C     C_3   0.037322 0.422120 0.075842 0.332340
C41   C     C_3   0.045428 0.426306 0.918423 0.362238
C42   C     C_3   0.033742 0.579686 0.924511 0.318970
C43   C     C_3   0.044248 0.574873 0.081896 0.378905
C44   C     C_3   0.537322 0.922120 0.075842 0.332340
C45   C     C_3   0.914023 0.509976 0.075613 0.491979
C46   C     C_3   0.545428 0.926306 0.918423 0.362238
C47   C     C_3   0.533742 0.079686 0.924511 0.318970
C48   C     C_3   0.544247 0.074873 0.081896 0.378904
C49   C     C_3   0.914335 0.488814 0.924153 0.513110
C50   C     C_3   0.414024 0.009976 0.075613 0.491979
C51   C     C_3   0.414335 0.988814 0.924153 0.513110
C52   C     C_R   0.884130 0.374394 0.499636 0.930811
Cl1   Cl    Cl    0.269187 0.568247 0.682934 -0.486385
Cl2   Cl    Cl    0.699602 0.412588 0.420941 -0.317245
Cl3   Cl    Cl    0.738053 0.589605 0.318917 -0.242601
Cl4   Cl    Cl    0.690929 0.585740 0.567575 -0.327263
Cl5   Cl    Cl    0.238308 0.912958 0.674551 -0.249875
Cl6   Cl    Cl    0.199601 0.912588 0.420941 -0.317245
Cl7   Cl    Cl    0.238053 0.089605 0.318917 -0.242601
Cl8   Cl    Cl    0.190929 0.085740 0.567575 -0.327263
Cl9   Cl    Cl    0.144254 0.764387 0.736371 -0.424447
Cl10  Cl    Cl    0.069705 0.807465 0.529065 -0.514797
Cl11  Cl    Cl    0.148370 0.240825 0.258691 -0.394066
Cl12  Cl    Cl    0.144306 0.751093 0.273885 -0.539566
Cl13  Cl    Cl    0.066368 0.197907 0.462802 -0.509825
Cl14  Cl    Cl    0.644254 0.264387 0.736371 -0.424447
Cl15  Cl    Cl    0.569705 0.307465 0.529065 -0.514797
Cl16  Cl    Cl    0.648370 0.740825 0.258692 -0.394066
Cl17  Cl    Cl    0.566368 0.697907 0.462802 -0.509825
Cl18  Cl    Cl    0.136346 0.401232 0.132593 -0.294791
Cl19  Cl    Cl    0.151080 0.427032 0.864687 -0.347183
Cl20  Cl    Cl    0.131153 0.605478 0.863812 -0.337906
Cl21  Cl    Cl    0.150886 0.577430 0.130361 -0.365119
Cl22  Cl    Cl    0.636347 0.901232 0.132593 -0.294791
Cl23  Cl    Cl    0.271299 0.430914 0.317115 -0.484778
Cl24  Cl    Cl    0.651080 0.927032 0.864687 -0.347183
Cl25  Cl    Cl    0.631153 0.105478 0.863812 -0.337906
Cl26  Cl    Cl    0.650886 0.077430 0.130361 -0.365119
Cl27  Cl    Cl    0.838769 0.459260 0.159502 -0.380458
Cl28  Cl    Cl    0.861208 0.393049 0.897368 -0.490852
Cl29  Cl    Cl    0.840056 0.539741 0.840403 -0.353437
Cl30  Cl    Cl    0.862228 0.608016 0.096163 -0.446748
Cl31  Cl    Cl    0.338769 0.959260 0.159502 -0.380458
Cl32  Cl    Cl    0.361208 0.893050 0.897367 -0.490852
Cl33  Cl    Cl    0.340056 0.039741 0.840403 -0.353437
Cl34  Cl    Cl    0.139622 0.249539 0.723478 -0.553562
Cl35  Cl    Cl    0.362228 0.108016 0.096163 -0.446748
Cl36  Cl    Cl    0.769187 0.068247 0.682933 -0.486385
Cl37  Cl    Cl    0.644305 0.251092 0.273885 -0.539566
Cl38  Cl    Cl    0.771299 0.930914 0.317115 -0.484778
Cl39  Cl    Cl    0.639622 0.749539 0.723478 -0.553562
Cl40  Cl    Cl    0.738308 0.412958 0.674551 -0.249875
H1    H     H_    0.304460 0.609930 0.497416 0.197631
H2    H     H_    0.787995 0.212316 0.790775 0.314394
H3    H     H_    0.817395 0.265694 0.167605 0.236383
H4    H     H_    0.761009 0.338379 0.235480 0.352128
H5    H     H_    0.883938 0.743565 0.220020 0.232521
H6    H     H_    0.796588 0.788943 0.208804 0.313677
H7    H     H_    0.804265 0.723295 0.832859 0.280270
H8    H     H_    0.749569 0.652204 0.755955 0.340951
H9    H     H_    0.377975 0.751979 0.787532 0.228725
H10   H     H_    0.287994 0.712316 0.790775 0.314394
H11   H     H_    0.317395 0.765694 0.167605 0.236383
H12   H     H_    0.234367 0.641067 0.316469 0.226186
H13   H     H_    0.261009 0.838379 0.235480 0.352128
H14   H     H_    0.383938 0.243565 0.220020 0.232521
H15   H     H_    0.296589 0.288943 0.208804 0.313677
H16   H     H_    0.304265 0.223295 0.832859 0.280270
H17   H     H_    0.249569 0.152203 0.755955 0.340951
H18   H     H_    0.926717 0.144256 0.651300 0.281416
H19   H     H_    0.957179 0.242691 0.623694 0.234182
H20   H     H_    0.866736 0.151754 0.267343 0.238834
H21   H     H_    0.929751 0.224643 0.328007 0.270488
H22   H     H_    0.928319 0.854533 0.356469 0.288930
H23   H     H_    0.301531 0.390952 0.501706 0.163210
H24   H     H_    0.957057 0.756053 0.386991 0.234565
H25   H     H_    0.876035 0.860310 0.645985 0.250323
H26   H     H_    0.930614 0.766665 0.652357 0.269291
H27   H     H_    0.426717 0.644256 0.651300 0.281416
H28   H     H_    0.457179 0.742691 0.623694 0.234182
H29   H     H_    0.366736 0.651754 0.267343 0.238834
H30   H     H_    0.429751 0.724643 0.328007 0.270488
H31   H     H_    0.428319 0.354533 0.356469 0.288929
H32   H     H_    0.457057 0.256053 0.386991 0.234565
H33   H     H_    0.376035 0.360310 0.645985 0.250323
H34   H     H_    0.234926 0.356943 0.684660 0.232000
H35   H     H_    0.430614 0.266665 0.652357 0.269291
H36   H     H_    0.991624 0.345695 0.218556 0.269853
H37   H     H_    0.936244 0.338423 0.084211 0.220732
H38   H     H_    0.011270 0.345195 0.767584 0.280571
H39   H     H_    0.045881 0.295783 0.904482 0.298508
H40   H     H_    0.978743 0.651791 0.788635 0.263529
H41   H     H_    0.009178 0.708450 0.911012 0.250449
H42   H     H_    0.010592 0.653120 0.237189 0.277852
H43   H     H_    0.045835 0.705004 0.105108 0.276373
H44   H     H_    0.491624 0.845695 0.218556 0.269853
H45   H     H_    0.804460 0.109930 0.497416 0.197631
H46   H     H_    0.436244 0.838423 0.084211 0.220732
H47   H     H_    0.511270 0.845195 0.767584 0.280571
H48   H     H_    0.545881 0.795783 0.904482 0.298507
H49   H     H_    0.478743 0.151791 0.788635 0.263529
H50   H     H_    0.509178 0.208450 0.911012 0.250449
H51   H     H_    0.510592 0.153120 0.237189 0.277853
H52   H     H_    0.545835 0.205004 0.105108 0.276373
H53   H     H_    0.734367 0.141067 0.316469 0.226186
H54   H     H_    0.801531 0.890952 0.501706 0.163210
H55   H     H_    0.734926 0.856943 0.684660 0.232000
H56   H     H_    0.877975 0.251979 0.787532 0.228725
N1    N     N_3   0.998760 0.500000 0.138610 -0.275166
N2    N     N_3   0.313056 0.803714 0.250376 -0.344940
N3    N     N_3   0.326747 0.245484 0.264837 -0.293621
N4    N     N_3   0.301564 0.188144 0.746918 -0.291172
N5    N     N_3   0.918066 0.195177 0.590927 -0.351675
N6    N     N_3   0.876233 0.191225 0.347251 -0.399928
N7    N     N_3   0.917701 0.804124 0.417278 -0.398379
N8    N     N_3   0.875359 0.797489 0.670133 -0.411369
N9    N     N_3   0.418066 0.695177 0.590928 -0.351675
N10   N     N_3   0.376233 0.691225 0.347251 -0.399928
N11   N     N_3   0.417701 0.304124 0.417278 -0.398379
N12   N     N_3   0.998760 0.500000 0.861390 -0.256214
N13   N     N_3   0.375359 0.297489 0.670133 -0.411369
N14   N     N_3   0.994836 0.346032 0.118706 -0.391617
N15   N     N_3   0.014420 0.346644 0.866949 -0.422994
N16   N     N_3   0.981754 0.651020 0.888248 -0.398646
N17   N     N_3   0.013292 0.653520 0.137925 -0.411967
N18   N     N_3   0.494836 0.846032 0.118706 -0.391617
N19   N     N_3   0.514421 0.846644 0.866949 -0.422994
N20   N     N_3   0.481754 0.151020 0.888248 -0.398646
N21   N     N_3   0.513292 0.153520 0.137925 -0.411967
N22   N     N_3   0.498760 0.000000 0.138610 -0.275166
N23   N     N_3   0.498760 0.000000 0.861390 -0.256214
N24   N     N_3   0.822671 0.254217 0.737874 -0.300263
N25   N     N_3   0.813056 0.303714 0.250376 -0.344940
N26   N     N_3   0.826747 0.745484 0.264837 -0.293620
N27   N     N_3   0.801564 0.688144 0.746918 -0.291172
N28   N     N_3   0.322671 0.754217 0.737874 -0.300263
O1    O     O_R   0.092530 0.407440 0.616040 -0.590034
O2    O     O_R   0.907330 0.407420 0.383960 -0.576682
O3    O     O_R   0.907330 0.592580 0.383960 -0.564157
O4    O     O_R   0.907330 0.592580 0.616040 -0.577189
O5    O     O_R   0.407330 0.907420 0.616040 -0.560955
O6    O     O_R   0.407330 0.907420 0.383960 -0.576682
O7    O     O_R   0.407330 0.092580 0.383960 -0.564157
O8    O     O_R   0.407330 0.092580 0.616040 -0.577189
O9    O     O_R   0.092530 0.407440 0.383960 -0.536438
O10   O     O_R   0.092530 0.592560 0.383960 -0.595237
O11   O     O_R   0.092530 0.592560 0.616040 -0.528348
O12   O     O_R   0.592530 0.907440 0.616040 -0.590034
O13   O     O_R   0.592530 0.907440 0.383960 -0.536438
O14   O     O_R   0.592530 0.092560 0.383960 -0.595237
O15   O     O_R   0.592530 0.092560 0.616040 -0.528348
O16   O     O_R   0.907330 0.407420 0.616040 -0.560956
Zn1   Zn    Zn3+2 0.999890 0.500000 0.654960 1.092404
Zn2   Zn    Zn3+2 0.999890 0.500000 0.345040 1.083844
Zn3   Zn    Zn3+2 0.499890 0.000000 0.654960 1.092404
Zn4   Zn    Zn3+2 0.499890 0.000000 0.345040 1.083843

loop_
_geom_bond_atom_site_label_1
_geom_bond_atom_site_label_2
_ccdc_geom_bond_type
H38   N15   S    
C43   Cl21  S    
C16   H23   S    
C16   Cl23  S    
C39   Cl16  S    
C45   Cl30  S    
C45   Cl27  S    
C14   C31   S    
C51   Cl33  S    
C46   Cl24  S    
C3    O6    A    
C8    N27   S    
C11   N11   S    
C22   Cl2   S    
C24   Cl3   S    
H13   N2    S    
O2    Zn2   S    
C19   H53   S    
O1    Zn1   S    
O13   Zn4   S    
C21   H55   S    
C34   O15   A    
C6    C19   S    
C10   C15   S    
C23   O12   A    
H6    N26   S    
C42   N16   S    
C17   H34   S    
H10   N28   S    
C22   C38   S    
H32   N11   S    
C24   C39   S    
C46   N23   S    
C15   C31   S    
C9    N28   S    
C52   O16   A    
C48   Cl26  S    
C3    C29   S    
H24   N7    S    
H11   N2    S    
H2    N24   S    
C5    C27   S    
C20   C35   S    
C1    O1    A    
C38   Cl14  S    
O12   Zn3   S    
C37   Cl13  S    
H37   N14   S    
C15   Cl12  S    
C49   N12   S    
H26   N8    S    
H14   N3    S    
C9    N9    S    
C15   H12   S    
C26   Cl7   S    
O9    Zn2   S    
C14   H1    S    
C45   N1    S    
C43   N1    S    
C9    C29   S    
C41   Cl19  S    
H15   N3    S    
H48   N19   S    
H35   N13   S    
H20   N6    S    
O11   Zn1   S    
C25   Cl5   S    
H8    N27   S    
C36   Cl10  S    
H36   N14   S    
C37   Cl11  S    
C44   C46   S    
C50   Cl31  S    
O7    Zn4   S    
C52   O2    A    
C43   N17   S    
O5    Zn3   S    
C25   C29   S    
C42   N12   S    
H4    N25   S    
C17   Cl34  S    
C47   C48   S    
C1    O9    A    
C13   C30   S    
C34   O14   A    
H17   N4    S    
C11   C30   S    
N23   Zn3   S    
C19   C33   S    
H16   N4    S    
C5    C18   S    
C50   C51   S    
C12   O11   A    
C20   Cl38  S    
H52   N21   S    
C1    C32   S    
C18   Cl36  S    
C7    C28   S    
C18   H45   S    
C35   C39   S    
C9    C14   S    
H40   N16   S    
C40   N14   S    
C19   Cl37  S    
N1    Zn2   S    
C41   N12   S    
C3    O5    A    
C11   C16   S    
C6    C27   S    
H39   N15   S    
H27   N9    S    
C12   O10   A    
H25   N8    S    
C42   Cl20  S    
C33   C34   S    
C39   Cl17  S    
H42   N17   S    
C7    N7    S    
C50   N22   S    
C44   N18   S    
C32   C37   S    
C4    O8    A    
H47   N19   S    
H19   N5    S    
H51   N21   S    
C6    N6    S    
C40   Cl18  S    
C50   Cl35  S    
C48   N22   S    
C11   N3    S    
C40   C41   S    
C26   C30   S    
C23   C35   S    
H29   N10   S    
C41   N15   S    
C12   C31   S    
H28   N9    S    
C8    C28   S    
C20   H54   S    
C44   N22   S    
O6    Zn4   S    
C2    O3    A    
C47   Cl25  S    
C36   Cl9   S    
H41   N16   S    
H22   N7    S    
C23   O13   A    
C27   C52   S    
C25   Cl6   S    
C21   Cl39  S    
C10   N10   S    
H49   N20   S    
H5    N26   S    
H30   N10   S    
O10   Zn2   S    
H21   N6    S    
H33   N13   S    
C24   C28   S    
C13   N4    S    
C44   Cl22  S    
C8    C21   S    
C47   N23   S    
C26   C37   S    
C13   N13   S    
C21   C35   S    
C6    N25   S    
O14   Zn4   S    
C16   C32   S    
O8    Zn3   S    
C22   C27   S    
C33   C38   S    
C2    O4    A    
C49   Cl28  S    
C13   C17   S    
H46   N18   S    
O16   Zn1   S    
C51   N23   S    
H3    N25   S    
H18   N5    S    
C10   N2    S    
N22   Zn4   S    
C47   N20   S    
C10   C29   S    
H44   N18   S    
C24   Cl4   S    
C5    N5    S    
C46   N19   S    
C7    N26   S    
H56   N24   S    
C5    N24   S    
C40   N1    S    
C49   Cl29  S    
C4    O7    A    
C8    N8    S    
C18   C33   S    
O15   Zn3   S    
H31   N11   S    
C25   C36   S    
H50   N20   S    
C48   N21   S    
C14   Cl1   S    
H7    N27   S    
C38   Cl15  S    
C7    C20   S    
C42   C43   S    
C17   C32   S    
C22   Cl40  S    
C31   C36   S    
H9    N28   S    
C2    C28   S    
C45   C49   S    
C26   Cl8   S    
C51   Cl32  S    
C4    C30   S    
O4    Zn1   S    
H43   N17   S    
N12   Zn1   S    
O3    Zn2   S    
