data_mof_unit_20922.cif
_audit_creation_date              2012-10-26T17:12:30-0400
_audit_creation_method            fapswitch 2.2
_symmetry_space_group_name_H-M    P1
_symmetry_Int_Tables_number       1
_space_group_crystal_system       triclinic
_cell_length_a                    16.81581
_cell_length_b                    16.859178
_cell_length_c                    16.722776
_cell_angle_alpha                 67.750504
_cell_angle_beta                  67.729993
_cell_angle_gamma                 67.66938
_cell_volume                      3902.81805848

loop_
_atom_site_label
_atom_site_type_symbol
_atom_type_description
_atom_site_fract_x
_atom_site_fract_y
_atom_site_fract_z
_atom_type_partial_charge
C1    C     C_R   0.014445 0.831062 0.569648 0.571652
C2    C     C_R   0.028647 0.564388 0.828141 0.580749
C3    C     C_3   0.337300 0.710812 0.889419 -0.054717
C4    C     C_3   0.762151 0.646214 0.452943 -0.090651
C5    C     C_3   0.978577 0.312620 0.746625 -0.063914
C6    C     C_R   0.171493 0.973335 0.434928 0.584546
C7    C     C_R   0.829184 0.019878 0.567165 0.562268
C8    C     C_R   0.448190 0.088791 0.702314 0.380025
C9    C     C_R   0.482841 0.081834 0.255232 0.390565
C10   C     C_R   0.953116 0.731888 0.496522 0.402668
C11   C     C_R   0.073307 0.264826 0.480964 0.391300
C12   C     C_R   0.743828 0.492263 0.940919 0.387086
C13   C     C_R   0.272916 0.491784 0.056659 0.387109
C14   C     C_R   0.296259 0.950981 0.541281 0.420912
C15   C     C_R   0.987484 0.167832 0.429532 0.577324
C16   C     C_R   0.712919 0.010403 0.464322 0.403763
C17   C     C_R   0.541390 0.307422 0.899891 0.407878
C18   C     C_R   0.477453 0.730549 0.970085 0.396310
C19   C     C_R   0.904229 0.536950 0.314135 0.406026
C20   C     C_R   0.075107 0.455576 0.697981 0.404245
C21   C     C_R   0.529006 0.054997 0.535476 -0.112518
C22   C     C_R   0.429662 0.038036 0.442902 -0.112132
C23   C     C_R   0.010198 0.546023 0.545880 -0.097604
C24   C     C_R   0.994634 0.449790 0.448653 -0.097670
C25   C     C_R   0.558434 0.551956 0.977224 -0.102000
C26   C     C_R   0.832642 0.570131 0.010709 0.574150
C27   C     C_R   0.458920 0.449195 0.978729 -0.099226
C28   C     C_R   0.565254 0.054677 0.444526 -0.030152
C29   C     C_R   0.397752 0.025688 0.536741 -0.001934
C30   C     C_R   0.038757 0.451633 0.571580 -0.020861
C31   C     C_R   0.956291 0.543115 0.429438 -0.033083
C32   C     C_R   0.464697 0.583966 0.994481 -0.030278
C33   C     C_R   0.553241 0.424994 0.943219 -0.033880
C34   C     C_R   0.507812 0.065509 0.395240 -0.033555
C35   C     C_R   0.439565 0.052519 0.578527 -0.008816
C36   C     C_R   0.415290 0.524862 0.011672 -0.035795
C37   C     C_R   0.168374 0.429900 0.986853 0.582444
C38   C     C_R   0.603695 0.469718 0.955055 -0.032965
C39   C     C_R   0.040763 0.404297 0.515685 -0.026573
C40   C     C_R   0.973572 0.592163 0.471309 -0.038447
C41   C     C_R   0.396433 0.077248 0.659710 0.308226
C42   C     C_R   0.527345 0.097944 0.300735 0.332652
C43   C     C_R   0.955187 0.686055 0.442007 0.309026
C44   C     C_R   0.091317 0.314061 0.520008 0.330346
C45   C     C_R   0.697380 0.438079 0.942928 0.308317
C46   C     C_R   0.323953 0.538248 0.060980 0.309928
C47   C     C_R   0.336901 0.973412 0.586052 0.363080
C48   C     C_R   0.564335 0.028871 0.827985 0.592988
C49   C     C_R   0.658391 0.026481 0.411357 0.314150
C50   C     C_R   0.591167 0.361274 0.892812 0.322850
C51   C     C_R   0.425963 0.676828 0.981163 0.328297
C52   C     C_R   0.899023 0.582317 0.371551 0.327404
C53   C     C_R   0.061815 0.408088 0.653860 0.319335
C54   C     C_R   0.542892 0.061680 0.673204 0.003410
C55   C     C_R   0.420123 0.031335 0.302868 -0.023256
C56   C     C_R   0.993891 0.688908 0.567036 -0.031264
C57   C     C_R   0.015494 0.307436 0.425303 -0.022219
C58   C     C_R   0.698772 0.568627 0.973441 -0.019248
C59   C     C_R   0.429518 0.988394 0.167799 0.570045
C60   C     C_R   0.312733 0.428236 0.007126 -0.026187
C61   C     C_R   0.315482 0.979420 0.446357 0.008597
C62   C     C_R   0.677981 0.030214 0.549252 -0.020726
C63   C     C_R   0.450030 0.323347 0.946639 -0.003723
C64   C     C_R   0.562877 0.692420 0.987021 -0.019917
C65   C     C_R   0.951506 0.446583 0.325612 -0.007678
C66   C     C_R   0.045991 0.549451 0.674763 -0.005761
C67   C     C_R   0.598051 0.045122 0.728358 0.013630
C68   C     C_R   0.386071 0.997076 0.260467 -0.006312
C69   C     C_R   0.012611 0.736292 0.609813 -0.010726
C70   C     C_R   0.435318 0.171222 0.970963 0.617907
C71   C     C_R   0.991008 0.261075 0.387064 -0.000598
C72   C     C_R   0.741694 0.611988 0.997329 -0.008400
C73   C     C_R   0.262979 0.387921 0.989172 -0.005336
C74   C     C_R   0.267637 0.969118 0.398058 0.009509
C75   C     C_R   0.731307 0.027509 0.601431 -0.009371
C76   C     C_R   0.398052 0.268325 0.958899 0.022518
C77   C     C_R   0.608922 0.739076 0.003626 -0.014162
C78   C     C_R   0.959421 0.397344 0.269429 0.011335
C79   C     C_R   0.040221 0.600261 0.729545 0.003906
C80   C     C_R   0.689923 0.033134 0.689837 -0.165870
C81   C     C_R   0.568881 0.831212 0.014243 0.546635
C82   C     C_R   0.307351 0.971271 0.307702 -0.178984
C83   C     C_R   0.031576 0.691520 0.692428 -0.168497
C84   C     C_R   0.969523 0.305796 0.305490 -0.174872
C85   C     C_R   0.695708 0.695903 0.012012 -0.168331
C86   C     C_R   0.305901 0.304881 0.971527 -0.155907
C87   C     C_R   0.583488 0.050419 0.585507 -0.101464
C88   C     C_R   0.387884 0.016854 0.397309 -0.099228
C89   C     C_R   0.017563 0.594694 0.595436 -0.100832
C90   C     C_R   0.986792 0.401323 0.400227 -0.104002
C91   C     C_R   0.606356 0.603538 0.981452 -0.098483
C92   C     C_R   0.970814 0.435444 0.171595 0.593693
C93   C     C_R   0.407286 0.400233 0.977581 -0.101995
C94   C     C_3   0.257132 0.165782 0.720533 0.030521
C95   C     C_3   0.548324 0.234779 0.258588 -0.103584
C96   C     C_3   0.024672 0.731198 0.293902 -0.057168
C97   C     C_3   0.239619 0.296948 0.486597 -0.094913
C98   C     C_3   0.736095 0.293034 0.021535 -0.067574
C99   C     C_3   0.302855 0.554482 0.196639 -0.096494
C100  C     C_3   0.400449 0.860419 0.690779 -0.098591
C101  C     C_3   0.699616 0.913580 0.347656 -0.029063
C102  C     C_3   0.665838 0.426714 0.752410 -0.077836
Cu1   Cu    Cu3+1 0.995180 0.995180 0.424630 1.111017
Cu2   Cu    Cu3+1 0.004820 0.004820 0.575370 1.117531
Cu3   Cu    Cu3+1 0.995180 0.424630 0.995180 1.094029
Cu4   Cu    Cu3+1 0.004820 0.575370 0.004820 1.104949
Cu5   Cu    Cu3+1 0.424630 0.995180 0.995180 1.135503
Cu6   Cu    Cu3+1 0.575370 0.004820 0.004820 1.114724
F1    F     F_    0.406406 0.131495 0.767748 -0.640486
F2    F     F_    0.450206 0.817250 0.924496 -0.604715
F3    F     F_    0.851890 0.577857 0.256826 -0.606928
F4    F     F_    0.121709 0.407760 0.760017 -0.609434
F5    F     F_    0.495870 0.122934 0.165995 -0.614040
F6    F     F_    0.901592 0.816892 0.484980 -0.544368
F7    F     F_    0.123401 0.178926 0.486668 -0.611496
F8    F     F_    0.832114 0.474036 0.896431 -0.618351
F9    F     F_    0.187223 0.502623 0.109183 -0.611318
F10   F     F_    0.248326 0.890741 0.590713 -0.612794
F11   F     F_    0.796633 0.960911 0.435444 -0.536390
F12   F     F_    0.580070 0.247884 0.850206 -0.602365
H1    H     H_    0.730842 0.024809 0.730813 0.166251
H2    H     H_    0.527495 0.237447 0.329343 0.098054
H3    H     H_    0.490145 0.267149 0.229741 0.130144
H4    H     H_    0.597706 0.273865 0.219389 0.125995
H5    H     H_    0.060533 0.661770 0.289010 0.120317
H6    H     H_    0.066975 0.758614 0.308243 0.110087
H7    H     H_    0.013427 0.772450 0.227393 0.175077
H8    H     H_    0.253520 0.273505 0.427426 0.139879
H9    H     H_    0.298990 0.262776 0.513069 0.133450
H10   H     H_    0.231547 0.369958 0.465695 0.093592
H11   H     H_    0.665821 0.289334 0.053023 0.130448
H12   H     H_    0.274966 0.955178 0.273121 0.155190
H13   H     H_    0.758500 0.310825 0.065665 0.107305
H14   H     H_    0.778595 0.225558 0.015433 0.171325
H15   H     H_    0.375782 0.537074 0.188513 0.094982
H16   H     H_    0.278391 0.493882 0.232297 0.127672
H17   H     H_    0.267960 0.600985 0.239530 0.134878
H18   H     H_    0.465284 0.870434 0.642175 0.079178
H19   H     H_    0.390748 0.800001 0.688050 0.128010
H20   H     H_    0.406879 0.849166 0.758012 0.190099
H21   H     H_    0.631106 0.904933 0.373890 0.066514
H22   H     H_    0.740228 0.866506 0.394680 0.207709
H23   H     H_    0.036221 0.728986 0.729959 0.166346
H24   H     H_    0.731238 0.895439 0.283189 0.178483
H25   H     H_    0.647587 0.491838 0.766347 0.097961
H26   H     H_    0.616400 0.426408 0.723299 0.123846
H27   H     H_    0.731594 0.419384 0.701133 0.140191
H28   H     H_    0.306894 0.656852 0.905304 0.125098
H29   H     H_    0.403529 0.698454 0.838758 0.063296
H30   H     H_    0.292502 0.773452 0.858374 0.181222
H31   H     H_    0.735754 0.593396 0.456041 0.116585
H32   H     H_    0.706534 0.708508 0.452013 0.126967
H33   H     H_    0.783419 0.628613 0.514340 0.106263
H34   H     H_    0.963695 0.268625 0.268413 0.158872
H35   H     H_    0.933609 0.337529 0.702501 0.118310
H36   H     H_    0.950009 0.348729 0.799272 0.197872
H37   H     H_    0.981848 0.241301 0.781140 0.156911
H38   H     H_    0.728738 0.728899 0.029062 0.169377
H39   H     H_    0.266915 0.267217 0.970077 0.171050
H40   H     H_    0.284755 0.222721 0.674128 0.147463
H41   H     H_    0.251855 0.157255 0.791325 0.192398
H42   H     H_    0.188164 0.181804 0.717308 0.224137
O1    O     O_R   0.124540 0.978640 0.385460 -0.545549
O2    O     O_R   0.124540 0.385460 0.978640 -0.505811
O3    O     O_R   0.021360 0.875460 0.614540 -0.514237
O4    O     O_R   0.978640 0.124540 0.385460 -0.535612
O5    O     O_R   0.013780 0.867370 0.487190 -0.443022
O6    O     O_R   0.986220 0.132630 0.512810 -0.460839
O7    O     O_R   0.867370 0.487190 0.013780 -0.457097
O8    O     O_R   0.132630 0.512810 0.986220 -0.457235
O9    O     O_R   0.487190 0.013780 0.867370 -0.414025
O10   O     O_R   0.512810 0.986220 0.132630 -0.455519
O11   O     O_R   0.512810 0.132630 0.986220 -0.408647
O12   O     O_R   0.875460 0.021360 0.614540 -0.538422
O13   O     O_R   0.487190 0.867370 0.013780 -0.435830
O14   O     O_R   0.986220 0.512810 0.132630 -0.415696
O15   O     O_R   0.013780 0.487190 0.867370 -0.399425
O16   O     O_R   0.132630 0.986220 0.512810 -0.400263
O17   O     O_R   0.867370 0.013780 0.487190 -0.398516
O18   O     O_3   0.305442 0.085056 0.697364 -0.518997
O19   O     O_3   0.589077 0.146566 0.251757 -0.488219
O20   O     O_3   0.940967 0.735741 0.358872 -0.479320
O21   O     O_3   0.164116 0.275002 0.554892 -0.497233
O22   O     O_3   0.746294 0.353234 0.934912 -0.498727
O23   O     O_R   0.978640 0.385460 0.124540 -0.547050
O24   O     O_3   0.283001 0.597393 0.113187 -0.487846
O25   O     O_3   0.325198 0.933806 0.677208 -0.475769
O26   O     O_3   0.697853 0.002793 0.331247 -0.489102
O27   O     O_3   0.673911 0.354927 0.830132 -0.471890
O28   O     O_3   0.340966 0.719068 0.968991 -0.480773
O29   O     O_3   0.832407 0.661629 0.374275 -0.479075
O30   O     O_3   0.065812 0.319314 0.696417 -0.537850
O31   O     O_R   0.021360 0.614540 0.875460 -0.544886
O32   O     O_R   0.385460 0.124540 0.978640 -0.514708
O33   O     O_R   0.614540 0.875460 0.021360 -0.535006
O34   O     O_R   0.614540 0.021360 0.875460 -0.514731
O35   O     O_R   0.385460 0.978640 0.124540 -0.536197
O36   O     O_R   0.875460 0.614540 0.021360 -0.504733

loop_
_geom_bond_atom_site_label_1
_geom_bond_atom_site_label_2
_ccdc_geom_bond_type
C95   H4    S    
C83   H23   S    
C21   C87   A    
Cu1   O5    S    
C22   C29   A    
C26   C72   S    
C64   C77   A    
C41   O18   S    
C34   C42   A    
C31   C52   A    
C58   C72   A    
C24   C39   A    
C72   C85   A    
C13   C60   A    
Cu5   O9    S    
C27   C33   A    
C66   C79   A    
C98   H13   S    
C9    C42   A    
Cu3   O7    S    
C29   C47   A    
C81   O13   A    
C20   C66   A    
C100  H19   S    
C97   H10   S    
C102  H25   S    
C54   C87   A    
C59   C68   S    
C101  H24   S    
Cu2   O6    S    
C63   C76   A    
C1    O5    A    
C23   C40   A    
C7    O12   A    
C60   C73   A    
C102  O27   S    
C31   C40   A    
C101  H22   S    
Cu3   O23   S    
C55   C88   A    
C50   O27   S    
C38   C45   A    
C2    C79   S    
C100  H20   S    
C17   F12   S    
Cu2   O3    S    
C20   F4    S    
C84   H34   S    
C19   C52   A    
C40   C43   A    
Cu2   O16   S    
C26   O7    A    
C14   F10   S    
C98   H11   S    
C30   C39   A    
Cu5   Cu6   S    
C23   C89   A    
C15   O4    A    
C36   C46   A    
C9    C55   A    
C2    O15   A    
C22   C88   A    
C7    C75   S    
Cu6   O34   S    
C101  O26   S    
C10   C56   A    
C58   C91   A    
C94   H42   S    
C10   F6    S    
Cu4   O36   S    
C12   C58   A    
C60   C93   A    
C25   C32   A    
C4    H33   S    
C28   C34   A    
C3    H28   S    
C48   O34   A    
Cu4   O8    S    
C4    O29   S    
C16   C62   A    
C74   C82   A    
C97   H8    S    
C35   C41   A    
C53   O30   S    
C18   C51   A    
C6    C74   S    
Cu4   O31   S    
C80   H1    S    
C42   O19   S    
C65   C90   A    
C22   C34   A    
C30   C53   A    
C3    H29   S    
C25   C91   A    
C57   C90   A    
C62   C87   A    
C99   H15   S    
C23   C30   A    
C100  O25   S    
C8    C41   A    
C3    O28   S    
Cu3   O15   S    
C37   O8    A    
Cu5   O35   S    
C55   C68   A    
C92   O23   A    
C95   O19   S    
Cu2   O12   S    
C54   C67   A    
C78   C92   S    
C33   C50   A    
C5    H35   S    
C14   C61   A    
C1    C69   S    
C86   H39   S    
C52   O29   S    
C17   C50   A    
C32   C51   A    
C69   C83   A    
C61   C88   A    
C25   C38   A    
C81   O33   A    
C48   O9    A    
C28   C49   A    
C96   H6    S    
C44   O21   S    
C77   C81   S    
C70   O32   A    
Cu6   O11   S    
Cu3   O2    S    
C7    O17   A    
C11   C44   A    
C94   O18   S    
C57   C71   A    
Cu6   O33   S    
C94   H41   S    
C14   C47   A    
C51   O28   S    
C100  H18   S    
C37   O2    A    
C21   C35   A    
C95   H2    S    
C56   C89   A    
C21   C28   A    
C5    H37   S    
Cu6   O10   S    
C70   C76   S    
C27   C36   A    
C15   O6    A    
C27   C93   A    
C66   C89   A    
C85   H38   S    
C82   H12   S    
C59   O10   A    
C76   C86   A    
C16   C49   A    
C11   F7    S    
C71   C84   A    
C75   C80   A    
C95   H3    S    
C4    H31   S    
C37   C73   S    
C3    H30   S    
C94   H40   S    
C65   C78   A    
C10   C43   A    
C101  H21   S    
C92   O14   A    
C1    O3    A    
C67   C80   A    
C18   F2    S    
C5    O30   S    
C96   O20   S    
C20   C53   A    
C24   C90   A    
C98   H14   S    
C13   F9    S    
C32   C36   A    
C39   C44   A    
C12   C45   A    
C19   F3    S    
C61   C74   A    
C5    H36   S    
C15   C71   S    
Cu3   Cu4   S    
C29   C35   A    
C43   O20   S    
Cu1   O1    S    
C33   C38   A    
C64   C91   A    
C8    C54   A    
C102  H27   S    
C2    O31   A    
C68   C82   A    
C24   C31   A    
C97   H9    S    
C8    F1    S    
C17   C63   A    
C79   C83   A    
C18   C64   A    
C13   C46   A    
C49   O26   S    
Cu5   O13   S    
C59   O35   A    
C46   O24   S    
C96   H5    S    
C19   C65   A    
Cu1   O17   S    
C99   O24   S    
C48   C67   S    
C98   O22   S    
C26   O36   A    
C70   O11   A    
C9    F5    S    
C77   C85   A    
C4    H32   S    
C78   C84   A    
C6    O1    A    
C96   H7    S    
Cu1   O4    S    
C56   C69   A    
Cu1   Cu2   S    
Cu4   O14   S    
C99   H17   S    
C97   O21   S    
C73   C86   A    
C99   H16   S    
C63   C93   A    
C11   C57   A    
C47   O25   S    
Cu5   O32   S    
C102  H26   S    
C62   C75   A    
C16   F11   S    
C45   O22   S    
C12   F8    S    
C6    O16   A    
