data_mof_unit_44475.cif
_audit_creation_date              2012-12-10T20:28:47-0500
_audit_creation_method            fapswitch 2.2
_symmetry_space_group_name_H-M    P1
_symmetry_Int_Tables_number       1
_space_group_crystal_system       triclinic
_cell_length_a                    10.617459
_cell_length_b                    10.616849
_cell_length_c                    9.866908
_cell_angle_alpha                 90.315211
_cell_angle_beta                  90.137168
_cell_angle_gamma                 89.900722
_cell_volume                      1112.2152693

loop_
_atom_site_label
_atom_site_type_symbol
_atom_type_description
_atom_site_fract_x
_atom_site_fract_y
_atom_site_fract_z
_atom_type_partial_charge
C1    C     C_R   0.497306 0.259340 0.499518 0.857958
C2    C     C_R   0.066595 0.386256 0.561888 0.089741
C3    C     C_R   0.128446 0.487844 0.499260 -0.102100
C4    C     C_R   0.064061 0.584421 0.434418 -0.214420
C5    C     C_R   0.935468 0.584458 0.434777 -0.219677
C6    C     C_R   0.871832 0.488107 0.500299 -0.103160
C7    C     C_R   0.449368 0.064825 0.618031 0.064011
C8    C     C_R   0.472982 0.127635 0.497678 -0.103735
C9    C     C_R   0.458505 0.063216 0.374327 -0.208090
C10   C     C_R   0.449268 0.933356 0.375410 -0.193319
C11   C     C_R   0.452762 0.869853 0.500118 -0.165174
C12   C     C_R   0.260552 0.496565 0.499859 0.863954
C13   C     C_R   0.429334 0.937744 0.620088 0.039615
C14   C     C_3   0.480680 0.928579 0.762836 0.305940
C15   C     C_3   0.516057 0.066847 0.750857 -0.471971
C16   C     C_R   0.389827 0.489333 0.070943 0.207096
C17   C     C_R   0.607492 0.522095 0.072251 -0.126955
C18   C     C_R   0.607495 0.522089 0.928428 -0.143249
C19   C     C_R   0.389764 0.489419 0.928615 0.175200
C20   C     C_3   0.297966 0.383500 0.922010 -0.488766
C21   C     C_3   0.298909 0.382680 0.076002 -0.483063
C22   C     C_R   0.487426 0.739585 0.500530 0.879409
C23   C     C_R   0.739524 0.496386 0.500152 0.880172
C24   C     C_R   0.132417 0.283626 0.619698 -0.198439
C25   C     C_R   0.067290 0.184418 0.679208 -0.130552
C26   C     C_R   0.936208 0.184819 0.680566 -0.142013
C27   C     C_R   0.869863 0.284389 0.622257 -0.188687
C28   C     C_R   0.934629 0.386536 0.562831 0.097922
H1    H     H_    0.113730 0.661115 0.385918 0.150137
H2    H     H_    0.562887 0.864977 0.777948 0.096478
H3    H     H_    0.469783 0.129436 0.826230 0.223221
H4    H     H_    0.619131 0.081989 0.739384 0.146717
H5    H     H_    0.694732 0.538095 0.126274 0.156845
H6    H     H_    0.205861 0.413149 0.879012 0.211416
H7    H     H_    0.338283 0.297072 0.875667 0.212370
H8    H     H_    0.207312 0.411425 0.121026 0.206860
H9    H     H_    0.341100 0.295900 0.119645 0.213188
H10   H     H_    0.234043 0.278175 0.618147 0.152138
H11   H     H_    0.885736 0.107135 0.725654 0.129863
H12   H     H_    0.768178 0.279397 0.622594 0.146340
H13   H     H_    0.885209 0.661056 0.386248 0.149779
H14   H     H_    0.465197 0.110815 0.277777 0.172969
H15   H     H_    0.453101 0.883558 0.279361 0.178627
N1    N     N_R   0.499160 0.499140 0.142800 -0.106995
N2    N     N_R   0.499160 0.499180 0.857150 -0.113248
O1    O     O_R   0.500020 0.316790 0.614690 -0.621618
O2    O     O_R   0.500000 0.316760 0.385350 -0.617269
O3    O     O_R   0.316770 0.500020 0.614690 -0.635724
O4    O     O_R   0.316760 0.499980 0.385350 -0.616057
O5    O     O_R   0.500000 0.683240 0.614650 -0.647952
O6    O     O_R   0.499980 0.683210 0.385310 -0.613892
O7    O     O_R   0.683240 0.500020 0.614650 -0.625835
O8    O     O_R   0.683230 0.499980 0.385310 -0.617707
Zn1   Zn    Zn3+2 0.500010 0.500020 0.653130 0.916460
Zn2   Zn    Zn3+2 0.499990 0.499980 0.346870 0.941014
H16   H     H_    0.694710 0.538022 0.874960 0.159530
H17   H     H_    0.118740 0.106538 0.723213 0.144849
O9    O     O_3   0.385789 0.919216 0.863385 -0.635706
C29   C     C_3   0.324485 0.801354 0.862804 0.100625
H18   H     H_    0.318566 0.769347 0.969617 0.150429
H19   H     H_    0.375457 0.726851 0.806723 0.167153
C30   C     C_3   0.190703 0.816328 0.806634 -0.348743
H20   H     H_    0.142568 0.894893 0.860629 0.228865
H21   H     H_    0.194823 0.839724 0.697136 0.215529
C31   C     C_3   0.113500 0.696493 0.824386 -0.958218
H22   H     H_    0.157904 0.617108 0.769047 0.284384
H23   H     H_    0.017255 0.710970 0.782950 0.266942
H24   H     H_    0.106011 0.672167 0.933425 0.258586

loop_
_geom_bond_atom_site_label_1
_geom_bond_atom_site_label_2
_ccdc_geom_bond_type
C7    C13   A    
C24   H10   S    
C19   N2    A    
C12   O4    A    
C16   C21   S    
C1    C8    S    
C2    C24   A    
C9    C10   A    
C16   N1    A    
C11   C22   S    
O6    Zn2   S    
C19   C20   S    
C18   H16   S    
C27   H12   S    
C12   O3    A    
C31   H24   S    
C20   H6    S    
O1    Zn1   S    
C7    C15   S    
C17   C18   A    
C23   O7    A    
C17   N1    A    
C29   H18   S    
C21   H8    S    
O5    Zn1   S    
C13   C14   S    
C24   C25   A    
O3    Zn1   S    
C4    C5    A    
C11   C13   A    
N1    Zn2   S    
C9    H14   S    
C30   H20   S    
C26   H11   S    
C17   H5    S    
C14   H2    S    
C16   C19   A    
C6    C23   S    
C1    O2    A    
O7    Zn1   S    
N2    Zn1   S    
C23   O8    A    
C2    C3    A    
O8    Zn2   S    
C26   C27   A    
C5    C6    A    
C14   O9    S    
O9    C29   S    
C1    O1    A    
C29   H19   S    
C10   C11   A    
C30   H21   S    
C3    C4    A    
C25   H17   S    
C18   N2    A    
C22   O5    A    
C7    C8    A    
C21   H9    S    
C20   C21   S    
O2    Zn2   S    
C31   H22   S    
C27   C28   A    
C5    H13   S    
C14   C15   S    
C22   O6    A    
C29   C30   S    
C2    C28   A    
C3    C12   S    
C30   C31   S    
C25   C26   A    
O4    Zn2   S    
C20   H7    S    
C15   H3    S    
C6    C28   A    
C4    H1    S    
C10   H15   S    
C8    C9    A    
C31   H23   S    
C15   H4    S    
