data_mof_unit_36839.cif
_audit_creation_date              2013-03-05T16:07:22-0500
_audit_creation_method            fapswitch 2.2
_symmetry_space_group_name_H-M    P1
_symmetry_Int_Tables_number       1
_space_group_crystal_system       triclinic
_cell_length_a                    9.517724
_cell_length_b                    10.785159
_cell_length_c                    17.112002
_cell_angle_alpha                 89.243341
_cell_angle_beta                  94.053009
_cell_angle_gamma                 90.583142
_cell_volume                      1751.92883855

loop_
_atom_site_label
_atom_site_type_symbol
_atom_site_description
_atom_site_fract_x
_atom_site_fract_y
_atom_site_fract_z
_atom_type_partial_charge
O1    O     O_R   0.618740 0.319660 0.500000 -0.587699
O2    O     O_R   0.381260 0.680340 0.500000 -0.587713
O3    O     O_R   0.381170 0.319630 0.500010 -0.550376
O4    O     O_R   0.618830 0.680370 0.499990 -0.550377
C1    C     C_R   0.499273 0.262605 0.501399 0.830437
C2    C     C_R   0.500728 0.737395 0.498600 0.830548
O5    O     O_R   0.631780 0.498870 0.613920 -0.603433
O6    O     O_R   0.368220 0.501130 0.386080 -0.603425
O7    O     O_R   0.394210 0.498840 0.613930 -0.567284
O8    O     O_R   0.605790 0.501160 0.386070 -0.567257
C3    C     C_R   0.517688 0.498165 0.650954 0.851910
C4    C     C_R   0.482312 0.501831 0.349046 0.852049
Cu1   Cu    Cu3+1 0.640660 0.500020 0.500000 0.989041
Cu2   Cu    Cu3+1 0.359340 0.499980 0.500000 0.989031
C5    C     C_R   0.528077 0.496422 0.736881 -0.089653
C6    C     C_R   0.471921 0.503580 0.263119 -0.089644
C7    C     C_R   0.405472 0.494673 0.777316 -0.154609
C8    C     C_R   0.594525 0.505449 0.222683 -0.154557
C9    C     C_R   0.414036 0.493530 0.858477 -0.157425
C10   C     C_R   0.585959 0.506603 0.141521 -0.157466
C11   C     C_R   0.546274 0.493992 0.901547 0.272317
C12   C     C_R   0.453721 0.506026 0.098454 0.272328
C13   C     C_R   0.670875 0.493726 0.861105 0.308084
C14   C     C_R   0.329120 0.506174 0.138897 0.308103
C15   C     C_R   0.660040 0.495843 0.778911 -0.285361
C16   C     C_R   0.339955 0.504050 0.221090 -0.285415
N1    N     N_2   0.557445 0.497947 0.984694 -0.180788
N2    N     N_2   0.442549 0.502071 0.015306 -0.180795
H1    H     H_    0.697752 0.505612 0.253716 0.190433
H2    H     H_    0.302246 0.494602 0.746282 0.190435
H3    H     H_    0.683682 0.507187 0.112774 0.226016
H4    H     H_    0.316312 0.493048 0.887222 0.226045
H5    H     H_    0.755093 0.495788 0.747660 0.200214
H6    H     H_    0.244900 0.504012 0.252341 0.200216
C17   C     C_R   0.483066 0.062010 0.571425 -0.013684
C18   C     C_R   0.516948 0.937993 0.428574 -0.013680
C19   C     C_R   0.486301 0.931765 0.570676 -0.100424
C20   C     C_R   0.513728 0.068237 0.429328 -0.100408
C21   C     C_R   0.503758 0.871424 0.499407 -0.139243
C22   C     C_R   0.496248 0.128577 0.500592 -0.139234
C23   C     C_R   0.080215 0.428340 0.552399 0.004803
C24   C     C_R   0.919785 0.571660 0.447601 0.004801
H7    H     H_    0.140916 0.370754 0.594279 0.164010
H8    H     H_    0.859084 0.629248 0.405722 0.163968
C25   C     C_R   0.931380 0.428409 0.552396 -0.004389
C26   C     C_R   0.068620 0.571591 0.447604 -0.004411
H9    H     H_    0.879921 0.370920 0.594300 0.131948
H10   H     H_    0.120079 0.629080 0.405700 0.131959
N3    N     N_R   0.852070 0.500030 0.499980 -0.171177
N4    N     N_R   0.147930 0.499970 0.500020 -0.171186
N5    N     N_R   0.808562 0.492148 0.902269 0.149602
O9    O     O_R   0.826784 0.446297 0.972939 -0.275459
O10   O     O_R   0.918888 0.528369 0.867000 -0.321722
N6    N     N_R   0.191434 0.507631 0.097732 0.149586
O11   O     O_R   0.173148 0.553562 0.027086 -0.275511
O12   O     O_R   0.081162 0.471213 0.132982 -0.321657
C27   C     C_2   0.476009 0.127636 0.647157 0.414662
H11   H     H_    0.534100 0.092533 0.699516 0.109848
O13   O     O_2   0.402105 0.218518 0.652441 -0.550767
C28   C     C_2   0.524006 0.872382 0.352833 0.414555
H12   H     H_    0.466042 0.907577 0.300458 0.109873
O14   O     O_2   0.597766 0.781409 0.347561 -0.550879
C29   C     C_2   0.469479 0.856415 0.643408 0.363907
H13   H     H_    0.523553 0.768770 0.652087 0.057122
O15   O     O_2   0.391254 0.888868 0.692725 -0.510870
C30   C     C_2   0.530602 0.143587 0.356603 0.363828
H14   H     H_    0.476422 0.231174 0.347878 0.057125
O16   O     O_2   0.608994 0.111198 0.307350 -0.510826

loop_
_geom_bond_atom_site_label_1
_geom_bond_atom_site_label_2
_geom_bond_distance
_ccdc_geom_bond_type
O1    Cu1   1.954255 S    
C30   O16   1.221082 D    
O7    Cu2   1.954254 S    
C29   O15   1.221045 D    
N6    O12   1.301723 A    
C9    C11   1.412846 A    
C23   H7    1.081727 S    
C26   N4    1.367055 A    
C13   N5    1.443412 S    
C25   N3    1.367056 A    
C19   C29   1.494607 S    
O6    C4    1.295305 A    
N1    N2    1.246930 D    
C18   C20   1.405594 A    
C17   C22   1.413161 A    
C11   N1    1.420424 S    
O8    Cu1   1.954254 S    
C19   C21   1.410767 A    
C8    H1    1.083298 S    
C12   N2    1.420441 S    
Cu1   Cu2   2.677521 S    
C28   O14   1.220222 D    
C20   C22   1.410737 A    
C7    H2    1.083300 S    
O7    C3    1.295148 A    
C27   H11   1.084927 S    
O2    C2    1.288936 A    
O3    Cu2   1.958268 S    
C24   H8    1.081730 S    
O1    C1    1.288925 A    
C9    H4    1.082408 S    
O8    C4    1.295151 A    
O4    C2    1.285401 A    
C7    C9    1.385348 A    
C14   C16   1.402875 A    
O5    C3    1.295311 A    
C12   C14   1.414720 A    
C25   H9    1.081764 S    
C11   C13   1.414743 A    
C6    C16   1.402559 A    
O2    Cu2   1.954255 S    
Cu1   N3    2.012165 S    
C5    C15   1.402559 A    
C27   O13   1.220265 D    
Cu2   N4    2.012166 S    
C24   N3    1.367039 A    
C14   N6    1.443387 S    
N5    O9    1.301285 A    
C26   H10   1.081764 S    
C20   C30   1.494584 S    
C23   N4    1.367040 A    
O5    Cu1   1.957058 S    
C13   C15   1.402883 A    
C30   H14   1.084364 S    
N5    O10   1.301711 A    
C17   C19   1.405616 A    
C8    C10   1.385363 A    
C6    C8    1.397915 A    
C17   C27   1.490766 S    
C24   C26   1.416570 A    
C1    C22   1.445737 S    
C15   H5    1.082979 S    
O4    Cu1   1.958266 S    
C5    C7    1.397914 A    
C23   C25   1.416570 A    
N6    O11   1.301275 A    
C28   H12   1.084929 S    
O6    Cu2   1.957062 S    
C18   C28   1.490825 S    
C2    C21   1.445743 S    
C3    C5    1.466601 S    
C16   H6    1.082982 S    
C18   C21   1.413190 A    
C4    C6    1.466604 S    
C10   C12   1.412832 A    
C29   H13   1.084369 S    
O3    C1    1.285401 A    
C10   H3    1.082400 S    
