data_mof_unit_42537.cif
_audit_creation_date              2012-12-10T17:42:44-0500
_audit_creation_method            fapswitch 2.2
_symmetry_space_group_name_H-M    P1
_symmetry_Int_Tables_number       1
_space_group_crystal_system       triclinic
_cell_length_a                    9.915389
_cell_length_b                    10.659613
_cell_length_c                    13.14989
_cell_angle_alpha                 90.591812
_cell_angle_beta                  69.382446
_cell_angle_gamma                 87.582454
_cell_volume                      1299.21943172

loop_
_atom_site_label
_atom_site_type_symbol
_atom_type_description
_atom_site_fract_x
_atom_site_fract_y
_atom_site_fract_z
_atom_type_partial_charge
C1    C     C_R   0.499950 0.740387 0.492050 0.883099
C2    C     C_R   0.371116 0.500982 0.822590 -0.001520
C3    C     C_R   0.230580 0.907059 0.504521 0.561671
C4    C     C_R   0.420156 0.495035 0.704190 0.928015
C5    C     C_R   0.100160 0.971193 0.562827 -0.189092
C6    C     C_R   0.096985 0.076020 0.626693 -0.345575
C7    C     C_R   0.225576 0.126281 0.625284 -0.057441
C8    C     C_R   0.360389 0.068091 0.557565 -0.006133
C9    C     C_R   0.362399 0.947449 0.513278 -0.104395
C10   C     C_R   0.496160 0.875231 0.481270 -0.249019
C11   C     C_R   0.627445 0.934539 0.459510 0.495084
C12   C     C_R   0.466410 0.544592 0.965503 -0.064084
C13   C     C_R   0.624401 0.060133 0.482877 -0.297579
C14   C     C_R   0.493155 0.127959 0.526721 -0.164298
C15   C     C_R   0.785423 0.657209 0.650367 -0.098928
C16   C     C_R   0.496650 0.261083 0.511827 0.969908
C17   C     C_R   0.818280 0.729257 0.726623 -0.193291
C18   C     C_R   0.957564 0.725864 0.727378 -0.212066
C19   C     C_R   0.064962 0.651277 0.651205 -0.088704
C20   C     C_R   0.034397 0.573764 0.575587 0.189768
C21   C     C_R   0.889831 0.574788 0.575512 0.151799
C22   C     C_R   0.969570 0.434924 0.422838 -0.006124
C23   C     C_R   0.472162 0.471295 0.873471 -0.037204
C24   C     C_R   0.111325 0.433803 0.425005 -0.148896
C25   C     C_R   0.580429 0.502846 0.295594 0.856487
C26   C     C_R   0.797031 0.412144 0.007346 -0.141896
C27   C     C_R   0.632633 0.501668 0.177219 -0.096648
C28   C     C_R   0.247184 0.575943 0.877339 -0.221260
C29   C     C_R   0.242241 0.649028 0.966501 -0.176466
C30   C     C_R   0.360368 0.646117 0.001870 0.006302
C31   C     C_3   0.292770 0.838871 0.328571 -0.207390
C32   C     C_2   0.214991 0.227686 0.706478 0.957065
C33   C     C_2   0.952901 0.371370 0.328204 0.925663
C34   C     C_R   0.567507 0.513492 0.016091 0.128198
C35   C     C_2   0.384864 0.762945 0.054801 0.826385
C36   C     C_3   0.605281 0.167017 0.773824 -0.225854
C37   C     C_3   0.797395 0.853927 0.304701 -0.230394
C38   C     C_R   0.692055 0.436268 0.960447 0.093910
C39   C     C_R   0.701617 0.371768 0.865717 -0.359791
C40   C     C_R   0.583863 0.375799 0.830188 0.544031
C41   C     C_R   0.537309 0.541702 0.126039 -0.142109
C42   C     C_R   0.767383 0.445667 0.115833 -0.200718
H1    H     H_    0.843469 0.416869 0.153731 0.201934
H2    H     H_    0.198029 0.379998 0.364140 0.175723
H3    H     H_    0.895615 0.357434 0.963663 0.184988
H4    H     H_    0.433340 0.584604 0.174683 0.140897
H5    H     H_    0.165801 0.594446 0.841282 0.171415
H6    H     H_    0.155466 0.720248 0.997265 0.181982
H7    H     H_    0.411235 0.842987 0.307552 0.130569
H8    H     H_    0.246619 0.928204 0.308417 0.181770
H9    H     H_    0.274321 0.762235 0.278409 0.209428
H10   H     H_    0.050723 0.325430 0.680630 0.292710
H11   H     H_    0.855785 0.240410 0.270381 0.319454
H12   H     H_    0.999905 0.937768 0.559827 0.193624
H13   H     H_    0.526378 0.872819 0.087519 0.332347
H14   H     H_    0.562670 0.103565 0.726253 0.206637
H15   H     H_    0.549410 0.147014 0.861314 0.165379
H16   H     H_    0.722795 0.143761 0.748662 0.131005
H17   H     H_    0.905133 0.804311 0.271190 0.209052
H18   H     H_    0.804747 0.946014 0.264339 0.149898
H19   H     H_    0.719560 0.795013 0.284717 0.137749
H20   H     H_    0.993308 0.117483 0.677653 0.157820
H21   H     H_    0.726130 0.104972 0.462221 0.231463
H22   H     H_    0.678468 0.672761 0.651063 0.191438
H23   H     H_    0.735769 0.790695 0.783635 0.168246
H24   H     H_    0.983763 0.784622 0.784815 0.156646
H25   H     H_    0.171729 0.659846 0.650930 0.188837
H26   H     H_    0.794384 0.308905 0.825634 0.167541
N1    N     N_R   0.856860 0.501200 0.500990 -0.146857
N2    N     N_R   0.142450 0.501280 0.501020 -0.119780
O1    O     O_R   0.385310 0.683220 0.500000 -0.589719
O2    O     O_2   0.298572 0.224699 0.755829 -0.598917
O3    O     O_R   0.107536 0.324303 0.731279 -0.790168
O4    O     O_2   0.036828 0.392256 0.237088 -0.661396
O5    O     O_R   0.851381 0.280874 0.341661 -0.794024
O6    O     O_2   0.285391 0.840867 0.095136 -0.662777
O7    O     O_R   0.523616 0.789288 0.050906 -0.822325
O8    O     O_3   0.579357 0.292535 0.749320 -0.580055
O9    O     O_3   0.760552 0.870327 0.417982 -0.588691
O10   O     O_R   0.614640 0.683250 0.500010 -0.594746
O11   O     O_R   0.328400 0.499950 0.653610 -0.626469
O12   O     O_R   0.557730 0.499970 0.653620 -0.625976
O13   O     O_R   0.385360 0.316750 0.499990 -0.642332
O14   O     O_R   0.614690 0.316780 0.500000 -0.541870
O15   O     O_R   0.442270 0.500030 0.346380 -0.608718
O16   O     O_R   0.671600 0.500050 0.346390 -0.600462
O17   O     O_3   0.223103 0.808781 0.437781 -0.603856
Zn1   Zn    Zn3+2 0.346880 0.499980 0.499990 0.968345
Zn2   Zn    Zn3+2 0.653120 0.500020 0.500010 1.001729

loop_
_geom_bond_atom_site_label_1
_geom_bond_atom_site_label_2
_ccdc_geom_bond_type
C28   H5    S    
C39   H26   S    
C19   C20   A    
N2    Zn1   S    
C24   N2    A    
C7    C8    A    
C32   O2    D    
C37   O9    S    
C12   C23   A    
C1    O1    A    
O12   Zn2   S    
C30   C35   S    
C3    C9    A    
C22   C24   A    
C28   C29   A    
C36   H16   S    
C5    C6    A    
H13   O7    S    
C23   C40   A    
C16   O14   A    
C18   C19   A    
O10   Zn2   S    
C26   H3    S    
C33   O5    S    
C4    O11   A    
C8    C9    A    
C15   H22   S    
C19   H25   S    
C9    C10   A    
C22   N1    A    
O13   Zn1   S    
C13   C14   A    
C20   N2    A    
H11   O5    S    
C34   C41   A    
C31   H7    S    
N1    Zn2   S    
C35   O6    D    
C31   O17   S    
C29   H6    S    
C3    O17   S    
O11   Zn1   S    
C5    H12   S    
H10   O3    S    
C32   O3    S    
C26   C38   A    
C35   O7    S    
C16   O13   A    
C21   N1    A    
C2    C4    S    
C29   C30   A    
C36   H14   S    
C27   C41   A    
C13   H21   S    
C41   H4    S    
C25   O15   A    
C17   C18   A    
C37   H17   S    
C11   O9    S    
C36   H15   S    
C24   H2    S    
C14   C16   S    
C18   H24   S    
O14   Zn2   S    
C31   H8    S    
C12   C34   A    
C39   C40   A    
C26   C42   A    
O15   Zn1   S    
C15   C17   A    
C22   C33   S    
C8    C14   A    
C7    C32   S    
C12   C30   A    
C34   C38   A    
C1    C10   S    
C31   H9    S    
C3    C5    A    
O16   Zn2   S    
C37   H19   S    
C6    C7    A    
C25   C27   S    
C17   H23   S    
C6    H20   S    
C36   O8    S    
C11   C13   A    
C27   C42   A    
C38   C39   A    
C25   O16   A    
C40   O8    S    
C37   H18   S    
C10   C11   A    
O1    Zn1   S    
C33   O4    D    
C15   C21   A    
C4    O12   A    
C20   C21   A    
C42   H1    S    
C2    C23   A    
C1    O10   A    
C2    C28   A    
