data_mof_unit_49929.cif
_audit_creation_date              2012-12-10T18:18:27-0500
_audit_creation_method            fapswitch 2.2
_symmetry_space_group_name_H-M    P1
_symmetry_Int_Tables_number       1
_space_group_crystal_system       triclinic
_cell_length_a                    14.020733
_cell_length_b                    14.925679
_cell_length_c                    15.44631
_cell_angle_alpha                 90.085898
_cell_angle_beta                  66.657256
_cell_angle_gamma                 90.20351
_cell_volume                      2967.84319509

loop_
_atom_site_label
_atom_site_type_symbol
_atom_type_description
_atom_site_fract_x
_atom_site_fract_y
_atom_site_fract_z
_atom_type_partial_charge
C1    C     C_R   0.500797 0.673025 0.498373 0.962986
C2    C     C_R   0.501939 0.768294 0.495932 -0.153621
C3    C     C_R   0.487050 0.187057 0.429582 -0.319299
C4    C     C_R   0.512945 0.812943 0.570419 -0.319301
C5    C     C_R   0.489513 0.094645 0.426711 0.124476
C6    C     C_R   0.510479 0.905354 0.573291 0.124481
C7    C     C_R   0.499579 0.046784 0.501269 0.025565
C8    C     C_R   0.500412 0.953216 0.498734 0.025566
C9    C     C_R   0.509065 0.092428 0.578108 0.049754
C10   C     C_R   0.490927 0.907572 0.421894 0.049758
C11   C     C_R   0.482542 0.049689 0.350108 -0.239126
C12   C     C_R   0.499203 0.326975 0.501627 0.963016
C13   C     C_R   0.517448 0.950311 0.649896 -0.239131
C14   C     C_R   0.482502 0.956842 0.347846 -0.166516
C15   C     C_R   0.517488 0.043158 0.652157 -0.166515
C16   C     C_R   0.434406 0.500812 0.676743 0.945536
C17   C     C_R   0.565594 0.499188 0.323257 0.945513
C18   C     C_R   0.222488 0.434144 0.452871 -0.037954
C19   C     C_R   0.777512 0.565855 0.547129 -0.037964
C20   C     C_R   0.181220 0.564921 0.547842 -0.005482
C21   C     C_R   0.818782 0.435082 0.452152 -0.005474
C22   C     C_R   0.080404 0.566433 0.548723 0.004187
C23   C     C_R   0.380109 0.478744 0.107387 -0.128388
C24   C     C_R   0.919599 0.433571 0.451270 0.004199
C25   C     C_R   0.050524 0.499407 0.500194 0.064470
C26   C     C_R   0.949479 0.500598 0.499800 0.064465
C27   C     C_R   0.121675 0.431207 0.452322 -0.051554
C28   C     C_R   0.878327 0.568795 0.547674 -0.051548
C29   C     C_R   0.009771 0.633946 0.596321 -0.265406
C30   C     C_R   0.990231 0.366058 0.403672 -0.265384
C31   C     C_R   0.909798 0.636601 0.595341 0.003688
C32   C     C_R   0.090204 0.363402 0.404656 0.003681
C33   C     C_R   0.390565 0.500309 0.779855 -0.161250
C34   C     C_R   0.619892 0.521246 0.892612 -0.128390
C35   C     C_R   0.609435 0.499692 0.220144 -0.161250
C36   C     C_R   0.262810 0.455741 0.932865 -0.235887
C37   C     C_R   0.737192 0.544252 0.067133 -0.235883
C38   C     C_R   0.292610 0.462010 0.835239 -0.046830
C39   C     C_R   0.707393 0.537989 0.164759 -0.046810
C40   C     C_R   0.453218 0.534312 0.823664 0.290241
C41   C     C_R   0.546782 0.465686 0.176337 0.290243
C42   C     C_R   0.435362 0.506464 0.915270 0.034743
C43   C     C_R   0.564639 0.493531 0.084730 0.034743
C44   C     C_R   0.334618 0.475197 0.972693 0.113061
C45   C     C_R   0.306515 0.465877 0.069301 -0.221801
C46   C     C_R   0.665384 0.524795 0.027306 0.113062
C47   C     C_R   0.513847 0.508424 0.951420 0.082578
C48   C     C_R   0.486154 0.491568 0.048580 0.082576
C49   C     C_R   0.841840 0.712864 0.642156 0.117593
C50   C     C_R   0.812792 0.774837 0.588763 -0.155272
C51   C     C_R   0.751372 0.848504 0.632630 -0.125680
C52   C     C_R   0.718281 0.860607 0.729949 -0.092402
C53   C     C_R   0.747029 0.799228 0.783459 -0.071173
C54   C     C_R   0.809300 0.725898 0.739676 -0.122955
C55   C     C_R   0.158155 0.287131 0.357853 0.117605
C56   C     C_R   0.693486 0.534112 0.930697 -0.221806
C57   C     C_R   0.190679 0.274073 0.260335 -0.122947
C58   C     C_R   0.252931 0.200729 0.216567 -0.071205
C59   C     C_R   0.281676 0.139357 0.270088 -0.092422
C60   C     C_R   0.248603 0.151485 0.367403 -0.125669
C61   C     C_R   0.187201 0.225167 0.411257 -0.155267
C62   C     C_R   0.780722 0.569280 0.205851 0.147143
C63   C     C_R   0.759372 0.646780 0.262016 -0.094228
C64   C     C_R   0.826121 0.673255 0.304823 -0.127970
C65   C     C_R   0.915224 0.623326 0.290775 -0.107146
C66   C     C_R   0.937930 0.547037 0.233588 -0.144299
C67   C     C_R   0.509697 0.186115 0.578552 0.286858
C68   C     C_R   0.871013 0.520038 0.191111 -0.163442
C69   C     C_R   0.219286 0.430716 0.794143 0.147164
C70   C     C_R   0.129029 0.479983 0.808829 -0.163405
C71   C     C_R   0.062120 0.452978 0.766346 -0.144319
C72   C     C_R   0.084803 0.376659 0.709206 -0.107125
C73   C     C_R   0.173874 0.326706 0.695211 -0.127978
C74   C     C_R   0.240615 0.353188 0.738023 -0.094309
C75   C     C_R   0.490300 0.813885 0.421448 0.286860
C76   C     C_R   0.498059 0.231706 0.504068 -0.153616
Cl1   Cl    Cl    0.467760 0.370346 0.226779 -0.693356
Cl2   Cl    Cl    0.532243 0.629651 0.773223 -0.693364
Cl3   Cl    Cl    0.522615 0.247164 0.672100 -0.677181
Cl4   Cl    Cl    0.477384 0.752836 0.327898 -0.677179
H1    H     H_    0.227112 0.450228 0.115651 0.133605
H2    H     H_    0.813896 0.569384 0.023230 0.145015
H3    H     H_    0.352419 0.478622 0.183294 0.199609
H4    H     H_    0.647581 0.521367 0.816705 0.199610
H5    H     H_    0.478741 0.224746 0.372901 0.207405
H6    H     H_    0.521254 0.775254 0.627100 0.207402
H7    H     H_    0.476840 0.086484 0.291952 0.167380
H8    H     H_    0.523148 0.913516 0.708052 0.167369
H9    H     H_    0.476041 0.924561 0.287668 0.205590
H10   H     H_    0.523948 0.075439 0.712336 0.205589
H11   H     H_    0.838458 0.766406 0.513232 0.122987
H12   H     H_    0.772891 0.549757 0.884347 0.133609
H13   H     H_    0.730082 0.896449 0.590979 0.147650
H14   H     H_    0.670918 0.917811 0.763832 0.126544
H15   H     H_    0.721677 0.808800 0.858746 0.136389
H16   H     H_    0.832237 0.679403 0.781540 0.113200
H17   H     H_    0.167743 0.320561 0.218463 0.113201
H18   H     H_    0.278267 0.191136 0.141283 0.136379
H19   H     H_    0.329022 0.082141 0.236217 0.126550
H20   H     H_    0.269890 0.103547 0.409063 0.147646
H21   H     H_    0.161547 0.233615 0.486786 0.122983
H22   H     H_    0.690267 0.685562 0.273919 0.161137
H23   H     H_    0.280026 0.384514 0.415527 0.189384
H24   H     H_    0.808447 0.732188 0.349289 0.128821
H25   H     H_    0.966465 0.643556 0.324443 0.135571
H26   H     H_    0.006850 0.508335 0.222936 0.131393
H27   H     H_    0.888593 0.460111 0.148041 0.131681
H28   H     H_    0.111469 0.539933 0.851861 0.131673
H29   H     H_    0.993226 0.491699 0.776956 0.131401
H30   H     H_    0.033569 0.356424 0.675533 0.135562
H31   H     H_    0.191530 0.267750 0.650781 0.128825
H32   H     H_    0.309696 0.314387 0.726161 0.161162
H33   H     H_    0.719973 0.615485 0.584475 0.189388
H34   H     H_    0.205265 0.615710 0.585188 0.134115
H35   H     H_    0.794738 0.384294 0.414806 0.134117
H36   H     H_    0.033221 0.686070 0.632889 0.149814
H37   H     H_    0.966781 0.313934 0.367107 0.149812
H38   H     H_    0.186107 0.430606 0.976766 0.145013
N1    N     N_R   0.249980 0.499930 0.499960 -0.100877
N2    N     N_R   0.750020 0.500070 0.500040 -0.100882
O1    O     O_R   0.419720 0.632140 0.499980 -0.589511
O2    O     O_R   0.580280 0.367860 0.500020 -0.589512
O3    O     O_R   0.580270 0.632160 0.499970 -0.630384
O4    O     O_R   0.419730 0.367840 0.500030 -0.630367
O5    O     O_R   0.373870 0.499980 0.632250 -0.628524
O6    O     O_R   0.626130 0.500020 0.367750 -0.628537
O7    O     O_R   0.534420 0.500000 0.632240 -0.556440
O8    O     O_R   0.465580 0.500000 0.367760 -0.556439
Zn1   Zn    Zn3+2 0.392800 0.499980 0.500010 0.993786
Zn2   Zn    Zn3+2 0.607200 0.500020 0.499990 0.993775

loop_
_geom_bond_atom_site_label_1
_geom_bond_atom_site_label_2
_ccdc_geom_bond_type
C66   C68   A    
C34   C56   A    
C23   C45   A    
C22   C29   A    
C3    H5    S    
C59   H19   S    
C73   C74   A    
C2    C4    A    
C58   H18   S    
C21   H35   S    
O8    Zn1   S    
C9    C67   A    
C7    C8    A    
C53   C54   A    
C44   C45   A    
C23   H3    S    
N2    Zn2   S    
C66   H26   S    
C5    C11   A    
C21   N2    A    
C41   Cl1   S    
C11   C14   A    
C17   O6    A    
C53   H15   S    
O6    Zn2   S    
C49   C54   A    
C34   H4    S    
C55   C61   A    
C7    C9    A    
C1    C2    S    
C11   H7    S    
C22   C25   A    
C52   H14   S    
C70   C71   A    
C68   H27   S    
C30   C32   A    
C36   H38   S    
C43   C48   A    
C32   C55   S    
C54   H16   S    
C18   H23   S    
C40   C42   A    
C38   C69   S    
C59   C60   A    
C41   C43   A    
C42   C44   A    
C31   C49   S    
C63   H22   S    
C65   H25   S    
C16   O7    A    
C73   H31   S    
C24   C30   A    
C72   H30   S    
C33   C40   A    
C51   C52   A    
C67   Cl3   S    
C4    C6    A    
C10   C14   A    
O1    Zn1   S    
C5    C7    A    
C6    C8    A    
C60   H20   S    
C25   C26   A    
C61   H21   S    
C60   C61   A    
C35   C39   A    
C1    O3    A    
C14   H9    S    
C62   C63   A    
C19   C28   A    
C16   C33   S    
C10   C75   A    
C47   C48   A    
C12   O4    A    
C57   H17   S    
C50   C51   A    
C69   C74   A    
C3    C76   A    
C51   H13   S    
C16   O5    A    
C8    C10   A    
C20   H34   S    
C29   H36   S    
C20   C22   A    
C19   N2    A    
C49   C50   A    
C13   C15   A    
O3    Zn2   S    
C40   Cl2   S    
C37   H2    S    
C36   C44   A    
C12   C76   S    
C4    H6    S    
C52   C53   A    
C75   Cl4   S    
C64   H24   S    
C39   C62   S    
C23   C48   A    
C27   C32   A    
C28   C31   A    
C45   H1    S    
C18   C27   A    
C24   C26   A    
C72   C73   A    
C3    C5    A    
C17   O8    A    
C67   C76   A    
C30   H37   S    
C25   C27   A    
C26   C28   A    
C33   C38   A    
C62   C68   A    
C64   C65   A    
C55   C57   A    
C58   C59   A    
O7    Zn2   S    
C71   C72   A    
C29   C31   A    
C70   H28   S    
C15   H10   S    
C74   H32   S    
C57   C58   A    
C71   H29   S    
C13   H8    S    
C36   C38   A    
N1    Zn1   S    
O4    Zn1   S    
C42   C47   A    
C9    C15   A    
C69   C70   A    
C35   C41   A    
C43   C46   A    
C1    O1    A    
C63   C64   A    
O5    Zn1   S    
C50   H11   S    
C56   H12   S    
C12   O2    A    
C37   C39   A    
C65   C66   A    
C21   C24   A    
C46   C56   A    
C19   H33   S    
C34   C47   A    
C17   C35   S    
C37   C46   A    
C18   N1    A    
O2    Zn2   S    
C20   N1    A    
C2    C75   A    
C6    C13   A    
