data_mof_unit_60299.cif
_audit_creation_date              2013-03-05T15:40:10-0500
_audit_creation_method            fapswitch 2.2
_symmetry_space_group_name_H-M    P1
_symmetry_Int_Tables_number       1
_space_group_crystal_system       triclinic
_cell_length_a                    16.400988
_cell_length_b                    16.623746
_cell_length_c                    28.70808
_cell_angle_alpha                 90.513497
_cell_angle_beta                  90.183657
_cell_angle_gamma                 90.206395
_cell_volume                      7826.73297278

loop_
_atom_site_label
_atom_site_type_symbol
_atom_site_description
_atom_site_fract_x
_atom_site_fract_y
_atom_site_fract_z
_atom_type_partial_charge
O1    O     O_R   0.589050 0.066000 0.546390 -0.612317
O2    O     O_R   0.585350 0.934000 0.453610 -0.577942
O3    O     O_R   0.586750 0.068930 0.454890 -0.577707
O4    O     O_R   0.587650 0.931070 0.545110 -0.586047
C1    C     C_R   0.616912 0.998279 0.560628 0.876729
C2    C     C_R   0.613404 0.001503 0.438910 1.029299
O5    O     O_R   0.413250 0.931070 0.545110 -0.584142
O6    O     O_R   0.412350 0.068930 0.454890 -0.574120
O7    O     O_R   0.410950 0.934000 0.453610 -0.578639
O8    O     O_R   0.414650 0.066000 0.546390 -0.616718
Zn1   Zn    Zn3+2 0.500940 0.090730 0.500860 1.080863
Zn2   Zn    Zn3+2 0.499060 0.909270 0.499140 1.104859
C3    C     C_R   0.385898 0.998509 0.560787 0.796526
C4    C     C_R   0.383978 0.001786 0.438956 1.035160
C5    C     C_R   0.260127 0.057717 0.333293 0.299628
C6    C     C_R   0.322143 0.058716 0.367552 0.265833
C7    C     C_R   0.807367 0.948699 0.376358 0.350288
C8    C     C_R   0.744086 0.948148 0.409493 0.262035
C9    C     C_R   0.050533 0.273032 0.178546 0.373789
C10   C     C_R   0.052311 0.335753 0.145719 0.206082
C11   C     C_R   0.923847 0.764514 0.167453 0.253725
C12   C     C_R   0.924126 0.697809 0.136830 0.210443
C13   C     C_R   0.042172 0.819646 0.127281 -0.164661
C14   C     C_R   0.042633 0.754177 0.097268 -0.190683
H1    H     H_    0.088564 0.751369 0.070250 0.184981
C15   C     C_R   0.926787 0.218623 0.141496 0.263181
C16   C     C_R   0.929265 0.280661 0.109410 -0.273290
H2    H     H_    0.882419 0.283576 0.082783 0.218746
C17   C     C_R   0.193336 0.945686 0.372859 0.297247
C18   C     C_R   0.254852 0.946622 0.407289 0.264306
C19   C     C_R   0.741325 0.060422 0.336055 0.146853
C20   C     C_R   0.676467 0.058004 0.368077 0.296507
C21   C     C_3   0.998290 0.012520 0.252742 -0.120737
C22   C     C_R   0.195669 0.002923 0.337444 -0.082471
C23   C     C_R   0.319607 0.002018 0.403717 -0.226904
C24   C     C_R   0.806352 0.006401 0.341139 -0.143950
C25   C     C_R   0.678459 0.001645 0.404395 -0.220100
C26   C     C_R   0.989062 0.214277 0.175211 -0.098584
C27   C     C_R   0.991944 0.337928 0.110585 -0.234261
C28   C     C_R   0.983644 0.824753 0.162183 -0.029386
C29   C     C_R   0.984082 0.693302 0.101606 -0.184053
H3    H     H_    0.088312 0.866020 0.123640 0.177046
C30   C     C_1   0.071568 0.008552 0.280364 0.019872
C31   C     C_1   0.996959 0.086269 0.226963 0.068746
C32   C     C_1   0.928870 0.010013 0.283254 0.109221
C33   C     C_1   0.994138 0.945398 0.220758 0.062316
C34   C     C_1   0.129711 0.005790 0.305305 0.253612
C35   C     C_1   0.989326 0.890248 0.194050 0.096527
C36   C     C_1   0.993985 0.145831 0.204273 0.209305
C37   C     C_1   0.872358 0.008170 0.309216 0.254881
C38   C     C_R   0.894889 0.057582 0.838920 0.333778
C39   C     C_R   0.876804 0.096266 0.881611 0.145680
C40   C     C_R   0.048063 0.926633 0.833080 0.326039
C41   C     C_R   0.049478 0.857133 0.859699 -0.215755
H4    H     H_    0.090956 0.854035 0.889167 0.202246
C42   C     C_R   0.851463 0.073541 0.728468 0.469886
C43   C     C_R   0.791523 0.067677 0.692803 0.270498
C44   C     C_R   0.139724 0.997212 0.739707 0.547301
C45   C     C_R   0.210424 0.027049 0.718186 -0.296747
H5    H     H_    0.265506 0.991170 0.717693 0.168019
C46   C     C_R   0.067865 0.119074 0.716260 0.319300
C47   C     C_R   0.138095 0.143534 0.691001 0.422828
C48   C     C_R   0.933571 0.974361 0.686338 0.113056
C49   C     C_R   0.870415 0.965645 0.652834 0.378222
C50   C     C_R   0.013181 0.146206 0.829110 0.259360
C51   C     C_R   0.993018 0.184713 0.872044 0.384610
C52   C     C_R   0.938379 0.866685 0.785469 0.306592
C53   C     C_R   0.941508 0.797733 0.814187 0.256439
C54   C     C_3   0.987394 0.020598 0.768962 0.067299
C55   C     C_R   0.965111 0.078849 0.811789 -0.014376
C56   C     C_R   0.925801 0.159342 0.897757 -0.120903
C57   C     C_R   0.993090 0.934961 0.793856 -0.072508
C58   C     C_R   0.996523 0.794169 0.851225 -0.091155
C59   C     C_R   0.921261 0.021350 0.728271 -0.019996
C60   C     C_R   0.799134 0.010264 0.657432 -0.048545
C61   C     C_R   0.068348 0.046528 0.743208 -0.023520
C62   C     C_R   0.210069 0.099669 0.694760 0.006131
C63   C     C_1   0.994288 0.729685 0.884316 0.115318
C64   C     C_1   0.992857 0.677589 0.913106 -0.104410
C65   C     C_1   0.910991 0.194358 0.943303 0.170089
C66   C     C_1   0.898415 0.222454 0.981471 0.098653
C67   C     C_1   0.735376 0.002574 0.622858 0.234531
C68   C     C_1   0.681506 0.998742 0.594308 -0.118771
C69   C     C_1   0.283229 0.125950 0.671505 0.097139
C70   C     C_1   0.344379 0.147952 0.652126 0.081617
O9    O     O_R   0.056930 0.600420 0.055130 -0.600254
O10   O     O_R   0.924600 0.421430 0.056650 -0.603236
O11   O     O_R   0.061270 0.426220 0.059090 -0.569721
O12   O     O_R   0.920260 0.595630 0.052680 -0.575376
C71   C     C_R   0.987006 0.626226 0.068680 0.940432
C72   C     C_R   0.992870 0.398696 0.074233 0.962949
O13   O     O_R   0.924170 0.588160 0.962540 -0.589540
O14   O     O_R   0.065180 0.418740 0.968950 -0.602019
O15   O     O_R   0.928510 0.413960 0.966510 -0.629773
O16   O     O_R   0.060840 0.592940 0.964990 -0.615049
Zn3   Zn    Zn3+2 0.084620 0.510410 0.012460 1.103012
Zn4   Zn    Zn3+2 0.900820 0.503970 0.009170 1.108503
C73   C     C_R   0.992507 0.616734 0.947959 0.869894
C74   C     C_R   0.998471 0.387232 0.953589 0.915464
O17   O     O_3   0.385339 0.113907 0.366816 -0.695441
H6    H     H_    0.365577 0.164165 0.352453 0.364569
O18   O     O_3   0.870316 0.893593 0.377056 -0.709625
H7    H     H_    0.850559 0.843360 0.391553 0.368842
O19   O     O_3   0.107204 0.266895 0.214174 -0.699310
H8    H     H_    0.138244 0.317744 0.217338 0.388592
N1    N     N_R   0.865861 0.769096 0.204887 0.234868
O20   O     O_R   0.853568 0.707371 0.231554 -0.277432
O21   O     O_R   0.826694 0.835582 0.213267 -0.328630
N2    N     N_R   0.861861 0.159998 0.138735 0.230474
O22   O     O_R   0.826413 0.144479 0.099015 -0.326812
O23   O     O_R   0.831994 0.128220 0.176300 -0.297394
O24   O     O_3   0.130786 0.889680 0.372518 -0.717202
H9    H     H_    0.150310 0.839780 0.387401 0.365759
N3    N     N_R   0.739788 0.115033 0.297521 0.223662
O25   O     O_R   0.679638 0.112754 0.267868 -0.282264
O26   O     O_R   0.800428 0.164121 0.290569 -0.342657
N4    N     N_R   0.810737 0.067711 0.909942 0.219063
O27   O     O_R   0.806309 0.992089 0.921033 -0.309304
O28   O     O_R   0.755264 0.117200 0.925006 -0.329684
O29   O     O_3   0.725490 0.119065 0.690868 -0.734210
H10   H     H_    0.741964 0.172353 0.703444 0.368208
O30   O     O_3   0.746362 0.899277 0.448195 -0.722000
H11   H     H_    0.803941 0.888239 0.456327 0.362243
O31   O     O_3   0.137863 0.209590 0.662173 -0.723867
H12   H     H_    0.083457 0.213227 0.647268 0.348587
O32   O     O_3   0.876944 0.914924 0.614498 -0.697940
H13   H     H_    0.924084 0.878631 0.618217 0.405391
O33   O     O_3   0.040149 0.245999 0.891165 -0.771633
H14   H     H_    0.095257 0.246091 0.877391 0.402626
N5    N     N_R   0.885438 0.732091 0.806697 0.247542
O34   O     O_R   0.807192 0.744680 0.806989 -0.260964
O35   O     O_R   0.912312 0.658782 0.802885 -0.325961
O36   O     O_3   0.843215 0.998471 0.822235 -0.713331
H15   H     H_    0.787349 0.007494 0.834123 0.393772
N6    N     N_R   0.101792 0.989321 0.848899 0.203461
O37   O     O_R   0.083843 0.025176 0.887996 -0.396521
O38   O     O_R   0.178576 0.984161 0.838136 -0.298825
O39   O     O_3   0.845152 0.134572 0.761004 -0.729937
H16   H     H_    0.787310 0.138853 0.770617 0.350341
O40   O     O_3   0.138753 0.918209 0.754120 -0.712955
H17   H     H_    0.192340 0.892707 0.748183 0.363135
O41   O     O_3   0.998749 0.166488 0.716919 -0.730725
H18   H     H_    0.012818 0.222621 0.708999 0.387497
N7    N     N_R   0.114421 0.396688 0.148139 0.208869
O42   O     O_R   0.190798 0.377346 0.143577 -0.330503
O43   O     O_R   0.094538 0.471906 0.153488 -0.338415
N8    N     N_R   0.010631 0.937700 0.676179 0.191736
O44   O     O_R   0.055076 0.967677 0.643071 -0.399038
O45   O     O_R   0.025854 0.865101 0.690127 -0.304802
N9    N     N_R   0.083600 0.176279 0.805506 0.182902
O46   O     O_R   0.081810 0.249328 0.789568 -0.344310
O47   O     O_R   0.154302 0.144205 0.813801 -0.339154
N10   N     N_R   0.877193 0.864307 0.749511 0.204163
O48   O     O_R   0.806323 0.896496 0.757250 -0.324936
O49   O     O_R   0.881268 0.807974 0.717812 -0.291415
N11   N     N_R   0.864883 0.634728 0.142045 0.241855
O50   O     O_R   0.787523 0.651611 0.143467 -0.279088
O51   O     O_R   0.888277 0.560621 0.147260 -0.329670
O52   O     O_3   0.251394 0.897554 0.445878 -0.724724
H19   H     H_    0.193617 0.885331 0.452902 0.361359
O53   O     O_3   0.610675 0.109674 0.365269 -0.680698
H20   H     H_    0.624279 0.155507 0.344956 0.387865
O54   O     O_3   0.261187 0.107945 0.295176 -0.711635
H21   H     H_    0.318491 0.121032 0.287490 0.370512

loop_
_geom_bond_atom_site_label_1
_geom_bond_atom_site_label_2
_geom_bond_distance
_ccdc_geom_bond_type
C31   C36   1.191123 T    
O11   Zn3   1.982531 S    
O32   H13   0.988491 S    
C21   C33   1.439945 S    
O10   C72   1.286148 A    
C21   C32   1.439462 S    
C10   N7    1.435087 S    
C64   C73   1.429224 S    
O16   Zn3   1.981282 S    
O1    Zn1   1.991874 S    
O7    C4    1.285834 A    
O3    C2    1.285907 A    
O2    Zn2   1.974250 S    
O33   H14   0.987702 S    
C45   C62   1.387166 A    
C47   O31   1.380951 S    
N3    O25   1.301198 A    
O16   C73   1.286345 A    
O13   C73   1.288321 A    
N6    O37   1.301201 A    
C26   C36   1.419342 S    
C12   N11   1.436173 S    
C40   C41   1.391129 A    
C15   C16   1.389487 A    
C13   H3    1.084272 S    
C18   C23   1.407779 A    
O1    C1    1.286092 A    
O15   C74   1.286488 A    
C5    O54   1.382490 S    
N11   O50   1.301122 A    
N8    O45   1.299763 A    
C8    C25   1.406787 A    
C54   C55   1.602181 S    
N4    O28   1.301223 A    
C6    C23   1.409098 A    
C1    C68   1.431956 S    
C12   C29   1.414453 A    
N1    O20   1.301227 A    
C17   O24   1.382827 S    
C5    C6    1.412564 A    
C42   C43   1.419606 A    
C54   C61   1.582140 S    
C28   C35   1.418416 S    
C52   C57   1.462114 A    
C27   C72   1.459023 S    
C50   N9    1.431746 S    
O19   H8    0.988520 S    
C47   C62   1.394148 A    
O18   H7    0.990282 S    
N8    O44   1.301311 A    
C16   C27   1.398702 A    
C40   N6    1.432152 S    
C13   C28   1.392059 A    
C58   C63   1.439135 S    
C38   C55   1.437305 A    
N10   O49   1.301965 A    
O14   C74   1.286264 A    
C19   N3    1.437555 S    
C11   N1    1.439004 S    
C39   N4    1.438662 S    
C29   C71   1.456344 S    
C45   H5    1.084378 S    
C11   C12   1.408942 A    
C14   C29   1.399203 A    
O52   H19   0.990180 S    
O2    C2    1.286478 A    
C48   N8    1.434773 S    
C56   C65   1.448060 S    
O13   Zn4   1.982530 S    
O53   H20   0.988891 S    
C46   C61   1.438648 A    
O40   H17   0.991741 S    
C18   O52   1.382794 S    
C33   C35   1.192107 T    
C42   C59   1.438879 A    
C44   C61   1.434849 A    
C52   C53   1.418887 A    
C21   C30   1.439786 S    
C69   C70   1.205699 T    
N7    O43   1.301265 A    
O9    C71   1.286069 A    
C4    C23   1.459888 S    
C10   C27   1.411871 A    
C63   C64   1.202713 T    
C6    O17   1.382073 S    
O15   Zn4   1.980062 S    
C53   C58   1.394131 A    
C17   C22   1.399231 A    
C38   C39   1.411799 A    
O12   Zn4   1.985816 S    
C54   C57   1.601538 S    
N5    O35   1.301234 A    
C7    O18   1.382947 S    
C17   C18   1.410093 A    
C9    C26   1.403632 A    
C41   C58   1.377178 A    
C42   O39   1.377272 S    
C9    O19   1.384538 S    
C51   C56   1.394832 A    
O11   C72   1.288343 A    
O5    C3    1.287051 A    
C13   C14   1.382112 A    
C20   O53   1.384208 S    
C7    C8    1.410149 A    
C2    C25   1.458438 S    
C54   C59   1.591666 S    
C20   C25   1.408337 A    
C14   H1    1.083788 S    
C53   N5    1.438740 S    
C15   N2    1.442410 S    
O9    Zn3   1.980237 S    
C8    O30   1.382781 S    
C43   O29   1.383069 S    
C7    C24   1.400005 A    
C67   C68   1.204353 T    
O14   Zn3   1.985945 S    
C49   O32   1.385068 S    
O36   H15   0.990244 S    
N9    O47   1.300219 A    
O5    Zn2   1.964859 S    
O4    Zn2   1.989829 S    
O12   C71   1.287092 A    
C24   C37   1.421009 S    
O29   H10   0.989946 S    
C44   O40   1.380545 S    
N6    O38   1.300602 A    
C41   H4    1.085560 S    
O6    C4    1.287391 A    
C5    C22   1.399036 A    
C19   C24   1.404806 A    
C21   C31   1.437901 S    
C19   C20   1.408837 A    
C15   C26   1.407362 A    
N7    O42   1.301120 A    
O8    C3    1.287520 A    
N3    O26   1.301230 A    
C60   C67   1.443980 S    
C48   C59   1.444281 A    
C62   C69   1.443236 S    
C52   N10   1.437562 S    
C43   C60   1.393515 A    
C9    C10   1.411962 A    
N2    O23   1.301432 A    
N5    O34   1.301039 A    
C44   C45   1.406508 A    
C39   C56   1.393887 A    
N4    O27   1.301424 A    
C38   O36   1.377043 S    
C11   C28   1.408571 A    
N1    O21   1.301327 A    
C32   C37   1.191690 T    
O6    Zn1   1.989827 S    
N11   O51   1.301392 A    
O17   H6    0.990133 S    
C49   C60   1.392782 A    
C51   O33   1.385046 S    
O24   H9    0.990247 S    
C46   C47   1.423085 A    
O7    Zn2   1.991870 S    
C65   C66   1.205926 T    
O54   H21   0.989957 S    
O3    Zn1   1.964854 S    
O8    Zn1   1.974253 S    
C48   C49   1.417421 A    
C46   O41   1.383073 S    
O4    C1    1.289543 A    
C50   C51   1.424193 A    
C16   H2    1.083591 S    
O30   H11   0.990230 S    
O41   H18   0.989081 S    
O31   H12   0.990644 S    
C22   C34   1.420748 S    
N10   O48   1.300270 A    
N2    O22   1.301633 A    
C40   C57   1.448170 A    
C30   C34   1.191921 T    
O39   H16   0.991460 S    
C50   C55   1.450440 A    
N9    O46   1.301935 A    
O10   Zn4   1.981600 S    
