data_mof_unit_8702.cif
_audit_creation_date              2012-10-26T19:28:25-0400
_audit_creation_method            fapswitch 2.2
_symmetry_space_group_name_H-M    P1
_symmetry_Int_Tables_number       1
_space_group_crystal_system       triclinic
_cell_length_a                    14.770721
_cell_length_b                    14.627151
_cell_length_c                    14.303343
_cell_angle_alpha                 77.513207
_cell_angle_beta                  101.622486
_cell_angle_gamma                 114.630549
_cell_volume                      2720.99582324

loop_
_atom_site_label
_atom_site_type_symbol
_atom_type_description
_atom_site_fract_x
_atom_site_fract_y
_atom_site_fract_z
_atom_type_partial_charge
C1    C     C_R   0.880438 0.312207 0.513534 0.545694
C2    C     C_R   0.492768 0.125421 0.488416 -0.126145
C3    C     C_R   0.612414 0.898641 0.556812 -0.154968
C4    C     C_R   0.390237 0.100005 0.466152 -0.153358
C5    C     C_R   0.708684 0.656219 0.333497 -0.169676
C6    C     C_R   0.288902 0.342282 0.667102 -0.173710
C7    C     C_R   0.789511 0.625472 0.358110 0.373760
C8    C     C_R   0.207307 0.372064 0.640486 0.374374
C9    C     C_R   0.725039 0.528838 0.504309 0.383355
C10   C     C_R   0.281049 0.478874 0.501600 0.379716
C11   C     C_R   0.633223 0.543168 0.472936 -0.011837
C12   C     C_R   0.119519 0.687645 0.488814 0.532848
C13   C     C_R   0.373262 0.467154 0.537426 -0.003862
C14   C     C_R   0.631519 0.616460 0.391153 -0.046064
C15   C     C_R   0.372155 0.390404 0.616725 -0.048159
C16   C     C_R   0.999781 0.500190 0.668587 0.522265
C17   C     C_R   0.000298 0.500119 0.331363 0.524388
C18   C     C_R   0.544958 0.490212 0.520281 0.013912
C19   C     C_R   0.463181 0.522475 0.493115 0.025573
C20   C     C_R   0.474413 0.609554 0.423319 -0.124500
C21   C     C_R   0.534104 0.403615 0.590709 -0.139443
C22   C     C_R   0.554262 0.651739 0.369282 -0.151186
C23   C     C_R   0.639612 0.077266 0.515527 0.027423
C24   C     C_R   0.451509 0.358027 0.641390 -0.147735
C25   C     C_1   0.999371 0.500707 0.770743 -0.066603
C26   C     C_1   0.000536 0.500198 0.229026 -0.054327
C27   C     C_1   0.999421 0.500831 0.856228 -0.068744
C28   C     C_1   0.000440 0.500358 0.143466 -0.063082
C29   C     C_1   0.999744 0.500712 0.957024 -0.019797
C30   C     C_1   0.000091 0.500544 0.042650 -0.020283
C31   C     C_R   0.812105 0.204094 0.522271 0.005178
C32   C     C_R   0.188196 0.795349 0.487405 -0.006856
C33   C     C_R   0.781314 0.026249 0.576130 -0.159033
C34   C     C_R   0.361559 0.920442 0.502267 0.037916
C35   C     C_R   0.221038 0.974472 0.445191 -0.154132
C36   C     C_R   0.847590 0.127904 0.566088 -0.189856
C37   C     C_R   0.153800 0.873429 0.450497 -0.196973
C38   C     C_R   0.709162 0.177067 0.488112 0.251729
C39   C     C_R   0.290618 0.820139 0.524276 0.257202
C40   C     C_3   0.294504 0.735170 0.679474 0.022139
C41   C     C_3   0.382008 0.805758 0.741508 -0.274450
C42   C     C_3   0.359787 0.786704 0.845235 -0.486274
C43   C     C_3   0.659910 0.224366 0.328371 0.001898
C44   C     C_3   0.748888 0.294092 0.273247 -0.248872
C45   C     C_R   0.677756 0.000430 0.551006 0.009858
C46   C     C_3   0.728807 0.275413 0.168743 -0.488878
C47   C     C_3   0.221609 0.437231 0.349077 0.022684
C48   C     C_3   0.302401 0.418822 0.312277 -0.293137
C49   C     C_3   0.255698 0.344585 0.238966 -0.492250
C50   C     C_3   0.757767 0.561278 0.661960 -0.002349
C51   C     C_3   0.840088 0.668788 0.642222 -0.260841
C52   C     C_3   0.843048 0.736930 0.710860 -0.495823
C53   C     C_3   0.145691 0.323713 0.788922 0.006526
C54   C     C_3   0.111206 0.214395 0.841700 -0.273081
C55   C     C_3   0.128999 0.211604 0.951000 -0.487221
C56   C     C_R   0.324360 0.998538 0.469753 0.008284
C57   C     C_3   0.909165 0.762030 0.274683 0.008711
C58   C     C_3   0.888873 0.797200 0.166605 -0.270673
C59   C     C_3   0.944875 0.911833 0.140983 -0.490406
C60   C     C_R   0.533901 0.050860 0.504865 0.018937
C61   C     C_R   0.467569 0.946497 0.514768 0.024011
C62   C     C_R   0.509698 0.872381 0.532947 -0.122207
Cu1   Cu    Cu3+1 0.081740 0.475690 0.523180 1.018503
Cu2   Cu    Cu3+1 0.918260 0.524310 0.476820 1.029365
H1    H     H_    0.641130 0.838939 0.576271 0.110395
H2    H     H_    0.538343 0.204393 0.493702 0.178722
H3    H     H_    0.556529 0.713752 0.311140 0.111245
H4    H     H_    0.448198 0.294621 0.698205 0.112886
H5    H     H_    0.704660 0.708742 0.268210 0.103043
H6    H     H_    0.287301 0.281980 0.726820 0.102178
H7    H     H_    0.279771 0.655138 0.713043 0.159756
H8    H     H_    0.224434 0.746814 0.679377 0.106754
H9    H     H_    0.451057 0.792908 0.741456 0.174365
H10   H     H_    0.395732 0.886273 0.710815 0.165382
H11   H     H_    0.291746 0.800559 0.847034 0.149080
H12   H     H_    0.362173 0.160183 0.448557 0.112758
H13   H     H_    0.424294 0.839103 0.888252 0.147595
H14   H     H_    0.347856 0.707161 0.878441 0.145610
H15   H     H_    0.592422 0.239058 0.291661 0.148843
H16   H     H_    0.642632 0.143134 0.324730 0.119072
H17   H     H_    0.762929 0.374694 0.274150 0.203128
H18   H     H_    0.817139 0.280375 0.308967 0.146644
H19   H     H_    0.716177 0.195618 0.166011 0.143754
H20   H     H_    0.794572 0.327112 0.130828 0.159471
H21   H     H_    0.661877 0.290482 0.130836 0.145857
H22   H     H_    0.175552 0.460454 0.284748 0.166092
H23   H     H_    0.421295 0.645451 0.408079 0.174527
H24   H     H_    0.169906 0.364590 0.387023 0.126929
H25   H     H_    0.355360 0.491946 0.277410 0.181955
H26   H     H_    0.344578 0.385870 0.373214 0.163141
H27   H     H_    0.202916 0.270334 0.272268 0.142076
H28   H     H_    0.315741 0.331990 0.214432 0.149624
H29   H     H_    0.214745 0.375766 0.175156 0.149175
H30   H     H_    0.776160 0.527546 0.736978 0.154187
H31   H     H_    0.684842 0.566984 0.660291 0.126257
H32   H     H_    0.914743 0.664721 0.652049 0.183774
H33   H     H_    0.825759 0.704969 0.567152 0.143051
H34   H     H_    0.588730 0.369489 0.607732 0.169727
H35   H     H_    0.770113 0.745173 0.700958 0.143246
H36   H     H_    0.903042 0.813523 0.695473 0.141803
H37   H     H_    0.859227 0.704321 0.786925 0.151550
H38   H     H_    0.102969 0.361617 0.809667 0.160899
H39   H     H_    0.226315 0.367208 0.813967 0.099245
H40   H     H_    0.029768 0.173403 0.819212 0.172710
H41   H     H_    0.152589 0.174435 0.821972 0.152463
H42   H     H_    0.210268 0.250385 0.975442 0.144733
H43   H     H_    0.102763 0.131369 0.987067 0.145157
H44   H     H_    0.086757 0.249590 0.972602 0.149449
H45   H     H_    0.074839 0.856721 0.428160 0.116567
H46   H     H_    0.991003 0.781019 0.292613 0.159710
H47   H     H_    0.889857 0.805129 0.317793 0.093934
H48   H     H_    0.913647 0.757469 0.125184 0.176549
H49   H     H_    0.807225 0.777506 0.144937 0.153190
H50   H     H_    0.919779 0.953239 0.180079 0.144375
H51   H     H_    0.929230 0.934917 0.062190 0.145765
H52   H     H_    0.027091 0.933216 0.160246 0.146096
H53   H     H_    0.926692 0.146651 0.590705 0.156026
H54   H     H_    0.810745 0.967872 0.605461 0.114853
H55   H     H_    0.192459 0.033967 0.419816 0.112822
H56   H     H_    0.465505 0.793254 0.527880 0.182247
N1    N     N_R   0.795420 0.560790 0.441960 -0.203991
N2    N     N_R   0.204580 0.439210 0.558040 -0.210824
O1    O     O_R   0.977910 0.338120 0.530560 -0.483050
O2    O     O_3   0.678694 0.247412 0.423460 -0.573897
O3    O     O_3   0.263027 0.517619 0.405770 -0.562013
O4    O     O_3   0.750550 0.493757 0.599720 -0.551724
O5    O     O_3   0.122519 0.322822 0.687820 -0.534022
O6    O     O_3   0.860131 0.654941 0.295199 -0.532691
O7    O     O_R   0.022090 0.661880 0.469440 -0.515683
O8    O     O_R   0.839850 0.379180 0.491410 -0.426288
O9    O     O_R   0.160150 0.620820 0.508590 -0.427764
O10   O     O_R   0.069040 0.479460 0.643530 -0.468382
O11   O     O_R   0.930960 0.520540 0.356470 -0.437906
O12   O     O_R   0.930990 0.520530 0.604380 -0.446545
O13   O     O_R   0.069010 0.479470 0.395620 -0.474722
O14   O     O_3   0.319897 0.747339 0.585897 -0.580403

loop_
_geom_bond_atom_site_label_1
_geom_bond_atom_site_label_2
_ccdc_geom_bond_type
C51   H33   S    
C11   C18   A    
C34   C56   A    
C23   C45   A    
C40   H7    S    
C27   C29   S    
C18   C21   A    
C33   C45   A    
C41   C42   S    
C35   H55   S    
C19   C20   A    
C16   O12   A    
C57   O6    S    
C4    C56   A    
C53   C54   S    
C40   O14   S    
C42   H11   S    
C58   H48   S    
C17   C26   S    
C54   H40   S    
C35   C37   A    
C7    N1    A    
C44   H18   S    
C11   C14   A    
C2    C60   A    
C50   H31   S    
C43   H15   S    
Cu2   N1    S    
C20   H23   S    
C1    C31   S    
C33   C36   A    
C18   C19   A    
C32   C39   A    
C5    H5    S    
C53   O5    S    
C41   H10   S    
Cu2   O11   S    
C47   C48   S    
C59   H52   S    
C17   O13   A    
C58   H49   S    
C9    N1    A    
C50   O4    S    
Cu1   O9    S    
C7    O6    S    
C10   O3    S    
C37   H45   S    
C51   H32   S    
C46   H21   S    
C6    C15   A    
C33   H54   S    
C48   H26   S    
C12   C32   S    
C3    H1    S    
C49   H27   S    
C44   C46   S    
C47   O3    S    
C39   O14   S    
C23   C60   A    
Cu2   O12   S    
C52   H37   S    
C12   O7    A    
C13   C19   A    
C55   H42   S    
C51   C52   S    
C47   H22   S    
C44   H17   S    
C12   O9    A    
C5    C7    A    
C50   H30   S    
C6    C8    A    
C10   N2    A    
C43   H16   S    
C32   C37   A    
C3    C45   A    
C34   C61   A    
C34   C39   A    
C55   H43   S    
C60   C61   A    
Cu1   O13   S    
C2    C4    A    
C43   C44   S    
C1    O1    A    
C29   C30   T    
C8    O5    S    
C57   H46   S    
C53   H38   S    
C50   C51   S    
Cu1   O10   S    
C36   H53   S    
C9    C11   A    
C5    C14   A    
C46   H20   S    
C15   C24   A    
Cu2   O8    S    
C1    O8    A    
C48   H25   S    
C13   C15   A    
C17   O11   A    
C49   H28   S    
Cu1   N2    S    
C3    C62   A    
C16   C25   S    
C6    H6    S    
C54   C55   S    
C48   C49   S    
C40   H8    S    
C54   H41   S    
C35   C56   A    
C62   H56   S    
C20   C22   A    
Cu1   Cu2   S    
C2    H2    S    
C10   C13   A    
Cu1   O1    S    
C42   H14   S    
C25   C27   T    
C23   C38   A    
C52   H35   S    
C26   C28   T    
C9    O4    S    
C31   C38   A    
C55   H44   S    
C47   H24   S    
C14   C22   A    
C28   C30   S    
C58   C59   S    
C21   H34   S    
C8    N2    A    
C57   C58   S    
C57   H47   S    
C53   H39   S    
C59   H50   S    
C52   H36   S    
C61   C62   A    
C16   O10   A    
C22   H3    S    
C4    H12   S    
C24   H4    S    
C41   H9    S    
C46   H19   S    
Cu2   O7    S    
C42   H13   S    
C59   H51   S    
C21   C24   A    
C31   C36   A    
C40   C41   S    
C49   H29   S    
C43   O2    S    
C38   O2    S    
