data_mof_unit_12036.cif
_audit_creation_date              2012-12-10T16:57:44-0500
_audit_creation_method            fapswitch 2.2
_symmetry_space_group_name_H-M    P1
_symmetry_Int_Tables_number       1
_space_group_crystal_system       triclinic
_cell_length_a                    7.748323
_cell_length_b                    8.579299
_cell_length_c                    19.13781
_cell_angle_alpha                 90.828246
_cell_angle_beta                  86.195931
_cell_angle_gamma                 93.619548
_cell_volume                      1266.78697717

loop_
_atom_site_label
_atom_site_type_symbol
_atom_type_description
_atom_site_fract_x
_atom_site_fract_y
_atom_site_fract_z
_atom_type_partial_charge
C1    C     C_R   0.545835 0.794801 0.498179 0.973021
C2    C     C_R   0.626760 0.444074 0.175679 -0.182669
C3    C     C_R   0.528649 0.532605 0.854835 0.064204
C4    C     C_R   0.471351 0.467394 0.145165 0.064204
C5    C     C_R   0.680908 0.505893 0.812544 0.018175
C6    C     C_R   0.319091 0.494106 0.187456 0.018175
C7    C     C_R   0.669880 0.493849 0.740228 -0.287951
C8    C     C_R   0.330120 0.506151 0.259771 -0.287951
C9    C     C_R   0.512212 0.512086 0.710168 -0.022723
C10   C     C_R   0.487788 0.487914 0.289832 -0.022723
C11   C     C_R   0.479424 0.480343 0.069651 0.353321
C12   C     C_R   0.454165 0.205199 0.501821 0.973022
C13   C     C_R   0.520576 0.519657 0.930349 0.353321
C14   C     C_2   0.853863 0.494312 0.840543 0.391724
C15   C     C_2   0.146137 0.505687 0.159457 0.391724
C16   C     C_2   0.570023 0.958213 0.497145 -0.378656
C17   C     C_2   0.429977 0.041787 0.502855 -0.378656
C18   C     C_R   0.503193 0.501998 0.634521 0.871110
C19   C     C_R   0.496807 0.498002 0.365478 0.871112
C20   C     C_R   0.364785 0.545531 0.752494 -0.194183
C21   C     C_R   0.635215 0.454468 0.247506 -0.194184
C22   C     C_R   0.373239 0.555925 0.824321 -0.182669
H1    H     H_    0.256137 0.576276 0.856427 0.190071
H2    H     H_    0.214669 0.528034 0.292706 0.150281
H3    H     H_    0.013815 0.382894 0.447497 0.190162
H4    H     H_    0.986185 0.617106 0.552503 0.190162
H5    H     H_    0.743862 0.423724 0.143573 0.190071
H6    H     H_    0.702298 0.009228 0.491703 0.180385
H7    H     H_    0.297701 0.990772 0.508297 0.180385
H8    H     H_    0.242282 0.562009 0.730303 0.154789
H9    H     H_    0.757718 0.437991 0.269697 0.154789
H10   H     H_    0.956527 0.442866 0.808345 0.050336
H11   H     H_    0.043473 0.557133 0.191655 0.050336
H12   H     H_    0.785331 0.471966 0.707294 0.150281
N1    N     N_R   0.584181 0.394904 0.960122 -0.116987
N2    N     N_R   0.415819 0.605095 0.039878 -0.116986
N3    N     N_R   0.565545 0.376397 0.028945 -0.141763
N4    N     N_R   0.434455 0.623602 0.971055 -0.141763
N5    N     N_2   0.950330 0.457950 0.481240 -0.176436
N6    N     N_2   0.049670 0.542050 0.518760 -0.176436
O1    O     O_R   0.389250 0.738570 0.504600 -0.610902
O2    O     O_2   0.113528 0.452693 0.101938 -0.537663
O3    O     O_R   0.610750 0.261430 0.495400 -0.610902
O4    O     O_R   0.678400 0.711620 0.492580 -0.628456
O5    O     O_R   0.321600 0.288380 0.507420 -0.628456
O6    O     O_R   0.355380 0.513500 0.607880 -0.623534
O7    O     O_R   0.644620 0.486500 0.392120 -0.623534
O8    O     O_R   0.644530 0.486550 0.595850 -0.627622
O9    O     O_R   0.355470 0.513450 0.404150 -0.627622
O10   O     O_2   0.886472 0.547307 0.898062 -0.537663
Zn1   Zn    Zn3+2 0.306930 0.517990 0.508030 0.941963
Zn2   Zn    Zn3+2 0.693070 0.482010 0.491970 0.941963

loop_
_geom_bond_atom_site_label_1
_geom_bond_atom_site_label_2
_ccdc_geom_bond_type
C12   C17   S    
C16   H6    S    
C2    C4    A    
O7    Zn2   S    
O1    Zn1   S    
N6    Zn1   S    
C17   H7    S    
C19   O9    A    
C1    O4    A    
C3    C13   S    
C10   C19   S    
C3    C5    A    
O4    Zn2   S    
C2    C21   A    
N2    N4    A    
N5    Zn2   S    
C5    C14   S    
C1    C16   S    
C20   H8    S    
H3    N5    S    
C4    C11   S    
C21   H9    S    
H4    N6    S    
C13   N4    A    
C2    H5    S    
C18   O6    A    
C1    O1    A    
C11   N2    A    
N1    N3    A    
C20   C22   A    
C13   N1    A    
C12   O3    A    
C5    C7    A    
C10   C21   A    
C7    H12   S    
C19   O7    A    
O3    Zn2   S    
C14   O10   D    
C7    C9    A    
C9    C18   S    
O8    Zn2   S    
C4    C6    A    
N5    N6    D    
C11   N3    A    
O5    Zn1   S    
C22   H1    S    
C12   O5    A    
C3    C22   A    
C6    C8    A    
C9    C20   A    
C8    H2    S    
C6    C15   S    
O6    Zn1   S    
C15   H11   S    
C8    C10   A    
C15   O2    D    
C14   H10   S    
C16   C17   D    
O9    Zn1   S    
C18   O8    A    
