data_mof_unit_14365.cif
_audit_creation_date              2012-12-10T17:12:43-0500
_audit_creation_method            fapswitch 2.2
_symmetry_space_group_name_H-M    P1
_symmetry_Int_Tables_number       1
_space_group_crystal_system       triclinic
_cell_length_a                    23.43174
_cell_length_b                    10.685338
_cell_length_c                    10.166698
_cell_angle_alpha                 87.686664
_cell_angle_beta                  91.36943
_cell_angle_gamma                 91.927516
_cell_volume                      2541.33650757

loop_
_atom_site_label
_atom_site_type_symbol
_atom_type_description
_atom_site_fract_x
_atom_site_fract_y
_atom_site_fract_z
_atom_type_partial_charge
C1    C     C_R   0.505902 0.263481 0.502803 0.821324
C2    C     C_R   0.121844 0.589501 0.510989 0.572169
C3    C     C_R   0.236267 0.530582 0.379729 0.505376
C4    C     C_R   0.389619 0.501885 0.498396 0.856172
C5    C     C_R   0.295629 0.546965 0.383748 0.404697
C6    C     C_R   0.327217 0.500645 0.495137 -0.247131
C7    C     C_R   0.298540 0.446078 0.603558 -0.244483
C8    C     C_R   0.239542 0.436497 0.602341 -0.131428
C9    C     C_R   0.208233 0.478361 0.491738 0.068932
C10   C     C_R   0.761809 0.481850 0.632199 0.518395
C11   C     C_R   0.702196 0.486991 0.627514 -0.317506
C12   C     C_R   0.965355 0.251227 0.520548 0.389547
C13   C     C_R   0.672702 0.496140 0.505711 -0.071817
C14   C     C_R   0.703046 0.500150 0.388294 -0.180311
C15   C     C_R   0.762115 0.495226 0.392588 -0.206214
C16   C     C_R   0.498993 0.736799 0.497128 0.858367
C17   C     C_R   0.791242 0.486088 0.513829 0.271310
C18   C     C_2   0.535295 0.934641 0.415599 0.329853
C19   C     C_2   0.495660 0.869860 0.486581 0.281297
C20   C     C_2   0.530993 0.070785 0.401008 0.320772
C21   C     C_2   0.524313 0.134457 0.511050 0.285345
C22   C     C_2   0.530043 0.577715 0.924990 0.085186
C23   C     C_R   0.025125 0.249851 0.507195 0.357093
C24   C     C_2   0.536037 0.564310 0.072615 0.094675
C25   C     C_R   0.610440 0.499695 0.501500 0.906836
C26   C     C_R   0.882166 0.594799 0.517832 0.593186
C27   C     C_R   0.877470 0.371347 0.515851 0.593982
C28   C     C_R   0.937354 0.366473 0.517754 -0.139151
C29   C     C_R   0.969747 0.480618 0.515982 -0.144953
C30   C     C_R   0.942017 0.596365 0.515744 -0.172755
C31   C     C_3   0.933672 0.100572 0.666848 -0.152955
C32   C     C_3   0.435454 0.344190 0.858970 -0.041777
C33   C     C_3   0.428380 0.359765 0.144011 0.049748
C34   C     C_R   0.057515 0.363967 0.505815 -0.093831
C35   C     C_3   0.068319 0.853775 0.663267 -0.131617
C36   C     C_3   0.945873 0.865063 0.370878 -0.147585
C37   C     C_R   0.029824 0.479239 0.513092 -0.159920
C38   C     C_R   0.062202 0.593419 0.516445 -0.175228
C39   C     C_R   0.034249 0.708045 0.523254 0.422691
C40   C     C_R   0.974630 0.709942 0.513056 0.411299
C41   C     C_R   0.117384 0.366798 0.496972 0.579061
H1    H     H_    0.679093 0.483514 0.718681 0.165223
H2    H     H_    0.977502 0.083956 0.706868 0.125995
H3    H     H_    0.604898 0.938376 0.315831 0.347699
H4    H     H_    0.424691 0.863279 0.582678 0.336806
H5    H     H_    0.531321 0.063555 0.210437 0.341103
H6    H     H_    0.529771 0.131683 0.704886 0.366668
H7    H     H_    0.432055 0.321714 0.755871 0.185098
H8    H     H_    0.402690 0.414057 0.877385 0.154264
H9    H     H_    0.423706 0.253946 0.910419 0.095969
H10   H     H_    0.024441 0.068784 0.482601 0.383165
H11   H     H_    0.418615 0.350473 0.247807 0.179014
H12   H     H_    0.681270 0.507227 0.293243 0.174376
H13   H     H_    0.459707 0.287382 0.123904 0.173907
H14   H     H_    0.386953 0.336010 0.094771 0.088915
H15   H     H_    0.094507 0.941782 0.670106 0.222833
H16   H     H_    0.089674 0.780635 0.726132 0.148114
H17   H     H_    0.025411 0.871450 0.701788 0.138052
H18   H     H_    0.922059 0.953027 0.362352 0.229009
H19   H     H_    0.922400 0.795318 0.309501 0.139849
H20   H     H_    0.989251 0.885528 0.331619 0.161636
H21   H     H_    0.166802 0.540615 0.270618 0.328500
H22   H     H_    0.353936 0.660704 0.312015 0.343045
H23   H     H_    0.785474 0.498898 0.301794 0.156733
H24   H     H_    0.765261 0.471291 0.823550 0.331325
H25   H     H_    0.551887 0.657546 0.877042 0.075241
H26   H     H_    0.572812 0.610715 0.118472 0.071760
H27   H     H_    0.321765 0.409973 0.689530 0.175305
H28   H     H_    0.217841 0.397301 0.688198 0.176560
H29   H     H_    0.908702 0.010789 0.676867 0.230843
H30   H     H_    0.912518 0.170117 0.726374 0.163723
N1    N     N_R   0.851903 0.483883 0.516307 -0.349657
N2    N     N_R   0.147509 0.478037 0.499159 -0.374159
N3    N     N_2   0.500610 0.501330 0.852150 0.095519
N4    N     N_2   0.500630 0.501360 0.147810 0.094125
O1    O     O_R   0.499990 0.319060 0.613040 -0.641358
O2    O     O_R   0.583840 0.500020 0.613040 -0.619699
O3    O     O_R   0.583850 0.500060 0.386900 -0.622617
O4    O     O_2   0.853910 0.702529 0.522097 -0.492281
O5    O     O_3   0.934377 0.138961 0.532440 -0.580735
O6    O     O_3   0.578940 0.874005 0.357531 -0.790356
O7    O     O_3   0.449775 0.928061 0.538703 -0.780476
O8    O     O_3   0.529830 0.128799 0.276823 -0.789011
O9    O     O_3   0.536515 0.075306 0.632453 -0.762313
O10   O     O_3   0.490614 0.384636 0.903660 -0.520337
O11   O     O_3   0.052624 0.138093 0.497297 -0.691900
O12   O     O_2   0.844584 0.265360 0.511946 -0.489402
O13   O     O_3   0.447387 0.480982 0.098237 -0.511831
O14   O     O_3   0.064805 0.820718 0.530276 -0.542815
O15   O     O_3   0.948738 0.824526 0.504665 -0.564776
O16   O     O_3   0.207094 0.571211 0.267041 -0.688531
O17   O     O_3   0.320894 0.610354 0.278257 -0.675418
O18   O     O_3   0.792316 0.473158 0.749903 -0.760168
O19   O     O_2   0.145763 0.260057 0.485735 -0.461496
O20   O     O_2   0.154467 0.695828 0.515926 -0.470818
O21   O     O_R   0.500010 0.319100 0.386900 -0.590646
O22   O     O_R   0.416150 0.499940 0.613100 -0.637901
O23   O     O_R   0.416160 0.499980 0.386960 -0.611261
O24   O     O_R   0.499990 0.680900 0.613100 -0.626473
O25   O     O_R   0.500010 0.680940 0.386960 -0.589847
Zn1   Zn    Zn3+2 0.499990 0.499970 0.650990 0.988944
Zn2   Zn    Zn3+2 0.500010 0.500030 0.349010 1.028311

loop_
_geom_bond_atom_site_label_1
_geom_bond_atom_site_label_2
_ccdc_geom_bond_type
C33   H14   S    
C1    C21   S    
C4    O23   A    
O3    Zn2   S    
C34   C37   A    
C26   N1    A    
O2    Zn1   S    
H4    O7    S    
C36   H18   S    
C7    C8    A    
C33   H11   S    
C12   C23   A    
C8    H28   S    
C29   C30   A    
C31   H2    S    
C12   C28   A    
C35   H17   S    
C25   O2    A    
C2    O20   S    
C33   O13   S    
O21   Zn2   S    
C1    O21   A    
C38   C39   A    
C10   C17   A    
O1    Zn1   S    
C18   O6    S    
C11   H1    S    
C3    O16   S    
C18   C19   D    
C22   H25   S    
C24   H26   S    
C7    H27   S    
C31   H29   S    
C8    C9    A    
C23   O11   S    
H22   O17   S    
N4    Zn2   S    
C15   H23   S    
C19   O7    S    
H24   O18   S    
C13   C14   A    
C32   H7    S    
C13   C25   S    
C34   C41   A    
C9    N2    S    
H10   O11   S    
C25   O3    A    
C31   O5    S    
C4    C6    S    
H3    O6    S    
C39   C40   A    
C16   O25   A    
C10   O18   S    
C3    C5    A    
O23   Zn2   S    
C37   C38   A    
C3    C9    A    
C2    C38   A    
C41   O19   S    
C21   O9    S    
C23   C34   A    
H21   O16   S    
O25   Zn2   S    
C30   C40   A    
C24   N4    D    
H6    O9    S    
C27   O12   S    
C32   H9    S    
C2    N2    A    
N3    Zn1   S    
C35   O14   S    
O24   Zn1   S    
C26   C30   A    
C22   C24   S    
C22   N3    D    
C36   H20   S    
C36   O15   S    
C33   H13   S    
C15   C17   A    
C28   C29   A    
C35   H15   S    
C1    O1    A    
C36   H19   S    
C16   O24   A    
C6    C7    A    
C26   O4    S    
C35   H16   S    
C11   C13   A    
C5    C6    A    
C16   C19   S    
C32   O10   S    
C12   O5    S    
C31   H30   S    
C18   C20   S    
N3    O10   S    
C32   H8    S    
C5    O17   S    
C10   C11   A    
C41   N2    A    
H5    O8    S    
N4    O13   S    
C14   H12   S    
C20   C21   D    
C17   N1    S    
C20   O8    S    
C29   C37   A    
C27   C28   A    
C14   C15   A    
C40   O15   S    
C4    O22   A    
C39   O14   S    
O22   Zn1   S    
C27   N1    A    
