data_mof_unit_60569.cif
_audit_creation_date              2012-10-26T17:54:34-0400
_audit_creation_method            fapswitch 2.2
_symmetry_space_group_name_H-M    P1
_symmetry_Int_Tables_number       1
_space_group_crystal_system       triclinic
_cell_length_a                    18.735775
_cell_length_b                    18.845025
_cell_length_c                    18.81604
_cell_angle_alpha                 109.182223
_cell_angle_beta                  109.335023
_cell_angle_gamma                 109.440106
_cell_volume                      5142.74365949

loop_
_atom_site_label
_atom_site_type_symbol
_atom_type_description
_atom_site_fract_x
_atom_site_fract_y
_atom_site_fract_z
_atom_type_partial_charge
C1    C     C_R   0.618893 0.118923 0.999995 0.546874
C2    C     C_R   0.515572 0.766274 0.688001 -0.121849
C3    C     C_R   0.515750 0.831055 0.751486 0.089922
C4    C     C_R   0.495037 0.113326 0.117511 0.559658
C5    C     C_R   0.500941 0.816672 0.815378 0.058023
C6    C     C_R   0.327471 0.817915 0.081682 0.133133
C7    C     C_R   0.263929 0.752642 0.081859 0.092079
C8    C     C_R   0.188370 0.685633 0.002747 0.017467
C9    C     C_R   0.177166 0.683816 0.924827 -0.163586
C10   C     C_R   0.239724 0.749071 0.924914 -0.175710
C11   C     C_R   0.314976 0.815813 0.002771 0.033944
C12   C     C_R   0.820818 0.242015 0.998116 -0.130448
C13   C     C_R   0.618702 0.502223 0.620794 0.541741
C14   C     C_R   0.503550 0.385788 0.387697 0.581533
C15   C     C_R   0.381415 0.503856 0.385103 0.544563
C16   C     C_R   0.381192 0.881781 0.000849 0.568573
C17   C     C_R   0.499665 0.621295 0.621218 0.542562
C18   C     C_R   0.880628 0.500561 0.881562 0.550110
C19   C     C_R   0.881019 0.381271 0.000215 0.550939
C20   C     C_R   0.119477 0.499779 0.118358 0.543914
C21   C     C_R   0.119801 0.618670 0.000830 0.550953
C22   C     C_R   0.735810 0.571123 0.768999 -0.145226
C23   C     C_R   0.814327 0.314686 0.000816 0.026126
C24   C     C_R   0.799020 0.571051 0.833515 -0.139340
C25   C     C_R   0.813082 0.500259 0.814375 0.003390
C26   C     C_R   0.762909 0.429205 0.730203 -0.117123
C27   C     C_R   0.698549 0.428106 0.664838 0.003765
C28   C     C_R   0.500224 0.882179 0.881955 0.559962
C29   C     C_R   0.685316 0.500065 0.685235 0.044837
C30   C     C_R   0.271282 0.435280 0.231832 0.070297
C31   C     C_R   0.208109 0.434922 0.166644 -0.084674
C32   C     C_R   0.187535 0.501194 0.186204 -0.029763
C33   C     C_R   0.231458 0.568987 0.271595 -0.129369
C34   C     C_R   0.743483 0.322943 0.003249 -0.131072
C35   C     C_R   0.295343 0.571013 0.338044 -0.014856
C36   C     C_R   0.314891 0.503303 0.317752 0.053594
C37   C     C_2   0.493181 0.244654 0.318667 -0.154203
C38   C     C_2   0.515877 0.324556 0.328283 0.089065
C39   C     C_2   0.508191 0.183772 0.260853 -0.165956
C40   C     C_2   0.480794 0.168736 0.179537 -0.116422
C41   C     C_R   0.757374 0.178450 0.999265 -0.134263
C42   C     C_3   0.647503 0.350917 0.574465 -0.271513
C43   C     C_3   0.576138 0.275113 0.567197 -0.426731
C44   C     C_3   0.339781 0.644748 0.429606 -0.283823
C45   C     C_R   0.678496 0.257909 0.001404 -0.128702
C46   C     C_3   0.299076 0.617813 0.481030 -0.428514
C47   C     C_R   0.685775 0.185968 0.000146 0.028090
C48   C     C_R   0.485682 0.738714 0.815226 -0.162636
C49   C     C_R   0.483534 0.673930 0.750657 -0.145475
C50   C     C_R   0.499101 0.687823 0.687345 -0.002047
Cu1   Cu    Cu3+1 0.438200 0.000380 0.938580 0.957575
Cu2   Cu    Cu3+1 0.561800 0.999620 0.061420 0.950409
Cu3   Cu    Cu3+1 0.438220 0.441470 0.503160 0.908324
Cu4   Cu    Cu3+1 0.561830 0.565070 0.503150 0.945267
Cu5   Cu    Cu3+1 0.999900 0.438590 0.938490 0.930740
Cu6   Cu    Cu3+1 0.999930 0.561410 0.061340 0.923364
H1    H     H_    0.466825 0.225081 0.356729 0.126230
H2    H     H_    0.215737 0.620497 0.286837 0.138428
H3    H     H_    0.539502 0.150742 0.284338 0.150117
H4    H     H_    0.440285 0.194322 0.154921 0.118950
H5    H     H_    0.763244 0.122795 0.997927 0.119381
H6    H     H_    0.875541 0.235247 0.996465 0.123995
H7    H     H_    0.737751 0.378732 0.004890 0.123954
H8    H     H_    0.623420 0.264296 0.002424 0.122868
H9    H     H_    0.474085 0.727645 0.864347 0.120964
H10   H     H_    0.592313 0.959949 0.807203 0.223171
H11   H     H_    0.538167 0.910162 0.698730 0.219806
H12   H     H_    0.471289 0.613693 0.750996 0.135002
H13   H     H_    0.436580 0.861811 0.191827 0.252005
H14   H     H_    0.383721 0.918895 0.201811 0.238215
H15   H     H_    0.232172 0.764338 0.176813 0.253221
H16   H     H_    0.271551 0.695028 0.156260 0.234849
H17   H     H_    0.525995 0.335121 0.226419 0.225722
H18   H     H_    0.616338 0.343990 0.301201 0.243126
H19   H     H_    0.604851 0.254880 0.613354 0.149427
H20   H     H_    0.529802 0.293496 0.581123 0.177050
H21   H     H_    0.539832 0.219449 0.500498 0.131041
H22   H     H_    0.617565 0.366994 0.524849 0.153346
H23   H     H_    0.527263 0.776530 0.638587 0.116626
H24   H     H_    0.692202 0.330829 0.558601 0.137598
H25   H     H_    0.357089 0.393243 0.228270 0.239195
H26   H     H_    0.278653 0.334564 0.243592 0.249380
H27   H     H_    0.228446 0.596295 0.448219 0.157457
H28   H     H_    0.307744 0.564476 0.487710 0.178584
H29   H     H_    0.330881 0.673729 0.546749 0.148622
H30   H     H_    0.410610 0.667537 0.463380 0.161496
H31   H     H_    0.333884 0.701278 0.428689 0.139705
H32   H     H_    0.119152 0.632560 0.864041 0.131814
H33   H     H_    0.230031 0.746793 0.863976 0.134681
H34   H     H_    0.725559 0.626328 0.784535 0.116128
H35   H     H_    0.837473 0.626680 0.898017 0.136918
H36   H     H_    0.773608 0.374273 0.715177 0.131454
H37   H     H_    0.174564 0.382259 0.100870 0.157105
N1    N     N_3   0.532124 0.911611 0.752411 -0.604241
N2    N     N_3   0.403615 0.887763 0.161709 -0.597898
N3    N     N_3   0.278549 0.754529 0.162509 -0.646881
N4    N     N_3   0.566179 0.358969 0.292040 -0.615210
N5    N     N_3   0.290836 0.366420 0.209218 -0.634351
O1    O     O_R   0.537990 0.090490 0.948120 -0.504317
O2    O     O_R   0.909750 0.552440 0.962210 -0.511371
O3    O     O_R   0.909720 0.357980 0.948050 -0.511165
O4    O     O_R   0.642370 0.089850 0.051860 -0.511207
O5    O     O_R   0.909750 0.461690 0.051790 -0.506108
O6    O     O_R   0.090070 0.447560 0.037620 -0.513551
O7    O     O_R   0.090100 0.551270 0.141360 -0.515688
O8    O     O_R   0.090070 0.538310 0.948030 -0.506290
O9    O     O_R   0.090100 0.642020 0.051770 -0.516888
O10   O     O_R   0.447800 0.089920 0.037730 -0.513187
O11   O     O_R   0.552180 0.089280 0.141460 -0.498582
O12   O     O_R   0.642390 0.554900 0.592760 -0.508459
O13   O     O_R   0.357630 0.910150 0.948140 -0.522692
O14   O     O_R   0.462010 0.909510 0.051880 -0.481703
O15   O     O_R   0.447820 0.910720 0.858540 -0.481104
O16   O     O_R   0.552200 0.910080 0.962270 -0.523776
O17   O     O_R   0.538000 0.450530 0.592770 -0.513447
O18   O     O_R   0.447840 0.361480 0.413570 -0.531535
O19   O     O_R   0.552220 0.465860 0.413560 -0.470769
O20   O     O_R   0.357660 0.451630 0.413550 -0.515677
O21   O     O_R   0.462040 0.556010 0.413540 -0.514650
O22   O     O_R   0.447820 0.540680 0.592750 -0.513130
O23   O     O_R   0.552200 0.645050 0.592740 -0.515822
O24   O     O_R   0.909730 0.448730 0.858460 -0.515429

loop_
_geom_bond_atom_site_label_1
_geom_bond_atom_site_label_2
_ccdc_geom_bond_type
Cu5   Cu6   S    
C42   H24   S    
C33   H2    S    
C40   H4    S    
C49   H12   S    
C27   C29   A    
C35   C36   A    
C41   H5    S    
C4    O11   A    
C1    O1    A    
Cu3   O22   S    
C7    C8    A    
Cu3   Cu4   S    
H17   N4    S    
C7    N3    S    
C4    O10   A    
C12   C23   A    
Cu2   O4    S    
C26   C27   A    
C37   C38   D    
C13   C29   S    
C22   C29   A    
C9    H32   S    
C30   C31   A    
H25   N5    S    
Cu2   O14   S    
C26   H36   S    
Cu4   O12   S    
C49   C50   A    
C2    H23   S    
C2    C50   A    
C17   O22   A    
C19   O5    A    
C4    C40   S    
C10   H33   S    
C8    C9    A    
H11   N1    S    
C48   H9    S    
C44   H31   S    
C9    C10   A    
C21   O8    A    
Cu3   O18   S    
H10   N1    S    
C46   H29   S    
C23   C34   A    
Cu5   O24   S    
Cu4   O21   S    
C43   H19   S    
H26   N5    S    
C18   C25   S    
C18   O2    A    
C38   N4    S    
C44   H30   S    
C41   C47   A    
C44   C46   S    
H18   N4    S    
C45   C47   A    
Cu1   O1    S    
C5    C48   A    
Cu5   O8    S    
Cu1   Cu2   S    
C24   C25   A    
C28   O15   A    
C6    C11   A    
Cu3   O20   S    
Cu1   O10   S    
H15   N3    S    
H13   N2    S    
C25   C26   A    
C31   H37   S    
Cu5   O6    S    
C19   C23   S    
Cu6   O9    S    
C13   O12   A    
C14   C38   S    
C5    C28   S    
C12   H6    S    
C11   C16   S    
C31   C32   A    
C14   O19   A    
C39   H3    S    
C8    C21   S    
C22   H34   S    
C34   C45   A    
C13   O17   A    
C35   C44   S    
C21   O9    A    
C28   O16   A    
C18   O24   A    
C46   H28   S    
C17   O23   A    
C48   C49   A    
Cu4   O23   S    
C42   H22   S    
C22   C24   A    
C42   C43   S    
Cu6   O2    S    
C24   H35   S    
C15   C36   S    
C39   C40   D    
C16   O14   A    
C12   C41   A    
C20   O7    A    
C20   C32   S    
C43   H20   S    
Cu5   O3    S    
Cu1   O13   S    
Cu1   O15   S    
C1    C47   S    
Cu6   O5    S    
C3    C5    A    
C17   C50   S    
C6    C7    A    
C20   O6    A    
Cu2   O16   S    
C43   H21   S    
C30   N5    S    
C45   H8    S    
C15   O20   A    
C30   C36   A    
C32   C33   A    
H14   N2    S    
C37   C39   S    
C19   O3    A    
C27   C42   S    
Cu2   O11   S    
C14   O18   A    
C34   H7    S    
C33   C35   A    
C15   O21   A    
C2    C3    A    
C3    N1    S    
Cu6   O7    S    
C10   C11   A    
C46   H27   S    
H16   N3    S    
C6    N2    S    
Cu4   O19   S    
C1    O4    A    
C37   H1    S    
Cu3   O17   S    
C16   O13   A    
