data_mof_unit_28089.cif
_audit_creation_date              2012-10-26T18:43:31-0400
_audit_creation_method            fapswitch 2.2
_symmetry_space_group_name_H-M    P1
_symmetry_Int_Tables_number       1
_space_group_crystal_system       triclinic
_cell_length_a                    10.768758
_cell_length_b                    10.807367
_cell_length_c                    9.593979
_cell_angle_alpha                 90.548159
_cell_angle_beta                  88.6888
_cell_angle_gamma                 90.840374
_cell_volume                      1116.10566376

loop_
_atom_site_label
_atom_site_type_symbol
_atom_type_description
_atom_site_fract_x
_atom_site_fract_y
_atom_site_fract_z
_atom_type_partial_charge
C1    C     C_R   0.496398 0.262375 0.499385 0.539884
C2    C     C_R   0.454607 0.938029 0.625548 0.000912
C3    C     C_3   0.524570 0.934241 0.760240 0.152169
C4    C     C_R   0.260070 0.493583 0.501436 0.547436
C5    C     C_3   0.537699 0.073926 0.751339 -0.200650
C6    C     C_R   0.554625 0.594961 0.072927 0.167083
C7    C     C_R   0.444444 0.407384 0.074858 -0.029400
C8    C     C_R   0.447788 0.405771 0.926751 -0.031558
C9    C     C_R   0.548577 0.598407 0.925955 0.137718
C10   C     C_3   0.678458 0.644533 0.911175 -0.246333
C11   C     C_3   0.690252 0.631347 0.067202 0.009876
C12   C     C_3   0.878009 0.500404 0.499148 0.058665
C13   C     C_R   0.493405 0.737540 0.500772 0.545771
C14   C     C_R   0.740013 0.501208 0.499063 0.583450
C15   C     C_3   0.065132 0.460408 0.651739 0.032444
C16   C     C_3   0.925332 0.486382 0.650995 -0.204198
C17   C     C_3   0.078199 0.623730 0.462160 -0.250302
C18   C     C_3   0.070215 0.395942 0.396662 -0.247693
C19   C     C_3   0.122003 0.491907 0.503819 0.048303
C20   C     C_3   0.351330 0.829266 0.871564 0.029511
C21   C     C_3   0.235145 0.909216 0.875672 -0.269923
C22   C     C_3   0.117561 0.829030 0.886296 -0.498455
C23   C     C_3   0.937662 0.619097 0.431535 0.018282
C24   C     C_3   0.182135 0.297293 0.776876 -0.302594
C25   C     C_3   0.902131 0.549731 0.057620 -0.343102
C26   C     C_3   0.849301 0.780340 0.598224 -0.307017
C27   C     C_3   0.926511 0.387196 0.412903 -0.277649
C28   C     C_R   0.463231 0.065504 0.622830 -0.034850
C29   C     C_R   0.479435 0.129177 0.498053 -0.006297
C30   C     C_R   0.472510 0.062666 0.372030 -0.161110
C31   C     C_R   0.470247 0.933705 0.373491 -0.156934
C32   C     C_R   0.472978 0.870383 0.501122 -0.027541
Cu1   Cu    Cu3+1 0.499990 0.499980 0.640670 0.897182
Cu2   Cu    Cu3+1 0.500010 0.500020 0.359330 0.942507
H1    H     H_    0.106834 0.522563 0.731987 0.136187
H2    H     H_    0.400555 0.331205 0.130285 0.112245
H3    H     H_    0.411195 0.326172 0.873058 0.099714
H4    H     H_    0.735791 0.580520 0.848175 0.157647
H5    H     H_    0.685125 0.742186 0.879059 0.095174
H6    H     H_    0.711105 0.719472 0.123392 0.141477
H7    H     H_    0.873030 0.411228 0.706576 0.147937
H8    H     H_    0.908923 0.572044 0.711417 0.083574
H9    H     H_    0.098744 0.690670 0.547375 0.115037
H10   H     H_    0.096028 0.425652 0.289118 0.117887
H11   H     H_    0.111772 0.303367 0.409821 0.119534
H12   H     H_    0.884859 0.383041 0.308221 0.141447
H13   H     H_    0.898151 0.299621 0.465373 0.108331
H14   H     H_    0.346160 0.765918 0.962070 0.143874
H15   H     H_    0.352602 0.769378 0.777473 0.166443
H16   H     H_    0.237998 0.972937 0.967236 0.167912
H17   H     H_    0.232276 0.965827 0.779818 0.157800
H18   H     H_    0.115412 0.760865 0.799094 0.130500
H19   H     H_    0.034464 0.888339 0.881611 0.140727
H20   H     H_    0.114381 0.778550 0.986639 0.139568
H21   H     H_    0.044450 0.261348 0.629464 0.250718
H22   H     H_    0.158064 0.209857 0.831660 0.119875
H23   H     H_    0.129719 0.657013 0.367429 0.109314
H24   H     H_    0.199323 0.369912 0.856965 0.146607
H25   H     H_    0.265697 0.281033 0.710173 0.179851
H26   H     H_    0.740582 0.443197 0.078837 0.265278
H27   H     H_    0.961675 0.484475 0.112545 0.127830
H28   H     H_    0.933843 0.646014 0.080024 0.137993
H29   H     H_    0.915035 0.529871 0.945169 0.131380
H30   H     H_    0.907260 0.806082 0.392721 0.242721
H31   H     H_    0.812729 0.875793 0.594567 0.120522
H32   H     H_    0.934389 0.782871 0.660658 0.126637
H33   H     H_    0.776125 0.722225 0.647982 0.171161
H34   H     H_    0.931629 0.604950 0.317945 0.161247
H35   H     H_    0.477139 0.109293 0.272564 0.136068
H36   H     H_    0.474745 0.884485 0.274644 0.151695
H37   H     H_    0.615060 0.887686 0.748778 0.107103
H38   H     H_    0.488042 0.124469 0.836623 0.151796
H39   H     H_    0.634825 0.106225 0.730246 0.094017
N1    N     N_R   0.500800 0.500930 0.147930 -0.235465
N2    N     N_R   0.500800 0.500890 0.852020 -0.240659
N3    N     N_2   0.080773 0.331101 0.690642 -0.537986
N4    N     N_2   0.773293 0.531249 0.101272 -0.488066
N5    N     N_2   0.875265 0.736596 0.457902 -0.517366
O1    O     O_R   0.500000 0.319640 0.618810 -0.515699
O2    O     O_R   0.500010 0.319680 0.381230 -0.515489
O3    O     O_R   0.317690 0.499960 0.618790 -0.514118
O4    O     O_R   0.317700 0.500000 0.381210 -0.513183
O5    O     O_R   0.499990 0.680320 0.618770 -0.516992
O6    O     O_R   0.500000 0.680360 0.381190 -0.496460
O7    O     O_R   0.682300 0.500000 0.618790 -0.528941
O8    O     O_R   0.682310 0.500040 0.381210 -0.461424
O9    O     O_3   0.459069 0.904201 0.886649 -0.588566

loop_
_geom_bond_atom_site_label_1
_geom_bond_atom_site_label_2
_ccdc_geom_bond_type
C7    H2    S    
C13   C32   S    
C6    C9    A    
C7    C8    A    
C22   H20   S    
C15   C19   S    
C12   C23   S    
C20   H15   S    
C25   N4    S    
C26   H33   S    
C28   C29   A    
C5    H38   S    
Cu2   O8    S    
C30   C31   A    
C15   C16   S    
C20   O9    S    
C2    C32   A    
C18   C19   S    
C25   H29   S    
Cu1   O7    S    
C11   N4    S    
Cu2   O2    S    
C4    C19   S    
Cu1   N2    S    
C31   H36   S    
C4    O3    A    
C12   C16   S    
C7    N1    A    
C9    C10   S    
C26   N5    S    
C15   N3    S    
C21   C22   S    
Cu2   O6    S    
C15   H1    S    
C21   H16   S    
C6    N1    A    
C22   H19   S    
H26   N4    S    
C12   C27   S    
C3    O9    S    
C26   H32   S    
C14   O8    A    
C6    C11   S    
C24   N3    S    
C25   H27   S    
C8    N2    A    
C10   H5    S    
C23   H34   S    
C3    H37   S    
C17   H9    S    
C29   C30   A    
C18   H10   S    
C5    C28   S    
C31   C32   A    
C13   O6    A    
C1    C29   S    
Cu1   Cu2   S    
C17   C23   S    
Cu1   O5    S    
C20   H14   S    
Cu2   N1    S    
H21   N3    S    
C27   H12   S    
C12   C14   S    
C1    O1    A    
C8    H3    S    
C18   H11   S    
C16   H8    S    
C21   H17   S    
C30   H35   S    
C22   H18   S    
C27   H13   S    
C26   H31   S    
H30   N5    S    
Cu1   O1    S    
C18   C27   S    
C14   O7    A    
C3    C5    S    
C24   H22   S    
C9    N2    A    
C13   O5    A    
C10   H4    S    
C2    C3    S    
C24   H25   S    
C17   C19   S    
C25   H28   S    
C23   N5    S    
C5    H39   S    
C11   H6    S    
C10   C11   S    
C4    O4    A    
C20   C21   S    
C24   H24   S    
C1    O2    A    
C2    C28   A    
Cu2   O4    S    
Cu1   O3    S    
C16   H7    S    
C17   H23   S    
