data_mof_unit_12844.cif
_audit_creation_date              2012-12-10T18:23:52-0500
_audit_creation_method            fapswitch 2.2
_symmetry_space_group_name_H-M    P1
_symmetry_Int_Tables_number       1
_space_group_crystal_system       triclinic
_cell_length_a                    22.335782
_cell_length_b                    22.487647
_cell_length_c                    14.611941
_cell_angle_alpha                 90.008102
_cell_angle_beta                  90.734771
_cell_angle_gamma                 90.000718
_cell_volume                      7338.67018734

loop_
_atom_site_label
_atom_site_type_symbol
_atom_type_description
_atom_site_fract_x
_atom_site_fract_y
_atom_site_fract_z
_atom_type_partial_charge
C1    C     C_R   0.419631 0.919798 0.499614 0.826446
C2    C     C_R   0.580369 0.080202 0.500386 0.826445
C3    C     C_R   0.580368 0.919797 0.500383 0.826433
C4    C     C_R   0.419631 0.080203 0.499617 0.826430
C5    C     C_R   0.919633 0.419796 0.499608 0.826438
C6    C     C_R   0.080368 0.580204 0.500392 0.826438
C7    C     C_R   0.080370 0.419799 0.500377 0.826439
C8    C     C_R   0.919630 0.580200 0.499623 0.826439
C9    C     C_1   0.336910 0.162503 0.498567 -0.080821
C10   C     C_1   0.663088 0.837495 0.501431 -0.080831
C11   C     C_1   0.663098 0.162493 0.501338 -0.080931
C12   C     C_1   0.336902 0.837507 0.498661 -0.080931
C13   C     C_1   0.836893 0.662484 0.498704 -0.080935
C14   C     C_1   0.163102 0.337512 0.501297 -0.080930
C15   C     C_1   0.163088 0.662506 0.501472 -0.080818
C16   C     C_1   0.836915 0.337491 0.498531 -0.080824
C17   C     C_1   0.499759 0.999981 0.194163 0.105786
C18   C     C_1   0.500236 0.000016 0.805837 0.105785
C19   C     C_1   0.999763 0.500015 0.194163 0.105788
C20   C     C_1   0.000242 0.499985 0.805837 0.105786
C21   C     C_3   0.526186 0.050448 0.970423 0.146755
C22   C     C_3   0.473803 0.949545 0.029576 0.146760
C23   C     C_3   0.468955 0.047646 0.029527 0.149685
C24   C     C_3   0.531033 0.952347 0.970472 0.149693
C25   C     C_3   0.031118 0.547606 0.970502 0.149683
C26   C     C_3   0.968893 0.452395 0.029499 0.149696
C27   C     C_3   0.973891 0.550489 0.029606 0.146759
C28   C     C_3   0.026120 0.449513 0.970395 0.146768
C29   C     C_3   0.698849 0.726752 0.533260 0.066529
C30   C     C_3   0.301158 0.273258 0.466806 0.066435
C31   C     C_3   0.301142 0.726742 0.467030 0.066230
C32   C     C_3   0.698870 0.273248 0.533005 0.066361
C33   C     C_3   0.198859 0.226763 0.532977 0.066444
C34   C     C_3   0.801122 0.773219 0.466957 0.066579
C35   C     C_3   0.801150 0.226729 0.466784 0.066331
C36   C     C_3   0.198847 0.773274 0.533183 0.066252
C37   C     C_3   0.230870 0.204947 0.445733 0.143530
C38   C     C_3   0.769144 0.795068 0.554209 0.143512
C39   C     C_3   0.769156 0.204935 0.554047 0.143566
C40   C     C_3   0.230856 0.795049 0.445922 0.143591
C41   C     C_3   0.730828 0.704900 0.446009 0.143543
C42   C     C_3   0.269147 0.295074 0.554049 0.143572
C43   C     C_3   0.269132 0.704967 0.554291 0.143521
C44   C     C_3   0.730864 0.295041 0.445741 0.143519
C45   C     C_1   0.374715 0.124841 0.498812 -0.189448
C46   C     C_1   0.625284 0.875158 0.501187 -0.189450
C47   C     C_1   0.625289 0.124836 0.501170 -0.189640
C48   C     C_1   0.374711 0.875164 0.498829 -0.189639
C49   C     C_1   0.874706 0.624830 0.498860 -0.189647
C50   C     C_1   0.125292 0.375167 0.501140 -0.189644
C51   C     C_1   0.125283 0.624843 0.501218 -0.189444
C52   C     C_1   0.874719 0.375155 0.498783 -0.189445
C53   C     C_3   0.259156 0.230241 0.586293 0.064181
C54   C     C_3   0.740806 0.769721 0.413697 0.064095
C55   C     C_3   0.740838 0.230197 0.413498 0.065050
C56   C     C_3   0.259149 0.769817 0.586498 0.065152
C57   C     C_3   0.759169 0.730245 0.586522 0.064865
C58   C     C_3   0.240859 0.269782 0.413487 0.064980
C59   C     C_3   0.240842 0.730202 0.413718 0.064362
C60   C     C_3   0.759179 0.269776 0.586289 0.064288
C61   C     C_3   0.291078 0.208508 0.499029 -0.022041
C62   C     C_3   0.708918 0.791489 0.500969 -0.022039
C63   C     C_3   0.708936 0.208490 0.500787 -0.022009
C64   C     C_3   0.291067 0.791507 0.499211 -0.022012
C65   C     C_3   0.791056 0.708481 0.499245 -0.022023
C66   C     C_3   0.208938 0.291513 0.500756 -0.022023
C67   C     C_3   0.208923 0.708509 0.500999 -0.022030
C68   C     C_3   0.791082 0.291486 0.499005 -0.022027
C69   C     C_3   0.556876 0.002771 0.031970 0.072167
C70   C     C_3   0.443113 0.997222 0.968028 0.072198
C71   C     C_3   0.056882 0.497141 0.031973 0.072186
C72   C     C_3   0.943129 0.502861 0.968029 0.072155
C73   C     C_3   0.499652 0.999968 0.091260 -0.148328
C74   C     C_3   0.500337 0.000025 0.908739 -0.148334
C75   C     C_3   0.999661 0.500025 0.091261 -0.148325
C76   C     C_3   0.000349 0.499977 0.908740 -0.148321
Cu1   Cu    Cu3+1 0.500000 0.000000 0.590220 0.957171
Cu2   Cu    Cu3+1 0.500000 0.000000 0.409780 0.957173
Cu3   Cu    Cu3+1 1.000000 0.500000 0.590220 0.957172
Cu4   Cu    Cu3+1 1.000000 0.500000 0.409780 0.957170
N1    N     N_1   0.499980 1.000000 0.274190 -0.154977
N2    N     N_1   0.500020 0.000000 0.725810 -0.154977
N3    N     N_1   0.999980 0.500000 0.274190 -0.154977
N4    N     N_1   0.000020 0.500000 0.725810 -0.154977
O1    O     O_R   0.439540 0.939530 0.576170 -0.572335
O2    O     O_R   0.560460 0.060470 0.423830 -0.572334
O3    O     O_R   0.560460 0.939530 0.423830 -0.572263
O4    O     O_R   0.439540 0.060470 0.576170 -0.572263
O5    O     O_R   0.939540 0.439530 0.576170 -0.572259
O6    O     O_R   0.060460 0.560470 0.423830 -0.572260
O7    O     O_R   0.060460 0.439530 0.423830 -0.572339
O8    O     O_R   0.939540 0.560470 0.576170 -0.572339
O9    O     O_R   0.439530 0.939530 0.423800 -0.574227
O10   O     O_R   0.560470 0.060470 0.576200 -0.574227
O11   O     O_R   0.560470 0.939530 0.576200 -0.574191
O12   O     O_R   0.439530 0.060470 0.423800 -0.574190
O13   O     O_R   0.939530 0.439530 0.423800 -0.574191
O14   O     O_R   0.060470 0.560470 0.576200 -0.574190
O15   O     O_R   0.060470 0.439530 0.576200 -0.574227
O16   O     O_R   0.939530 0.560470 0.423800 -0.574227
C77   C     C_3   0.381419 0.994903 0.920499 -0.368559
C78   C     C_3   0.329443 0.989155 0.987432 -0.356061
C79   C     C_3   0.269343 0.996165 0.937797 -0.862858
H1    H     H_    0.265762 0.041116 0.906707 0.249703
H2    H     H_    0.264424 0.962017 0.883285 0.251323
H3    H     H_    0.232419 0.990565 0.987223 0.244389
H4    H     H_    0.330427 0.944810 0.020433 0.226836
H5    H     H_    0.332791 0.023464 0.041658 0.224389
H6    H     H_    0.375948 0.035787 0.878642 0.200724
H7    H     H_    0.380377 0.956768 0.872236 0.189908
C80   C     C_3   0.618570 0.005089 0.079499 -0.368533
C81   C     C_3   0.670547 0.010825 0.012566 -0.355963
C82   C     C_3   0.730646 0.003826 0.062207 -0.862926
H8    H     H_    0.735563 0.037988 0.116698 0.251355
H9    H     H_    0.734226 0.958883 0.093325 0.249739
H10   H     H_    0.767571 0.009413 0.012779 0.244361
H11   H     H_    0.667201 0.976505 0.958357 0.224370
H12   H     H_    0.669561 0.055163 0.979541 0.226827
H13   H     H_    0.619614 0.043228 0.127753 0.189926
H14   H     H_    0.624037 0.964209 0.121365 0.200723
C83   C     C_3   0.881440 0.505272 0.920498 -0.368541
C84   C     C_3   0.829471 0.511092 0.987432 -0.355911
C85   C     C_3   0.769362 0.504176 0.937787 -0.862860
H15   H     H_    0.764506 0.538328 0.883285 0.251423
H16   H     H_    0.765707 0.459228 0.906680 0.249625
H17   H     H_    0.732445 0.509840 0.987209 0.244345
H18   H     H_    0.832764 0.476773 0.041634 0.224335
H19   H     H_    0.830523 0.555432 0.020463 0.226847
H20   H     H_    0.880457 0.543412 0.872259 0.189946
H21   H     H_    0.875909 0.464399 0.878616 0.200695
C86   C     C_3   0.118572 0.494733 0.079501 -0.368563
C87   C     C_3   0.170538 0.488905 0.012565 -0.355998
C88   C     C_3   0.230648 0.495868 0.062190 -0.862800
H22   H     H_    0.234291 0.540833 0.093235 0.249593
H23   H     H_    0.235521 0.461748 0.116737 0.251385
H24   H     H_    0.267564 0.490188 0.012769 0.244373
H25   H     H_    0.169501 0.444549 0.979581 0.226848
H26   H     H_    0.167227 0.523198 0.958325 0.224356
H27   H     H_    0.124104 0.535610 0.121373 0.200704
H28   H     H_    0.119556 0.456599 0.127750 0.189919
C89   C     C_3   0.216682 0.149898 0.387121 -0.384986
C90   C     C_3   0.155547 0.152865 0.339482 -0.856807
H29   H     H_    0.119065 0.155078 0.389922 0.253863
H30   H     H_    0.152497 0.191774 0.293281 0.253476
H31   H     H_    0.148864 0.112125 0.297667 0.241367
H32   H     H_    0.251913 0.144634 0.334898 0.195155
H33   H     H_    0.218674 0.109700 0.431071 0.192620
C91   C     C_3   0.783348 0.850122 0.612801 -0.384962
C92   C     C_3   0.844588 0.847249 0.660134 -0.856789
H34   H     H_    0.847979 0.808083 0.705765 0.253403
H35   H     H_    0.880977 0.845574 0.609488 0.253921
H36   H     H_    0.851106 0.887784 0.702477 0.241373
H37   H     H_    0.781188 0.890342 0.568914 0.192649
H38   H     H_    0.748214 0.855286 0.665197 0.195116
C93   C     C_3   0.783354 0.149882 0.612622 -0.384976
C94   C     C_3   0.844420 0.152926 0.660458 -0.857238
H39   H     H_    0.880951 0.155623 0.610158 0.253965
H40   H     H_    0.847189 0.191591 0.707191 0.253434
H41   H     H_    0.851275 0.112000 0.701759 0.241232
H42   H     H_    0.748067 0.144527 0.664732 0.194691
H43   H     H_    0.781482 0.109707 0.568597 0.192641
C95   C     C_3   0.216658 0.850096 0.387332 -0.384981
C96   C     C_3   0.155660 0.846977 0.339301 -0.857296
H44   H     H_    0.153128 0.808496 0.292182 0.253490
H45   H     H_    0.119076 0.843901 0.389460 0.253926
H46   H     H_    0.148675 0.888038 0.298368 0.241225
H47   H     H_    0.218415 0.890257 0.431394 0.192617
H48   H     H_    0.252004 0.855520 0.335332 0.194719
C97   C     C_3   0.716629 0.649833 0.387442 -0.384937
C98   C     C_3   0.655414 0.652709 0.340038 -0.857225
H49   H     H_    0.619005 0.654508 0.390639 0.254054
H50   H     H_    0.652100 0.691805 0.294253 0.253332
H51   H     H_    0.648865 0.612116 0.297836 0.241208
H52   H     H_    0.751785 0.644632 0.335088 0.194628
H53   H     H_    0.718753 0.609628 0.431365 0.192671
C99   C     C_3   0.283328 0.350129 0.612656 -0.384960
C100  C     C_3   0.344456 0.347169 0.660316 -0.857274
H54   H     H_    0.347495 0.308271 0.706538 0.253391
H55   H     H_    0.380944 0.344950 0.609886 0.254004
H56   H     H_    0.351132 0.387917 0.702116 0.241203
H57   H     H_    0.281341 0.390324 0.568699 0.192648
H58   H     H_    0.248091 0.355398 0.664867 0.194668
C101  C     C_3   0.283334 0.649921 0.612878 -0.384996
C102  C     C_3   0.344331 0.653047 0.660912 -0.856791
H59   H     H_    0.380915 0.656150 0.610758 0.253786
H60   H     H_    0.346853 0.691518 0.708053 0.253591
H61   H     H_    0.351330 0.611978 0.701820 0.241381
H62   H     H_    0.247986 0.644492 0.664875 0.195198
H63   H     H_    0.281582 0.609761 0.568812 0.192582
C103  C     C_3   0.716662 0.350085 0.387151 -0.384999
C104  C     C_3   0.655577 0.347045 0.339369 -0.856771
H64   H     H_    0.652749 0.308324 0.292753 0.253522
H65   H     H_    0.619061 0.344445 0.389705 0.253829
H66   H     H_    0.648749 0.387928 0.297957 0.241391
H67   H     H_    0.718562 0.390270 0.431153 0.192617
H68   H     H_    0.751934 0.355415 0.335010 0.195170
C105  C     C_3   0.637124 0.708422 0.568887 -0.376840
C106  C     C_3   0.634211 0.643197 0.599004 -0.360891
C107  C     C_3   0.571324 0.626986 0.630091 -0.859175
H69   H     H_    0.558216 0.655146 0.689010 0.254319
H70   H     H_    0.538497 0.633248 0.573133 0.249781
H71   H     H_    0.570342 0.579652 0.651669 0.243086
H72   H     H_    0.646328 0.613441 0.541775 0.226603
H73   H     H_    0.665896 0.635067 0.656588 0.221437
H74   H     H_    0.625557 0.737636 0.627312 0.188124
H75   H     H_    0.603219 0.716736 0.514149 0.199123
C108  C     C_3   0.362887 0.291593 0.431197 -0.376930
C109  C     C_3   0.365863 0.356875 0.401388 -0.360932
C110  C     C_3   0.428632 0.372943 0.369599 -0.859177
H76   H     H_    0.461744 0.366397 0.426093 0.249804
H77   H     H_    0.441305 0.344905 0.310315 0.254244
H78   H     H_    0.429676 0.420334 0.348324 0.243088
H79   H     H_    0.333893 0.365259 0.344262 0.221338
H80   H     H_    0.354175 0.386533 0.458952 0.226674
H81   H     H_    0.396819 0.283147 0.485847 0.198899
H82   H     H_    0.374380 0.262470 0.372629 0.188327
C111  C     C_3   0.362843 0.708407 0.431308 -0.377256
C112  C     C_3   0.365917 0.643016 0.402064 -0.360880
C113  C     C_3   0.428409 0.627211 0.368770 -0.858941
H83   H     H_    0.440178 0.654997 0.308771 0.254268
H84   H     H_    0.462117 0.634315 0.424277 0.249795
H85   H     H_    0.429554 0.579710 0.348081 0.243088
H86   H     H_    0.355120 0.613556 0.460273 0.226835
H87   H     H_    0.333350 0.634140 0.345907 0.221418
H88   H     H_    0.374134 0.737352 0.372450 0.188746
H89   H     H_    0.396882 0.717113 0.485711 0.198480
C114  C     C_3   0.637170 0.291597 0.568715 -0.377190
C115  C     C_3   0.634166 0.356942 0.598222 -0.360866
C116  C     C_3   0.571554 0.372889 0.630837 -0.858950
H90   H     H_    0.538111 0.366047 0.574879 0.249768
H91   H     H_    0.559365 0.344995 0.690514 0.254334
H92   H     H_    0.570474 0.420343 0.651793 0.243095
H93   H     H_    0.666469 0.365587 0.654819 0.221481
H94   H     H_    0.645380 0.386488 0.540309 0.226766
H95   H     H_    0.603165 0.283013 0.514216 0.198718
H96   H     H_    0.625797 0.262577 0.627447 0.188566
C117  C     C_3   0.137137 0.208421 0.568604 -0.377104
C118  C     C_3   0.134158 0.143125 0.598346 -0.360847
C119  C     C_3   0.071418 0.127076 0.630287 -0.858931
H97   H     H_    0.058836 0.155083 0.689653 0.254399
H98   H     H_    0.038243 0.133683 0.573894 0.249743
H99   H     H_    0.070369 0.079672 0.651488 0.243098
H100  H     H_    0.145761 0.113489 0.540714 0.226661
H101  H     H_    0.166191 0.134691 0.655372 0.221588
H102  H     H_    0.125667 0.237521 0.627210 0.188403
H103  H     H_    0.103190 0.216893 0.513985 0.198914
C120  C     C_3   0.862836 0.791570 0.431314 -0.377013
C121  C     C_3   0.865732 0.856809 0.401256 -0.360806
C122  C     C_3   0.928599 0.873031 0.370089 -0.858953
H104  H     H_    0.961462 0.866747 0.426992 0.249706
H105  H     H_    0.941668 0.844894 0.311124 0.254480
H106  H     H_    0.929567 0.920373 0.348551 0.243099
H107  H     H_    0.834007 0.864971 0.343737 0.221653
H108  H     H_    0.853655 0.886543 0.458532 0.226585
H109  H     H_    0.896755 0.783241 0.486028 0.199190
H110  H     H_    0.874389 0.762379 0.372853 0.188188
C123  C     C_3   0.862858 0.208396 0.431087 -0.377026
C124  C     C_3   0.865873 0.143062 0.401533 -0.360951
C125  C     C_3   0.928504 0.127120 0.368990 -0.859178
H111  H     H_    0.940729 0.155033 0.309352 0.254171
H112  H     H_    0.961915 0.133940 0.424997 0.249846
H113  H     H_    0.929590 0.079673 0.347997 0.243084
H114  H     H_    0.854623 0.113498 0.459409 0.226789
H115  H     H_    0.833604 0.134443 0.344880 0.221253
H116  H     H_    0.874243 0.237434 0.372382 0.188506
H117  H     H_    0.896853 0.216967 0.485604 0.198659
C126  C     C_3   0.137143 0.791609 0.568894 -0.377095
C127  C     C_3   0.134079 0.856991 0.598187 -0.360970
C128  C     C_3   0.071567 0.872814 0.631376 -0.859197
H118  H     H_    0.037902 0.865762 0.575792 0.249863
H119  H     H_    0.059729 0.845001 0.691312 0.254106
H120  H     H_    0.070434 0.920304 0.652128 0.243082
H121  H     H_    0.166604 0.865827 0.654416 0.221157
H122  H     H_    0.144941 0.886467 0.540026 0.226851
H123  H     H_    0.103114 0.782925 0.514470 0.198468
H124  H     H_    0.125836 0.762649 0.627726 0.188681
C129  C     C_3   0.724293 0.797778 0.320849 -0.375190
C130  C     C_3   0.759127 0.771410 0.240722 -0.358236
C131  C     C_3   0.741118 0.801311 0.150723 -0.866811
H125  H     H_    0.692568 0.794782 0.136582 0.256706
H126  H     H_    0.751011 0.849684 0.153735 0.250616
H127  H     H_    0.766763 0.781426 0.093744 0.244809
H128  H     H_    0.807893 0.777588 0.251704 0.221471
H129  H     H_    0.750029 0.723169 0.234436 0.227277
H130  H     H_    0.675523 0.791828 0.308376 0.200315
H131  H     H_    0.732602 0.846389 0.324949 0.188938
C132  C     C_3   0.275664 0.202167 0.679132 -0.375088
C133  C     C_3   0.240688 0.228382 0.759231 -0.358254
C134  C     C_3   0.259006 0.198752 0.849305 -0.866731
H132  H     H_    0.249525 0.150295 0.846464 0.250671
H133  H     H_    0.307507 0.205707 0.863357 0.256630
H134  H     H_    0.233228 0.218497 0.906257 0.244796
H135  H     H_    0.249385 0.276705 0.765323 0.227203
H136  H     H_    0.191967 0.221784 0.748365 0.221567
H137  H     H_    0.267491 0.153536 0.674967 0.188771
H138  H     H_    0.324410 0.208243 0.691688 0.200529
C135  C     C_3   0.275705 0.797886 0.679342 -0.375920
C136  C     C_3   0.240535 0.771888 0.759402 -0.360122
C137  C     C_3   0.259438 0.800965 0.849650 -0.861742
H139  H     H_    0.307867 0.793337 0.863430 0.254443
H140  H     H_    0.250599 0.849547 0.847284 0.252944
H141  H     H_    0.233507 0.781366 0.906550 0.244231
H142  H     H_    0.191897 0.779220 0.748823 0.221668
H143  H     H_    0.248526 0.723425 0.765038 0.227899
H144  H     H_    0.324416 0.791594 0.691958 0.200958
H145  H     H_    0.267761 0.846552 0.675153 0.187934
C138  C     C_3   0.724293 0.202117 0.320658 -0.376025
C139  C     C_3   0.759322 0.228254 0.240560 -0.360132
C140  C     C_3   0.740801 0.198808 0.150420 -0.861684
H146  H     H_    0.750149 0.150325 0.153042 0.252812
H147  H     H_    0.692305 0.205909 0.136510 0.254516
H148  H     H_    0.766575 0.218560 0.093477 0.244230
H149  H     H_    0.750866 0.276626 0.234636 0.227963
H150  H     H_    0.808017 0.221409 0.251316 0.221612
H151  H     H_    0.732382 0.153474 0.324817 0.188126
H152  H     H_    0.675557 0.208270 0.308106 0.200693
C141  C     C_3   0.224367 0.297859 0.320636 -0.376130
C142  C     C_3   0.259304 0.271584 0.240537 -0.360148
C143  C     C_3   0.241153 0.301332 0.150476 -0.861587
H153  H     H_    0.192607 0.294692 0.136415 0.254556
H154  H     H_    0.250949 0.349723 0.153329 0.252688
H155  H     H_    0.266808 0.281434 0.093517 0.244238
H156  H     H_    0.308042 0.278004 0.251485 0.221542
H157  H     H_    0.250443 0.223295 0.234353 0.228025
H158  H     H_    0.175614 0.291831 0.308091 0.200477
H159  H     H_    0.232591 0.346482 0.324780 0.188292
C144  C     C_3   0.775661 0.702174 0.679376 -0.376237
C145  C     C_3   0.740891 0.728617 0.759515 -0.360130
C146  C     C_3   0.758637 0.698504 0.849467 -0.861561
H160  H     H_    0.748293 0.650231 0.846372 0.252547
H161  H     H_    0.807245 0.704576 0.863641 0.254640
H162  H     H_    0.733164 0.718579 0.906472 0.244235
H163  H     H_    0.750253 0.776799 0.765978 0.228093
H164  H     H_    0.692101 0.722722 0.748403 0.221473
H165  H     H_    0.767276 0.653577 0.675290 0.188496
H166  H     H_    0.824442 0.708049 0.691831 0.200192
C147  C     C_3   0.775740 0.297846 0.679123 -0.374984
C148  C     C_3   0.740659 0.271771 0.759210 -0.358290
C149  C     C_3   0.759374 0.301059 0.849379 -0.866686
H167  H     H_    0.807815 0.293596 0.863274 0.256582
H168  H     H_    0.750386 0.349615 0.846798 0.250757
H169  H     H_    0.733460 0.281471 0.906304 0.244770
H170  H     H_    0.691986 0.278832 0.748550 0.221626
H171  H     H_    0.748912 0.223359 0.765007 0.227136
H172  H     H_    0.824466 0.291634 0.691691 0.200777
H173  H     H_    0.767711 0.346499 0.674949 0.188588
C150  C     C_3   0.224278 0.702129 0.320886 -0.374887
C151  C     C_3   0.259468 0.728088 0.240823 -0.358285
C152  C     C_3   0.240476 0.699063 0.150581 -0.866633
H174  H     H_    0.249114 0.650442 0.152975 0.250806
H175  H     H_    0.192080 0.706887 0.136795 0.256515
H176  H     H_    0.266487 0.718549 0.093679 0.244755
H177  H     H_    0.251563 0.776567 0.235224 0.227071
H178  H     H_    0.308096 0.720662 0.251360 0.221703
H179  H     H_    0.232194 0.653459 0.325096 0.188442
H180  H     H_    0.175570 0.708446 0.308263 0.200964
C153  C     C_3   0.435486 0.099707 0.073773 -0.370033
C154  C     C_3   0.404863 0.140812 0.004461 -0.865568
H181  H     H_    0.436577 0.156014 0.951778 0.255858
H182  H     H_    0.366409 0.118295 0.970764 0.255995
H183  H     H_    0.387403 0.180526 0.040544 0.240646
H184  H     H_    0.401395 0.081957 0.121119 0.188535
H185  H     H_    0.467660 0.125785 0.116058 0.201651
C155  C     C_3   0.564500 0.900286 0.926224 -0.369985
C156  C     C_3   0.595121 0.859179 0.995535 -0.865684
H186  H     H_    0.633571 0.881698 0.029241 0.255956
H187  H     H_    0.563405 0.843972 0.048211 0.255870
H188  H     H_    0.612587 0.819468 0.959450 0.240669
H189  H     H_    0.532325 0.874208 0.883939 0.201658
H190  H     H_    0.598592 0.918035 0.878878 0.188526
C157  C     C_3   0.555251 0.105052 0.926150 -0.373860
C158  C     C_3   0.576135 0.151747 0.995347 -0.864430
H191  H     H_    0.537382 0.173780 0.027488 0.257534
H192  H     H_    0.605079 0.131895 0.049270 0.251682
H193  H     H_    0.602356 0.186411 0.959506 0.240294
H194  H     H_    0.593976 0.090145 0.885251 0.188992
H195  H     H_    0.522869 0.125746 0.877533 0.198752
C159  C     C_3   0.444737 0.894940 0.073846 -0.373879
C160  C     C_3   0.423856 0.848244 0.004648 -0.864411
H196  H     H_    0.394921 0.868096 0.950712 0.251766
H197  H     H_    0.462611 0.826205 0.972523 0.257520
H198  H     H_    0.397626 0.813586 0.040485 0.240286
H199  H     H_    0.477118 0.874248 0.122466 0.198752
H200  H     H_    0.406010 0.909848 0.114742 0.188997
C161  C     C_3   0.944909 0.605133 0.073912 -0.373846
C162  C     C_3   0.924107 0.651866 0.004744 -0.864419
H201  H     H_    0.962899 0.673858 0.972655 0.257557
H202  H     H_    0.895157 0.632058 0.950779 0.251498
H203  H     H_    0.897917 0.686554 0.040596 0.240304
H204  H     H_    0.906156 0.590280 0.114792 0.188979
H205  H     H_    0.977319 0.625771 0.122552 0.198753
C163  C     C_3   0.055107 0.394869 0.926096 -0.373863
C164  C     C_3   0.075904 0.348136 0.995269 -0.864412
H206  H     H_    0.104845 0.367945 0.049244 0.251583
H207  H     H_    0.037109 0.326141 0.027344 0.257546
H208  H     H_    0.102101 0.313451 0.959423 0.240290
H209  H     H_    0.022701 0.374230 0.877449 0.198754
H210  H     H_    0.093863 0.409723 0.885224 0.188989
C165  C     C_3   0.064667 0.599623 0.926295 -0.370125
C166  C     C_3   0.095355 0.640674 0.995637 -0.865359
H211  H     H_    0.063671 0.655903 0.048350 0.255829
H212  H     H_    0.133788 0.618103 0.029295 0.256097
H213  H     H_    0.112859 0.680376 0.959587 0.240617
H214  H     H_    0.098729 0.581828 0.878932 0.188539
H215  H     H_    0.032531 0.625754 0.884032 0.201650
C167  C     C_3   0.935343 0.400379 0.073705 -0.370086
C168  C     C_3   0.904661 0.359326 0.004361 -0.865475
H216  H     H_    0.866235 0.381898 0.970687 0.256059
H217  H     H_    0.936350 0.344090 0.951660 0.255843
H218  H     H_    0.887148 0.319628 0.040411 0.240636
H219  H     H_    0.967478 0.374249 0.115972 0.201658
H220  H     H_    0.901278 0.418174 0.121062 0.188534

loop_
_geom_bond_atom_site_label_1
_geom_bond_atom_site_label_2
_ccdc_geom_bond_type
C141  H159  S    
C153  C154  S    
C35   C123  S    
C147  C148  S    
C99   H58   S    
C126  H123  S    
C7    O15   A    
C142  H156  S    
Cu3   O15   S    
C24   C69   S    
C96   H45   S    
C161  C162  S    
C158  H191  S    
C154  H183  S    
C168  H218  S    
C31   C59   S    
C86   H28   S    
C44   C103  S    
C28   C163  S    
C105  H74   S    
Cu1   O4    S    
Cu2   O12   S    
C70   C74   S    
C97   H52   S    
C8    O8    A    
C133  H136  S    
C111  H89   S    
C107  H69   S    
C167  H220  S    
C1    O1    A    
C105  H75   S    
Cu4   N3    S    
C27   C75   S    
C101  H63   S    
C115  C116  S    
C104  H64   S    
C60   C147  S    
C123  H116  S    
C57   C65   S    
C85   H17   S    
C77   H7    S    
C41   C97   S    
C162  H202  S    
C101  C102  S    
C40   C95   S    
C116  H90   S    
C38   C57   S    
C114  C115  S    
C32   C114  S    
C21   C157  S    
C117  H102  S    
C38   C91   S    
C34   C54   S    
C128  H119  S    
C106  H73   S    
C90   H30   S    
C162  H203  S    
C91   H37   S    
C124  H115  S    
C125  H112  S    
C1    C48   S    
C2    C47   S    
C164  H206  S    
C3    C46   S    
C158  H193  S    
C25   C76   S    
C94   H40   S    
C104  H66   S    
C42   C99   S    
C101  H62   S    
C44   C55   S    
C14   C50   T    
Cu1   N2    S    
C30   C108  S    
C43   C101  S    
C108  H82   S    
C18   N2    T    
C132  H137  S    
C131  H126  S    
C139  H149  S    
C89   H33   S    
C1    O9    A    
C157  H194  S    
C30   C61   S    
C127  H122  S    
C93   C94   S    
C88   H23   S    
C3    O11   A    
C159  C160  S    
C156  H186  S    
C77   H6    S    
C5    O5    A    
C82   H9    S    
Cu2   O3    S    
C143  H154  S    
C109  H79   S    
Cu4   O13   S    
C80   C81   S    
C83   H21   S    
C134  H134  S    
C70   C77   S    
C151  H178  S    
C112  H86   S    
C25   C165  S    
C122  H104  S    
C31   C43   S    
C3    O3    A    
C9    C61   S    
C116  H92   S    
C11   C63   S    
C92   H35   S    
C42   C53   S    
Cu3   N4    S    
C27   C161  S    
C148  H171  S    
C53   C132  S    
C98   H49   S    
C39   C60   S    
C165  C166  S    
Cu1   O10   S    
C155  C156  S    
C80   H13   S    
C123  C124  S    
C84   H18   S    
C151  C152  S    
C59   C67   S    
C53   C61   S    
C100  H55   S    
C55   C63   S    
C107  H71   S    
C56   C64   S    
C25   C71   S    
C150  H180  S    
C120  H110  S    
Cu1   O1    S    
C4    O12   A    
C129  C130  S    
C17   C73   S    
C146  H161  S    
C23   C70   S    
C19   N3    T    
C135  H144  S    
C33   C66   S    
C134  H132  S    
C4    C45   S    
C140  H147  S    
C14   C66   S    
C164  H208  S    
C78   C79   S    
C2    O10   A    
C119  H98   S    
C156  H188  S    
C121  H107  S    
C160  H198  S    
C111  C112  S    
C6    O6    A    
C129  H130  S    
C118  H100  S    
C21   C69   S    
C155  H189  S    
C103  C104  S    
C163  H209  S    
C15   C67   S    
C110  H76   S    
C78   H4    S    
C79   H2    S    
C154  H182  S    
C115  H93   S    
C103  H67   S    
C95   H48   S    
C147  H173  S    
C5    O13   A    
C152  H176  S    
C15   C51   T    
C130  H128  S    
C20   N4    T    
C165  H214  S    
C138  H151  S    
C106  H72   S    
C141  H158  S    
C122  H106  S    
C29   C41   S    
C167  C168  S    
C7    C50   S    
C145  C146  S    
C126  C127  S    
C4    O4    A    
C56   C135  S    
C95   C96   S    
C102  H61   S    
C142  H157  S    
C58   C141  S    
C124  C125  S    
C8    O16   A    
C113  H85   S    
C55   C138  S    
C158  H192  S    
C136  H142  S    
C168  H217  S    
C105  C106  S    
C137  H141  S    
Cu3   O5    S    
C86   H27   S    
C71   C86   S    
C165  H215  S    
C149  H169  S    
C43   C67   S    
C34   C120  S    
C130  C131  S    
C38   C62   S    
C161  H204  S    
C22   C70   S    
C111  H88   S    
C153  H185  S    
C9    C45   T    
C77   C78   S    
C157  H195  S    
C72   C83   S    
C26   C72   S    
C11   C47   T    
C119  H97   S    
C12   C48   T    
C144  H165  S    
C160  H196  S    
C59   C150  S    
Cu1   Cu2   S    
C93   H43   S    
C114  H96   S    
C152  H174  S    
C37   C89   S    
C6    O14   A    
C81   H11   S    
C85   H16   S    
C87   H26   S    
C157  C158  S    
C110  H78   S    
C135  C136  S    
C159  H199  S    
C144  H166  S    
C145  H164  S    
C161  H205  S    
C96   H44   S    
C109  C110  S    
C131  H125  S    
C69   C73   S    
C128  H118  S    
C90   H31   S    
C10   C62   S    
C91   H38   S    
C166  H213  S    
C99   H57   S    
C126  H124  S    
C108  C109  S    
C97   C98   S    
C85   H15   S    
C96   H46   S    
C150  C151  S    
C166  H211  S    
C54   C62   S    
C57   C144  S    
C138  C139  S    
C35   C39   S    
C137  H139  S    
C104  H65   S    
C36   C56   S    
C132  C133  S    
C7    O7    A    
C108  H81   S    
C97   H53   S    
C133  H135  S    
C83   C84   S    
C139  H150  S    
C89   H32   S    
C29   C57   S    
C54   C129  S    
C167  H219  S    
C21   C23   S    
C88   H22   S    
C36   C126  S    
C22   C24   S    
C32   C60   S    
C86   C87   S    
C28   C76   S    
C113  H83   S    
C39   C63   S    
C121  C122  S    
C82   H8    S    
C118  C119  S    
C109  H80   S    
C123  H117  S    
C16   C52   T    
C83   H20   S    
C163  C164  S    
C112  H87   S    
Cu4   O7    S    
C162  H201  S    
C87   H25   S    
C144  C145  S    
C116  H91   S    
C92   H34   S    
Cu2   N1    S    
C98   H50   S    
C12   C64   S    
C102  H60   S    
C117  H103  S    
C22   C159  S    
C17   N1    T    
C84   H19   S    
C33   C37   S    
C33   C117  S    
C143  H153  S    
C127  C128  S    
C60   C68   S    
C26   C75   S    
C100  H54   S    
C128  H120  S    
C79   H1    S    
C107  H70   S    
C90   H29   S    
C30   C42   S    
C150  H179  S    
C8    C49   S    
C27   C72   S    
C148  H170  S    
C31   C111  S    
C98   H51   S    
C120  H109  S    
C71   C75   S    
C146  H160  S    
Cu3   O14   S    
C124  H114  S    
C72   C76   S    
C125  H113  S    
C36   C67   S    
C13   C65   S    
C140  H146  S    
C102  H59   S    
C164  H207  S    
C145  H163  S    
C141  C142  S    
C94   H39   S    
C156  H187  S    
C121  H108  S    
C160  H197  S    
Cu2   O9    S    
C118  H101  S    
C132  H138  S    
C20   C76   S    
C131  H127  S    
C155  H190  S    
C163  H210  S    
C134  H133  S    
C58   C66   S    
C149  H167  S    
C87   C88   S    
C127  H121  S    
C10   C46   T    
C88   H24   S    
C168  H216  S    
C5    C52   S    
C78   H5    S    
C106  C107  S    
C16   C68   S    
C6    C51   S    
C119  H99   S    
C115  H94   S    
C37   C58   S    
C103  H68   S    
C82   H10   S    
C147  H172  S    
Cu2   O2    S    
C143  H155  S    
C18   C74   S    
C40   C59   S    
C130  H129  S    
Cu4   O16   S    
Cu4   O6    S    
C23   C153  S    
C23   C73   S    
C34   C65   S    
C81   C82   S    
C151  H177  S    
C33   C53   S    
C122  H105  S    
C35   C55   S    
C36   C40   S    
C91   C92   S    
C166  H212  S    
C92   H36   S    
C41   C65   S    
C21   C74   S    
Cu1   O11   S    
Cu3   Cu4   S    
C80   H14   S    
C142  C143  S    
C113  H84   S    
C100  H56   S    
C32   C44   S    
C136  H143  S    
C137  H140  S    
Cu3   O8    S    
C13   C49   T    
C99   C100  S    
C149  H168  S    
C29   C105  S    
C39   C93   S    
C146  H162  S    
C44   C68   S    
C125  H111  S    
C135  H145  S    
C139  C140  S    
C140  H148  S    
C153  H184  S    
C29   C62   S    
C93   H42   S    
C34   C38   S    
C31   C64   S    
C94   H41   S    
C32   C63   S    
C37   C61   S    
C120  C121  S    
C24   C155  S    
C25   C27   S    
C114  H95   S    
C129  H131  S    
C26   C28   S    
C40   C64   S    
C133  C134  S    
C19   C75   S    
C89   C90   S    
C81   H12   S    
C69   C80   S    
C24   C74   S    
C112  C113  S    
C35   C68   S    
C30   C58   S    
C110  H77   S    
C2    O2    A    
C79   H3    S    
C159  H200  S    
C154  H181  S    
C41   C54   S    
C95   H47   S    
C28   C71   S    
C43   C56   S    
C26   C167  S    
C152  H175  S    
C148  C149  S    
C136  C137  S    
C42   C66   S    
C138  H152  S    
C22   C73   S    
C84   C85   S    
C117  C118  S    
