data_mof_unit_11872.cif
_audit_creation_date              2012-12-11T17:12:45-0500
_audit_creation_method            fapswitch 2.2
_symmetry_space_group_name_H-M    P1
_symmetry_Int_Tables_number       1
_space_group_crystal_system       triclinic
_cell_length_a                    17.411567
_cell_length_b                    6.911616
_cell_length_c                    14.277641
_cell_angle_alpha                 90.000057
_cell_angle_beta                  109.896061
_cell_angle_gamma                 89.999904
_cell_volume                      1615.64401718

loop_
_atom_site_label
_atom_site_type_symbol
_atom_type_description
_atom_site_fract_x
_atom_site_fract_y
_atom_site_fract_z
_atom_type_partial_charge
O1    O     O_R   0.314130 0.635770 0.168990 -0.554957
O2    O     O_R   0.685870 0.364230 0.831010 -0.533288
O3    O     O_R   0.185870 0.135770 0.331010 -0.554960
O4    O     O_R   0.814130 0.864230 0.668990 -0.533289
O5    O     O_R   0.146800 0.302460 0.139760 -0.536096
O6    O     O_R   0.853200 0.697540 0.860240 -0.530778
O7    O     O_R   0.353200 0.802460 0.360240 -0.536095
O8    O     O_R   0.646800 0.197540 0.639760 -0.530778
C1    C     C_R   0.114006 0.475857 0.112787 0.753273
C2    C     C_R   0.885761 0.524114 0.887656 0.764844
C3    C     C_R   0.385994 0.975857 0.387213 0.753264
C4    C     C_R   0.614238 0.024114 0.612344 0.764848
O9    O     O_R   0.311100 0.305780 0.157130 -0.533633
O10   O     O_R   0.688900 0.694220 0.842870 -0.553213
O11   O     O_R   0.188900 0.805780 0.342870 -0.533629
O12   O     O_R   0.811100 0.194220 0.657130 -0.553212
O13   O     O_R   0.351340 0.139640 0.348510 -0.535472
O14   O     O_R   0.648660 0.860360 0.651490 -0.546905
O15   O     O_R   0.148660 0.639640 0.151490 -0.535471
O16   O     O_R   0.851340 0.360360 0.848510 -0.546907
C5    C     C_R   0.335750 0.474753 0.139207 0.797561
C6    C     C_R   0.666740 0.525275 0.863269 0.786199
C7    C     C_R   0.164249 0.974753 0.360792 0.797548
C8    C     C_R   0.833261 0.025275 0.636731 0.786201
C9    C     C_1   0.533794 0.008832 0.532482 -0.157770
C10   C     C_1   0.466614 0.991160 0.466755 -0.178316
C11   C     C_1   0.966206 0.508832 0.967518 -0.157769
C12   C     C_1   0.033386 0.491160 0.033246 -0.178318
O17   O     O_3   0.263010 0.470920 0.312770 -0.373453
O18   O     O_3   0.736990 0.529080 0.687230 -0.373517
O19   O     O_3   0.236990 0.970920 0.187230 -0.373454
O20   O     O_3   0.763010 0.029080 0.812770 -0.373518
V1    V     V_3+5 0.247590 0.194450 0.238360 1.479172
V2    V     V_3+5 0.752410 0.805550 0.761640 1.477112
V3    V     V_3+5 0.252410 0.694450 0.261640 1.479180
V4    V     V_3+5 0.747590 0.305550 0.738360 1.477112
C13   C     C_R   0.113831 0.985271 0.426332 -0.230929
C14   C     C_R   0.882726 0.016432 0.571014 -0.203630
C15   C     C_R   0.386168 0.485269 0.073666 -0.230935
C16   C     C_R   0.617275 0.516434 0.928986 -0.203622
C17   C     C_R   0.894220 0.035202 0.406072 -0.212830
C18   C     C_R   0.100929 0.963805 0.590600 -0.191358
C19   C     C_R   0.605779 0.535219 0.093927 -0.212829
C20   C     C_R   0.399074 0.463772 0.909400 -0.191361
C21   C     C_R   0.846413 0.046798 0.467403 -0.074646
C22   C     C_R   0.150256 0.970669 0.531003 -0.072031
C23   C     C_R   0.653586 0.546813 0.032596 -0.074648
C24   C     C_R   0.349744 0.470644 0.968996 -0.072049
C25   C     C_R   0.968244 0.990392 0.612642 0.350055
C26   C     C_R   0.028305 0.018358 0.384792 0.344388
C27   C     C_R   0.531757 0.490380 0.887358 0.350057
C28   C     C_R   0.471693 0.518368 0.115206 0.344385
C29   C     C_R   0.015876 0.981546 0.549737 -0.006436
C30   C     C_R   0.979138 0.007834 0.446079 0.001136
C31   C     C_R   0.484125 0.481532 0.950264 -0.006450
C32   C     C_R   0.520862 0.507839 0.053921 0.001141
H1    H     H_    0.864757 0.054521 0.326583 0.189672
H2    H     H_    0.130008 0.950765 0.670583 0.201049
H3    H     H_    0.635240 0.554547 0.173416 0.189675
H4    H     H_    0.369996 0.450712 0.829418 0.201066
O21   O     O_3   0.991652 0.056506 0.283867 -0.586084
C33   C     C_3   0.003466 0.253320 0.263794 0.064786
H5    H     H_    0.995842 0.264486 0.183609 0.151116
H6    H     H_    0.065507 0.307311 0.306155 0.124468
C34   C     C_3   0.941636 0.388458 0.284922 -0.345142
H7    H     H_    0.878544 0.348562 0.237569 0.238710
H8    H     H_    0.947093 0.378167 0.364466 0.202475
C35   C     C_3   0.958532 0.597760 0.265100 -0.732560
H9    H     H_    0.023072 0.635702 0.307120 0.219075
H10   H     H_    0.918814 0.693492 0.290963 0.247812
H11   H     H_    0.946377 0.621469 0.184430 0.249690
O22   O     O_3   0.007875 0.985799 0.715233 -0.593990
C36   C     C_3   0.009942 0.170376 0.759887 0.073653
H12   H     H_    0.054825 0.161800 0.836723 0.169292
H13   H     H_    0.951204 0.201325 0.770112 0.135200
C37   C     C_3   0.036259 0.339415 0.706854 -0.376964
H14   H     H_    0.102639 0.327605 0.719290 0.228944
H15   H     H_    0.003010 0.340261 0.625374 0.197835
C38   C     C_3   0.017719 0.532521 0.745004 -0.766274
H16   H     H_    0.950835 0.550820 0.726724 0.228857
H17   H     H_    0.039858 0.647422 0.706870 0.257444
H18   H     H_    0.049011 0.544893 0.826645 0.243093
O23   O     O_3   0.508344 0.556527 0.216130 -0.586083
C39   C     C_3   0.496526 0.753342 0.236195 0.064795
H19   H     H_    0.504143 0.764514 0.316378 0.151115
H20   H     H_    0.434486 0.807332 0.193825 0.124464
C40   C     C_3   0.558360 0.888478 0.215075 -0.345142
H21   H     H_    0.621449 0.848578 0.262431 0.238716
H22   H     H_    0.552906 0.878188 0.135532 0.202474
C41   C     C_3   0.541464 0.097780 0.234897 -0.732565
H23   H     H_    0.476924 0.135724 0.192876 0.219075
H24   H     H_    0.581183 0.193511 0.209036 0.247813
H25   H     H_    0.553618 0.121487 0.315567 0.249685
O24   O     O_3   0.492126 0.485770 0.784767 -0.593991
C42   C     C_3   0.490053 0.670343 0.740107 0.073657
H26   H     H_    0.445181 0.661745 0.663265 0.169278
H27   H     H_    0.548794 0.701315 0.729897 0.135189
C43   C     C_3   0.463710 0.839375 0.793122 -0.376916
H28   H     H_    0.397323 0.827572 0.780644 0.228948
H29   H     H_    0.496929 0.840212 0.874609 0.197833
C44   C     C_3   0.482274 0.032487 0.754997 -0.766263
H30   H     H_    0.549161 0.050760 0.773295 0.228847
H31   H     H_    0.460137 0.147387 0.793134 0.257435
H32   H     H_    0.450994 0.044889 0.673355 0.243092
C45   C     C_2   0.239153 0.992714 0.582977 0.756765
O25   O     O_2   0.288781 0.929573 0.547415 -0.580111
O26   O     O_R   0.265469 0.093683 0.673169 -0.663523
H33   H     H_    0.325586 0.124052 0.696721 0.300451
C46   C     C_2   0.760846 0.112618 0.422289 0.758244
O27   O     O_2   0.706795 0.042483 0.448179 -0.583268
O28   O     O_R   0.743026 0.261779 0.352016 -0.665642
H34   H     H_    0.686098 0.315700 0.337231 0.300443
C47   C     C_2   0.260847 0.492668 0.917016 0.756779
O29   O     O_2   0.211218 0.429574 0.952591 -0.580116
O30   O     O_R   0.234530 0.593566 0.826803 -0.663526
H35   H     H_    0.174413 0.623933 0.803245 0.300451
C48   C     C_2   0.739153 0.612636 0.077710 0.758246
O31   O     O_2   0.793203 0.542508 0.051818 -0.583270
O32   O     O_R   0.756972 0.761791 0.147986 -0.665644
H36   H     H_    0.813900 0.815712 0.162774 0.300443

loop_
_geom_bond_atom_site_label_1
_geom_bond_atom_site_label_2
_ccdc_geom_bond_type
C2    C11   S    
C16   C23   A    
C31   C32   A    
O1    C5    A    
C44   H30   S    
C36   H12   S    
O3    C7    A    
C42   H26   S    
C39   C40   S    
C40   H21   S    
C18   H2    S    
C42   C43   S    
C14   C25   A    
C29   C30   A    
O7    C3    A    
C45   O26   S    
C26   C30   A    
O20   V4    S    
C39   H20   S    
C48   O32   S    
C18   C29   A    
C18   C22   A    
O4    C8    A    
C21   C46   S    
O3    V1    S    
O30   H35   S    
C22   C45   S    
O17   V1    S    
O8    V4    S    
C14   C21   A    
C33   H6    S    
C1    O15   A    
O28   H34   S    
C2    O16   A    
C35   H9    S    
C34   H8    S    
C25   O22   S    
O5    V1    S    
O2    C6    A    
C8    C14   S    
O26   H33   S    
O19   V1    S    
C19   H3    S    
O11   C7    A    
C15   C28   A    
O12   C8    A    
O9    V1    S    
C36   H13   S    
O24   C42   S    
O13   V1    S    
O11   V3    S    
O4    V2    S    
O18   V2    S    
C39   H19   S    
C38   H17   S    
C3    C10   S    
C9    C10   T    
C7    C13   S    
O6    V2    S    
O20   V2    S    
C28   O23   S    
O5    C1    A    
C33   H5    S    
C41   H24   S    
O23   C39   S    
C5    C15   S    
O8    C4    A    
C34   C35   S    
C6    C16   S    
O9    C5    A    
C37   H14   S    
O14   V2    S    
C35   H10   S    
C34   H7    S    
C44   H32   S    
C43   H29   S    
C40   H22   S    
C36   C37   S    
O19   V3    S    
C16   C27   A    
O1    V3    S    
C41   H25   S    
C47   O29   D    
O2    V4    S    
C3    O13   A    
C33   C34   S    
O7    V3    S    
C37   H15   S    
O22   C36   S    
O10   V2    S    
C38   H18   S    
O32   H36   S    
C42   H27   S    
C43   C44   S    
C45   O25   D    
O17   V3    S    
O18   V4    S    
C4    C9    S    
O10   C6    A    
C46   O28   S    
C17   H1    S    
O15   V3    S    
C48   O31   D    
O12   V4    S    
C13   C26   A    
C20   C31   A    
C41   H23   S    
C20   H4    S    
C35   H11   S    
C25   C29   A    
C27   C31   A    
O21   C33   S    
C17   C30   A    
O6    C2    A    
C27   O24   S    
C38   H16   S    
O16   V4    S    
C28   C32   A    
C19   C32   A    
C23   C48   S    
C37   C38   S    
C44   H31   S    
C43   H28   S    
C40   C41   S    
C4    O14   A    
C11   C12   T    
C26   O21   S    
C17   C21   A    
C15   C24   A    
C13   C22   A    
C46   O27   D    
C19   C23   A    
C20   C24   A    
C1    C12   S    
C24   C47   S    
C47   O30   S    
