data_mof_unit_65459.cif
_audit_creation_date              2012-10-26T21:22:28-0400
_audit_creation_method            fapswitch 2.2
_symmetry_space_group_name_H-M    P1
_symmetry_Int_Tables_number       1
_space_group_crystal_system       triclinic
_cell_length_a                    16.034104
_cell_length_b                    14.783474
_cell_length_c                    17.759607
_cell_angle_alpha                 90.047647
_cell_angle_beta                  89.992406
_cell_angle_gamma                 89.998614
_cell_volume                      4209.73147998

loop_
_atom_site_label
_atom_site_type_symbol
_atom_type_description
_atom_site_fract_x
_atom_site_fract_y
_atom_site_fract_z
_atom_type_partial_charge
C1    C     C_R   0.341007 0.500001 0.500013 0.556843
C2    C     C_R   0.503276 0.047946 0.568776 0.283497
C3    C     C_R   0.500032 0.902668 0.499998 -0.110602
C4    C     C_R   0.500045 0.097329 0.499999 -0.110433
C5    C     C_1   0.500012 0.802465 0.499999 0.133447
C6    C     C_1   0.500018 0.197534 0.500000 0.133705
C7    C     C_R   0.499934 0.499946 0.355211 0.620382
C8    C     C_R   0.499947 0.500055 0.644782 0.620692
C9    C     C_R   0.538856 0.569449 0.847554 0.201783
C10   C     C_R   0.538476 0.430359 0.152396 0.201796
C11   C     C_R   0.456462 0.569609 0.153567 0.199363
C12   C     C_R   0.658994 0.499999 0.499988 0.558062
C13   C     C_R   0.456135 0.430693 0.846428 0.199389
C14   C     C_R   0.539023 0.570512 0.767834 0.178400
C15   C     C_R   0.538639 0.429273 0.232115 0.178329
C16   C     C_R   0.456043 0.568756 0.233274 0.179210
C17   C     C_R   0.455739 0.431521 0.766721 0.179092
C18   C     C_R   0.499309 0.500046 0.727851 0.031861
C19   C     C_R   0.499277 0.499964 0.272130 0.031740
C20   C     C_R   0.495546 0.501015 0.885538 0.050099
C21   C     C_R   0.495523 0.499067 0.114435 0.050090
C22   C     C_1   0.495302 0.500335 0.966243 0.181081
C23   C     C_1   0.822643 0.499996 0.499995 -0.056982
C24   C     C_1   0.495294 0.499769 0.033731 0.181077
C25   C     C_R   0.956392 0.583128 0.500046 0.290256
C26   C     C_R   0.043613 0.416873 0.499988 0.289972
C27   C     C_R   0.043607 0.583130 0.500039 0.289975
C28   C     C_R   0.956398 0.416870 0.499968 0.290259
C29   C     C_R   0.912346 0.499998 0.500003 -0.080604
C30   C     C_R   0.087659 0.500002 0.500016 -0.080879
C31   C     C_1   0.177361 0.500005 0.500017 -0.058790
C32   C     C_1   0.252205 0.500004 0.500016 0.009598
C33   C     C_1   0.747798 0.499996 0.499990 0.012522
C34   C     C_R   0.503396 0.952180 0.568771 0.283988
C35   C     C_R   0.496831 0.047816 0.431220 0.283971
C36   C     C_R   0.496691 0.952051 0.431225 0.283288
Cu1   Cu    Cu3+1 0.500000 0.589220 0.500000 1.091994
Cu2   Cu    Cu3+1 0.500000 0.410780 0.500000 1.092067
H1    H     H_    0.630549 0.654150 0.860439 0.355440
H2    H     H_    0.856073 0.340067 0.499866 0.335899
H3    H     H_    0.856061 0.659922 0.500139 0.335908
H4    H     H_    0.143945 0.340079 0.500045 0.335462
H5    H     H_    0.505783 0.156443 0.632806 0.339639
H6    H     H_    0.493045 0.843552 0.367237 0.340414
H7    H     H_    0.494537 0.156191 0.367179 0.334963
H8    H     H_    0.507105 0.843803 0.632758 0.335333
H9    H     H_    0.629710 0.345063 0.139481 0.355330
H10   H     H_    0.422689 0.695188 0.142725 0.359792
H11   H     H_    0.421710 0.305333 0.857299 0.359628
H12   H     H_    0.573592 0.695755 0.757273 0.354287
H13   H     H_    0.572501 0.303801 0.242650 0.354165
H14   H     H_    0.362771 0.651891 0.244222 0.350650
H15   H     H_    0.362065 0.348931 0.755784 0.350404
H16   H     H_    0.143933 0.659933 0.500010 0.335443
N1    N     N_1   0.500000 0.276710 0.500000 -0.175453
N2    N     N_1   0.500000 0.723290 0.500000 -0.175480
O1    O     O_R   0.380310 0.575320 0.500010 -0.490625
O2    O     O_3   0.581456 0.367213 0.110012 -0.663190
O3    O     O_3   0.421036 0.638992 0.112378 -0.662939
O4    O     O_3   0.420347 0.361542 0.887639 -0.662994
O5    O     O_3   0.577320 0.639005 0.727787 -0.670815
O6    O     O_3   0.576593 0.360529 0.272124 -0.670418
O7    O     O_3   0.411023 0.631320 0.274498 -0.671058
O8    O     O_3   0.410426 0.369215 0.725505 -0.670705
O9    O     O_3   0.082648 0.666761 0.500060 -0.590330
O10   O     O_3   0.917358 0.333239 0.499919 -0.589717
O11   O     O_3   0.917345 0.666756 0.500090 -0.589711
O12   O     O_R   0.619690 0.424680 0.499990 -0.490494
O13   O     O_3   0.082661 0.333245 0.499973 -0.590308
O14   O     O_3   0.506488 0.089957 0.638447 -0.589165
O15   O     O_3   0.493231 0.910038 0.361563 -0.589219
O16   O     O_3   0.493656 0.089695 0.361548 -0.592775
O17   O     O_3   0.506870 0.910301 0.638432 -0.592857
O18   O     O_R   0.619690 0.575320 0.499990 -0.490382
O19   O     O_R   0.380310 0.424680 0.500010 -0.490507
O20   O     O_R   0.500000 0.575370 0.391250 -0.455710
O21   O     O_R   0.500000 0.424630 0.608750 -0.455889
O22   O     O_R   0.500000 0.575370 0.608750 -0.459264
O23   O     O_R   0.500000 0.424630 0.391250 -0.459123
O24   O     O_3   0.582164 0.632338 0.889915 -0.663170

loop_
_geom_bond_atom_site_label_1
_geom_bond_atom_site_label_2
_ccdc_geom_bond_type
Cu1   O18   S    
C12   O18   A    
C14   C18   A    
C5    N2    T    
C28   O10   S    
C35   C36   A    
C25   O11   S    
C6    N1    T    
H3    O11   S    
C13   O4    S    
C15   C19   A    
C12   O12   A    
H11   O4    S    
C23   C29   S    
C28   C29   A    
C10   O2    S    
C10   C15   A    
C17   O8    S    
C30   C31   S    
H15   O8    S    
Cu2   O23   S    
H6    O15   S    
Cu1   N2    S    
Cu2   N1    S    
C23   C33   T    
C16   O7    S    
C36   O15   S    
C2    C34   A    
C4    C35   A    
H2    O10   S    
C27   C30   A    
C8    O22   A    
H13   O6    S    
C11   O3    S    
Cu2   O19   S    
C10   C21   A    
C25   C29   A    
C1    O19   A    
C4    C6    S    
H16   O9    S    
C3    C34   A    
C14   O5    S    
C11   C21   A    
H4    O13   S    
C8    C18   S    
C9    O24   S    
C2    C4    A    
C9    C14   A    
Cu1   Cu2   S    
C27   O9    S    
C1    O1    A    
C11   C16   A    
C9    C20   A    
C31   C32   T    
C17   C18   A    
Cu1   O20   S    
Cu2   O12   S    
C35   O16   S    
C26   C30   A    
H5    O14   S    
C7    C19   S    
C8    O21   A    
C22   C24   T    
H10   O3    S    
C7    O23   A    
H12   O5    S    
C13   C20   A    
C20   C22   S    
C3    C5    S    
H14   O7    S    
C7    O20   A    
Cu2   O21   S    
C25   C27   A    
Cu1   O22   S    
C26   C28   A    
C13   C17   A    
H1    O24   S    
H9    O2    S    
C3    C36   A    
C16   C19   A    
C15   O6    S    
C1    C32   S    
C34   O17   S    
C21   C24   S    
C26   O13   S    
C12   C33   S    
C2    O14   S    
H8    O17   S    
Cu1   O1    S    
H7    O16   S    
