data_mof_unit_48582.cif
_audit_creation_date              2013-03-05T15:40:03-0500
_audit_creation_method            fapswitch 2.2
_symmetry_space_group_name_H-M    P1
_symmetry_Int_Tables_number       1
_space_group_crystal_system       triclinic
_cell_length_a                    24.35736
_cell_length_b                    17.273899
_cell_length_c                    15.586029
_cell_angle_alpha                 89.999772
_cell_angle_beta                  129.217301
_cell_angle_gamma                 90.000493
_cell_volume                      5080.65467258

loop_
_atom_site_label
_atom_site_type_symbol
_atom_site_description
_atom_site_fract_x
_atom_site_fract_y
_atom_site_fract_z
_atom_type_partial_charge
C1    C     C_R   0.352373 0.358494 0.245584 -0.096441
C2    C     C_R   0.647640 0.358507 0.754454 -0.096512
C3    C     C_R   0.831960 0.900360 0.194767 -0.130061
C4    C     C_R   0.168039 0.900359 0.805232 -0.130047
H1    H     H_    0.306138 0.341954 0.235054 0.137338
H2    H     H_    0.693886 0.341978 0.765011 0.137390
H3    H     H_    0.778811 0.909724 0.164326 0.169952
H4    H     H_    0.221189 0.909722 0.835672 0.169947
N1    N     N_R   0.389060 0.424180 0.294540 -0.031242
N2    N     N_R   0.610940 0.424180 0.705460 -0.031242
N3    N     N_R   0.889060 0.924180 0.294540 -0.049055
N4    N     N_R   0.110940 0.924180 0.705460 -0.049057
C5    C     C_R   0.609375 0.381482 0.409513 -0.097767
C6    C     C_R   0.390617 0.381490 0.590482 -0.097878
C7    C     C_R   0.100845 0.869383 0.408286 -0.084349
C8    C     C_R   0.899155 0.869382 0.591714 -0.084426
H5    H     H_    0.588443 0.373850 0.324961 0.164141
H6    H     H_    0.411546 0.373859 0.675033 0.164377
H7    H     H_    0.075566 0.856509 0.322731 0.171838
H8    H     H_    0.924435 0.856506 0.677268 0.171846
N5    N     N_R   0.579670 0.423790 0.443360 -0.083059
N6    N     N_R   0.420330 0.423790 0.556640 -0.083088
N7    N     N_R   0.079670 0.923790 0.443360 -0.079822
N8    N     N_R   0.920330 0.923790 0.556640 -0.079826
C9    C     C_R   0.684477 0.386007 0.592899 0.248828
C10   C     C_R   0.315517 0.386019 0.407098 0.248824
C11   C     C_R   0.177330 0.872801 0.593522 0.306995
C12   C     C_R   0.822670 0.872800 0.406478 0.307060
N9    N     N_R   0.625470 0.423490 0.556600 -0.093337
N10   N     N_R   0.374530 0.423490 0.443400 -0.093341
N11   N     N_R   0.125470 0.923490 0.556600 -0.093911
N12   N     N_R   0.874530 0.923490 0.443400 -0.093908
C13   C     C_R   0.558745 0.360472 0.759067 0.002045
C14   C     C_R   0.441259 0.360465 0.240949 0.002028
C15   C     C_R   0.076802 0.896639 0.803158 -0.032849
C16   C     C_R   0.923198 0.896641 0.196842 -0.032829
H9    H     H_    0.524466 0.350184 0.778603 0.168164
H10   H     H_    0.475525 0.350175 0.221386 0.167659
H11   H     H_    0.044710 0.898744 0.828694 0.175928
H12   H     H_    0.955290 0.898748 0.171305 0.175933
N13   N     N_R   0.555250 0.423100 0.705420 -0.065782
N14   N     N_R   0.444750 0.423100 0.294580 -0.065739
N15   N     N_R   0.055250 0.923100 0.705420 -0.061801
N16   N     N_R   0.944750 0.923100 0.294580 -0.061806
C17   C     C_R   0.385281 0.315438 0.213475 -0.094797
C18   C     C_R   0.614736 0.315454 0.786577 -0.094871
C19   C     C_R   0.851204 0.883812 0.129955 -0.065819
C20   C     C_R   0.148796 0.883810 0.870044 -0.065819
C21   C     C_R   0.673895 0.353919 0.502807 0.031058
C22   C     C_R   0.326091 0.353938 0.497184 0.031056
C23   C     C_R   0.161282 0.834809 0.501967 -0.013982
C24   C     C_R   0.838719 0.834806 0.498032 -0.013979
C25   C     C_R   0.311204 0.599166 0.406793 0.000817
C26   C     C_R   0.688796 0.599167 0.593209 0.000822
C27   C     C_R   0.812006 0.102104 0.407570 0.033879
C28   C     C_R   0.187992 0.102115 0.592445 0.033971
H13   H     H_    0.264086 0.593600 0.321506 0.197251
H14   H     H_    0.735913 0.593601 0.678496 0.197247
H15   H     H_    0.764409 0.098239 0.322289 0.191059
H16   H     H_    0.235585 0.098250 0.677730 0.191166
N17   N     N_R   0.375210 0.577180 0.443400 -0.066457
N18   N     N_R   0.624790 0.577180 0.556600 -0.066458
N19   N     N_R   0.875210 0.077180 0.443400 -0.064716
N20   N     N_R   0.124790 0.077180 0.556600 -0.064746
C29   C     C_R   0.442168 0.641860 0.243667 -0.085636
C30   C     C_R   0.557836 0.641857 0.756340 -0.085627
C31   C     C_R   0.925795 0.113312 0.202838 -0.107220
C32   C     C_R   0.074212 0.113302 0.797172 -0.107202
H17   H     H_    0.479687 0.658328 0.231623 0.128631
H18   H     H_    0.520317 0.658324 0.768387 0.128635
H19   H     H_    0.956298 0.113818 0.174215 0.136724
H20   H     H_    0.043713 0.113802 0.825801 0.136737
N21   N     N_R   0.445430 0.577570 0.294580 -0.056633
N22   N     N_R   0.554570 0.577570 0.705420 -0.056627
N23   N     N_R   0.945430 0.077570 0.294580 -0.053398
N24   N     N_R   0.054570 0.077570 0.705420 -0.053399
C33   C     C_R   0.650048 0.640341 0.756250 -0.075148
C34   C     C_R   0.349955 0.640343 0.243757 -0.075144
C35   C     C_R   0.166356 0.111149 0.797749 -0.096711
C36   C     C_R   0.833647 0.111154 0.202252 -0.096691
H21   H     H_    0.698029 0.654534 0.769439 0.119765
H22   H     H_    0.301975 0.654535 0.230571 0.119762
H23   H     H_    0.219679 0.111322 0.825078 0.140673
H24   H     H_    0.780322 0.111329 0.174914 0.140745
N25   N     N_R   0.611620 0.576500 0.705460 -0.045672
N26   N     N_R   0.388380 0.576500 0.294540 -0.045670
N27   N     N_R   0.111620 0.076500 0.705460 -0.053550
N28   N     N_R   0.888380 0.076500 0.294540 -0.053552
C37   C     C_R   0.384021 0.599362 0.589525 -0.114403
C38   C     C_R   0.615981 0.599364 0.410477 -0.114385
C39   C     C_R   0.886106 0.103023 0.591050 -0.091040
C40   C     C_R   0.113902 0.103033 0.408965 -0.091069
H25   H     H_    0.404834 0.595276 0.674314 0.166479
H26   H     H_    0.595170 0.595281 0.325689 0.166452
H27   H     H_    0.908005 0.100871 0.676489 0.164341
H28   H     H_    0.092014 0.100893 0.323529 0.164290
N29   N     N_R   0.421010 0.576890 0.556640 -0.058003
N30   N     N_R   0.578990 0.576890 0.443360 -0.058002
N31   N     N_R   0.921010 0.076890 0.556640 -0.053280
N32   N     N_R   0.078990 0.076890 0.443360 -0.053267
Ni1   Ni    Ni4+2 0.383200 0.500680 0.370150 0.299703
Ni2   Ni    Ni4+2 0.616800 0.500680 0.629850 0.299700
Ni3   Ni    Ni4+2 0.883200 0.000680 0.370150 0.272345
Ni4   Ni    Ni4+2 0.116800 0.000680 0.629850 0.272361
Ni5   Ni    Ni4+2 0.512440 0.500680 0.370150 0.242231
Ni6   Ni    Ni4+2 0.487560 0.500680 0.629850 0.242255
Ni7   Ni    Ni4+2 0.012440 0.000680 0.370150 0.241706
Ni8   Ni    Ni4+2 0.987560 0.000680 0.629850 0.241690
C41   C     C_R   0.313459 0.610367 0.496201 -0.050191
C42   C     C_R   0.686542 0.610369 0.503803 -0.050184
C43   C     C_R   0.815933 0.116101 0.498472 -0.069348
C44   C     C_R   0.184074 0.116118 0.501555 -0.069395
C45   C     C_R   0.383474 0.683166 0.212950 0.108803
C46   C     C_R   0.616531 0.683162 0.787061 0.108818
C47   C     C_R   0.855634 0.134349 0.142751 0.112571
C48   C     C_R   0.144374 0.134335 0.857260 0.112561
C49   C     C_2   0.743753 0.642645 0.423052 0.178402
C50   C     C_2   0.256253 0.642655 0.576955 0.178389
C51   C     C_2   0.235252 0.158953 0.415779 0.173948
C52   C     C_2   0.764777 0.158963 0.584274 0.174015
C53   C     C_2   0.750122 0.621229 0.512161 0.342321
C54   C     C_2   0.249881 0.621229 0.487847 0.342307
C55   C     C_2   0.245391 0.132360 0.506122 0.362099
C56   C     C_2   0.754626 0.132328 0.493938 0.361731
C57   C     C_2   0.272950 0.228577 0.424009 -0.087972
C58   C     C_2   0.727050 0.228569 0.576003 -0.087950
C59   C     C_2   0.785996 0.707867 0.431908 -0.065792
C60   C     C_2   0.214006 0.707872 0.568093 -0.065762
C61   C     C_2   0.287799 0.287490 0.492353 -0.058281
C62   C     C_2   0.712177 0.287467 0.507627 -0.058337
C63   C     C_2   0.800597 0.769477 0.495971 -0.068138
C64   C     C_2   0.199403 0.769481 0.504028 -0.068149
H29   H     H_    0.285472 0.233063 0.368464 0.148981
H30   H     H_    0.714548 0.233065 0.631573 0.148908
H31   H     H_    0.800604 0.707966 0.378873 0.172413
H32   H     H_    0.199400 0.707971 0.621131 0.172390
H33   H     H_    0.275312 0.285042 0.547862 0.172886
H34   H     H_    0.724649 0.285007 0.452099 0.172846
H35   H     H_    0.785672 0.771554 0.548370 0.180030
H36   H     H_    0.214327 0.771557 0.451627 0.180035
H37   H     H_    0.285192 0.778510 0.175814 0.183094
H38   H     H_    0.714804 0.778516 0.824179 0.183103
H39   H     H_    0.717894 0.117401 0.988792 0.189473
H40   H     H_    0.282130 0.117468 0.011154 0.189435
H41   H     H_    0.720275 0.228918 0.834440 0.134583
H42   H     H_    0.279712 0.228921 0.165529 0.134622
H43   H     H_    0.283445 0.850942 0.991469 0.142472
H44   H     H_    0.716554 0.850951 0.008528 0.142463
C65   C     C_2   0.636848 0.238645 0.842173 0.520172
C66   C     C_2   0.363189 0.238619 0.157917 0.519796
C67   C     C_2   0.197495 0.868206 0.990484 0.399347
C68   C     C_2   0.802505 0.868211 0.009514 0.399364
C69   C     C_2   0.695808 0.205846 0.867634 -0.272240
C70   C     C_2   0.304204 0.205837 0.132383 -0.272056
C71   C     C_2   0.264148 0.846340 0.037654 -0.244281
C72   C     C_2   0.735851 0.846346 0.962343 -0.244319
H45   H     H_    0.380287 0.772172 0.110255 0.176067
H46   H     H_    0.619725 0.772160 0.889769 0.176056
H47   H     H_    0.835240 0.200767 0.005120 0.189247
H48   H     H_    0.164772 0.200685 0.994939 0.189262
C73   C     C_2   0.359210 0.755828 0.151804 -0.200012
C74   C     C_2   0.640797 0.755822 0.848211 -0.200047
C75   C     C_2   0.810877 0.164778 0.030097 -0.217694
C76   C     C_2   0.189139 0.164746 0.969924 -0.217641
C77   C     C_2   0.305598 0.795146 0.133787 0.013678
C78   C     C_2   0.694402 0.795148 0.866215 0.013677
C79   C     C_2   0.740822 0.154596 0.963108 0.006992
C80   C     C_2   0.259199 0.154607 0.036881 0.006911
S1    S     S_3+6 0.835560 0.618340 0.646004 -0.012878
O1    O     O_2   0.893601 0.627431 0.638022 -0.253567
O2    O     O_2   0.841249 0.681664 0.717458 -0.271487
O3    O     O_3   0.845348 0.532344 0.704679 -0.460483
H49   H     H_    0.889977 0.536895 0.781833 0.406431
S2    S     S_3+6 0.164442 0.618337 0.354006 -0.012886
O4    O     O_2   0.106402 0.627425 0.361990 -0.253576
O5    O     O_2   0.158751 0.681661 0.282549 -0.271485
O6    O     O_3   0.154656 0.532341 0.295332 -0.460450
H50   H     H_    0.110014 0.536894 0.218164 0.406398
S3    S     S_3+6 0.332349 0.129115 0.636536 -0.013253
O7    O     O_2   0.387149 0.141535 0.622033 -0.225880
O8    O     O_2   0.339913 0.190145 0.712158 -0.304770
O9    O     O_3   0.345242 0.041613 0.693763 -0.458243
H51   H     H_    0.392493 0.044811 0.767924 0.404325
S4    S     S_3+6 0.667656 0.129006 0.363559 -0.012643
O10   O     O_2   0.612874 0.141357 0.378115 -0.224836
O11   O     O_2   0.660019 0.190044 0.287884 -0.304891
O12   O     O_3   0.654817 0.041498 0.306374 -0.458190
H52   H     H_    0.607703 0.044775 0.232016 0.404517
S5    S     S_3+6 0.591461 0.195175 0.885909 -0.003394
O13   O     O_2   0.590460 0.108672 0.874266 -0.251668
O14   O     O_2   0.630496 0.215215 0.005573 -0.276932
O15   O     O_3   0.507031 0.224916 0.811070 -0.496857
H53   H     H_    0.491318 0.206818 0.852796 0.414573
S6    S     S_3+6 0.408649 0.195138 0.114320 -0.003162
O16   O     O_2   0.409535 0.108623 0.125737 -0.250710
O17   O     O_2   0.369766 0.215320 0.994740 -0.277487
O18   O     O_3   0.493133 0.224773 0.189482 -0.496385
H54   H     H_    0.508586 0.207819 0.146956 0.414002
S7    S     S_3+6 0.166045 0.874163 0.067007 0.026039
O19   O     O_2   0.129914 0.799443 0.054116 -0.195054
O20   O     O_2   0.226014 0.888142 0.187861 -0.239303
O21   O     O_3   0.107671 0.947163 0.019523 -0.465311
H55   H     H_    0.133329 0.993707 0.024495 0.345815
S8    S     S_3+6 0.833955 0.874170 0.932992 0.026013
O22   O     O_2   0.870088 0.799452 0.945884 -0.195042
O23   O     O_2   0.773985 0.888147 0.812137 -0.239347
O24   O     O_3   0.892326 0.947174 0.980475 -0.465328
H56   H     H_    0.866660 0.993719 0.975477 0.345814
N33   N     N_R   0.752505 0.400001 0.698548 0.238372
O25   O     O_R   0.759351 0.452809 0.764245 -0.400424
O26   O     O_R   0.809024 0.365856 0.725216 -0.329217
N34   N     N_R   0.247493 0.400013 0.301443 0.238381
O27   O     O_R   0.240655 0.452815 0.235744 -0.400417
O28   O     O_R   0.190971 0.365865 0.274761 -0.329318
N35   N     N_R   0.246571 0.879610 0.699080 0.232163
O29   O     O_R   0.268883 0.947221 0.745955 -0.397050
O30   O     O_R   0.291372 0.822524 0.740359 -0.353601
N36   N     N_R   0.753429 0.879606 0.300918 0.232179
O31   O     O_R   0.731120 0.947215 0.254037 -0.397245
O32   O     O_R   0.708623 0.822526 0.259655 -0.353615
N37   N     N_R   0.694283 0.605221 0.317518 0.230780
O33   O     O_R   0.670453 0.641508 0.226745 -0.328228
O34   O     O_R   0.682475 0.531251 0.313187 -0.384936
N38   N     N_R   0.305743 0.605258 0.682504 0.230746
O35   O     O_R   0.329636 0.641595 0.773278 -0.328211
O36   O     O_R   0.317535 0.531280 0.686869 -0.384892
N39   N     N_R   0.187551 0.121033 0.310117 0.230751
O37   O     O_R   0.161017 0.158962 0.219313 -0.357086
O38   O     O_R   0.180021 0.046147 0.305445 -0.339709
N40   N     N_R   0.812555 0.121138 0.689994 0.230637
O39   O     O_R   0.839238 0.159196 0.780772 -0.356980
O40   O     O_R   0.820056 0.046241 0.694793 -0.339684

loop_
_geom_bond_atom_site_label_1
_geom_bond_atom_site_label_2
_geom_bond_distance
_ccdc_geom_bond_type
S6    O17   1.503359 D    
N23   Ni7   1.839690 S    
C27   H15   1.080125 S    
S1    O1    1.503718 D    
C6    H6    1.079067 S    
C53   S1    1.787560 S    
C14   N14   1.336673 A    
C3    N3    1.336768 A    
C4    H4    1.072619 S    
N38   O35   1.301218 A    
N40   O40   1.302126 A    
C35   N27   1.334066 A    
C51   N39   1.439283 S    
C6    C22   1.386070 A    
C2    C18   1.397652 A    
C7    H7    1.080950 S    
N31   Ni8   1.823113 S    
N1    N14   1.356195 A    
N30   Ni5   1.823097 S    
H40   C80   1.080534 S    
C1    H1    1.069148 S    
H48   C76   1.087339 S    
C38   N30   1.345031 A    
C59   H31   1.087118 S    
C56   S4    1.782334 S    
N4    N15   1.356195 A    
C3    H3    1.072613 S    
C60   H32   1.087119 S    
C42   C53   1.481661 S    
C4    C20   1.385848 A    
C52   C58   1.468651 S    
C41   C54   1.481666 S    
C46   C74   1.456264 S    
S6    O18   1.679452 S    
N22   Ni6   1.839675 S    
C58   C62   1.346809 D    
C57   H29   1.087405 S    
C30   N22   1.337745 A    
C37   C41   1.394467 A    
C40   H28   1.077518 S    
C29   N21   1.337741 A    
S4    O10   1.503425 D    
C26   C42   1.373139 A    
C16   C19   1.378143 A    
C17   C66   1.486952 S    
C50   C54   1.348115 D    
C39   C43   1.391340 A    
S5    O14   1.503328 D    
C65   C69   1.349172 D    
S2    O4    1.503717 D    
C66   S6    1.789788 S    
N19   N31   1.367419 A    
N18   N30   1.367420 A    
C49   N37   1.438445 S    
C68   C72   1.345206 D    
N18   Ni2   1.835345 S    
S4    O11   1.503324 D    
C27   N19   1.334194 A    
S7    O21   1.681916 S    
C36   C47   1.391201 A    
N8    Ni8   1.839787 S    
O15   H53   0.990910 S    
C7    C23   1.392009 A    
N27   Ni4   1.818807 S    
C4    N4    1.336770 A    
H43   C71   1.083183 S    
C36   H24   1.081098 S    
S3    O9    1.680670 S    
H41   C69   1.082352 S    
C34   N26   1.334878 A    
C7    N7    1.343375 A    
S6    O16   1.503547 D    
C33   N25   1.334887 A    
S7    O19   1.502375 D    
N24   Ni8   1.839675 S    
C74   C78   1.334802 D    
C35   C48   1.391189 A    
C69   C79   1.461882 S    
N2    N13   1.356195 A    
C11   N35   1.433981 S    
C13   C18   1.381689 A    
S1    O2    1.503635 D    
C70   C80   1.461872 S    
C2    H2    1.069153 S    
C50   C60   1.472193 S    
C15   C20   1.378146 A    
C60   C64   1.344255 D    
C12   N12   1.332006 A    
C11   C23   1.383630 A    
C38   H26   1.077611 S    
C9    C21   1.373928 A    
C9    N9    1.332969 A    
N13   Ni6   1.856323 S    
C50   N38   1.438434 S    
O24   H56   0.990850 S    
C67   S7    1.781920 S    
C16   H12   1.078958 S    
C1    N1    1.343858 A    
C44   C55   1.476479 S    
N19   Ni3   1.835354 S    
O21   H55   0.990836 S    
C52   N40   1.439268 S    
C25   H13   1.079001 S    
C40   C44   1.391392 A    
C51   C55   1.347200 D    
C26   N18   1.332478 A    
C54   S2    1.787557 S    
C11   N11   1.332002 A    
C13   H9    1.069076 S    
N17   Ni1   1.835354 S    
C28   H16   1.080120 S    
C37   N29   1.345019 A    
C32   H20   1.081774 S    
C55   S3    1.782376 S    
N7    N11   1.367420 A    
S5    O15   1.679395 S    
C15   H11   1.078957 S    
N35   O29   1.300394 A    
N8    N12   1.367419 A    
N37   O33   1.301160 A    
C22   C61   1.450592 S    
H38   C78   1.081871 S    
C34   H22   1.079067 S    
N36   O32   1.299722 A    
N39   O37   1.301276 A    
H42   C70   1.082353 S    
S8    O24   1.681921 S    
C72   C78   1.460627 S    
C75   C79   1.334099 D    
C8    H8    1.080952 S    
N7    Ni7   1.839799 S    
C28   N20   1.334148 A    
N33   O25   1.300964 A    
N12   Ni3   1.852231 S    
C5    N5    1.348550 A    
N3    N16   1.356195 A    
C14   C17   1.381679 A    
C32   N24   1.337817 A    
S8    O22   1.502381 D    
C9    N33   1.437097 S    
C49   C59   1.472207 S    
N24   N27   1.389316 A    
H39   C79   1.080557 S    
S2    O6    1.680509 S    
C32   C48   1.380498 A    
C5    C21   1.386050 A    
N29   Ni6   1.823113 S    
C51   C57   1.468692 S    
C76   C80   1.334112 D    
N1    Ni1   1.835236 S    
N39   O38   1.302079 A    
S8    O23   1.503601 D    
C10   N10   1.332962 A    
C67   C71   1.345209 D    
C73   C77   1.334796 D    
S1    O3    1.680511 S    
H47   C75   1.087337 S    
C16   N16   1.339350 A    
C34   C45   1.392830 A    
C31   N23   1.337811 A    
C38   C42   1.394471 A    
C25   N17   1.332488 A    
C33   C46   1.392832 A    
C2    N2    1.343860 A    
H45   C73   1.087669 S    
N28   Ni3   1.818798 S    
C15   N15   1.339351 A    
O3    H49   0.990424 S    
C40   N32   1.338256 A    
C26   H14   1.079001 S    
N16   Ni7   1.856311 S    
C25   C41   1.373146 A    
N20   Ni4   1.835345 S    
O18   H54   0.991083 S    
N32   Ni7   1.823097 S    
C12   N36   1.433984 S    
C30   C46   1.384435 A    
C27   C43   1.379709 A    
C43   C56   1.476487 S    
C14   H10   1.069117 S    
C24   C63   1.448770 S    
C29   C45   1.384437 A    
O6    H50   0.990633 S    
C48   C76   1.458488 S    
N17   N29   1.367419 A    
C8    C24   1.392011 A    
N34   O28   1.300877 A    
N38   O36   1.302083 A    
N3    Ni3   1.835236 S    
C23   C64   1.448767 S    
N4    Ni4   1.835226 S    
C36   N28   1.334084 A    
C49   C53   1.348115 D    
C64   H36   1.084385 S    
C21   C62   1.450599 S    
C65   S5    1.789845 S    
S4    O12   1.680675 S    
C5    H5    1.079066 S    
N21   Ni5   1.839690 S    
C13   N13   1.336676 A    
H37   C77   1.081863 S    
C6    N6    1.348562 A    
C59   C63   1.344263 D    
C10   C22   1.373899 A    
N20   N32   1.367420 A    
N40   O39   1.301412 A    
N37   O34   1.302059 A    
C47   C75   1.458483 S    
N6    Ni6   1.839787 S    
N11   Ni4   1.852239 S    
C35   H23   1.081093 S    
C12   C24   1.383629 A    
C1    C17   1.397611 A    
N36   O31   1.300394 A    
C30   H18   1.080865 S    
N5    N9    1.367420 A    
C71   C77   1.460622 S    
C29   H17   1.080865 S    
N10   Ni1   1.852231 S    
C3    C19   1.385844 A    
N33   O26   1.300862 A    
S2    O5    1.503634 D    
C28   C44   1.379651 A    
N9    Ni2   1.852239 S    
C31   H19   1.081775 S    
N15   Ni8   1.856323 S    
N22   N25   1.389316 A    
C37   H25   1.077606 S    
S5    O13   1.503565 D    
N6    N10   1.367419 A    
N14   Ni5   1.856311 S    
C31   C47   1.380485 A    
N21   N26   1.389318 A    
N35   O30   1.299737 A    
C63   H35   1.084385 S    
C52   C56   1.347221 D    
H46   C74   1.087671 S    
C45   C73   1.456276 S    
S3    O7    1.503437 D    
C57   C61   1.346830 D    
N23   N28   1.389318 A    
O12   H52   0.990703 S    
C18   C65   1.487004 S    
C61   H33   1.084236 S    
C19   C68   1.479116 S    
C58   H30   1.087406 S    
C39   H27   1.077502 S    
C8    N8    1.343377 A    
C33   H21   1.079070 S    
C66   C70   1.349150 D    
C20   C67   1.479121 S    
S7    O20   1.503599 D    
C68   S8    1.781916 S    
C10   N34   1.437096 S    
H44   C72   1.083185 S    
C39   N31   1.338203 A    
N26   Ni1   1.818798 S    
N2    Ni2   1.835226 S    
N5    Ni5   1.839799 S    
N25   Ni2   1.818807 S    
O9    H51   0.990699 S    
N34   O27   1.300968 A    
S3    O8    1.503317 D    
C62   H34   1.084242 S    
