data_mof_unit_44300.cif
_audit_creation_date              2012-10-26T19:55:51-0400
_audit_creation_method            fapswitch 2.2
_symmetry_space_group_name_H-M    P1
_symmetry_Int_Tables_number       1
_space_group_crystal_system       triclinic
_cell_length_a                    10.990332
_cell_length_b                    10.770621
_cell_length_c                    9.666321
_cell_angle_alpha                 90.597702
_cell_angle_beta                  91.329017
_cell_angle_gamma                 92.592264
_cell_volume                      1142.67461574

loop_
_atom_site_label
_atom_site_type_symbol
_atom_type_description
_atom_site_fract_x
_atom_site_fract_y
_atom_site_fract_z
_atom_type_partial_charge
C1    C     C_R   0.497682 0.262929 0.499322 0.540948
C2    C     C_R   0.935863 0.714224 0.948796 0.052153
C3    C     C_R   0.885145 0.627452 0.040610 -0.072572
C4    C     C_R   0.262570 0.501258 0.498066 0.526910
C5    C     C_R   0.839700 0.510668 0.992936 -0.132673
C6    C     C_R   0.850047 0.476780 0.854252 -0.075736
C7    C     C_R   0.900403 0.562059 0.761076 0.027297
C8    C     C_R   0.300811 0.123053 0.631590 -0.113043
C9    C     C_R   0.209925 0.055251 0.699296 -0.130535
C10   C     C_R   0.211542 0.926478 0.702339 -0.134498
C11   C     C_R   0.302982 0.864200 0.637378 -0.111961
C12   C     C_R   0.218320 0.570058 0.978729 -0.103493
C13   C     C_R   0.397533 0.931074 0.570187 0.027297
C14   C     C_R   0.396714 0.062313 0.567865 0.024791
C15   C     C_R   0.489944 0.128863 0.498082 0.001559
C16   C     C_R   0.497571 0.737043 0.500553 0.523182
C17   C     C_R   0.579046 0.067102 0.427672 -0.155823
C18   C     C_R   0.579771 0.938972 0.429840 -0.158157
C19   C     C_R   0.491061 0.870835 0.501584 0.004027
C20   C     C_R   0.627117 0.693123 0.146417 -0.085607
C21   C     C_R   0.665867 0.799951 0.077466 -0.165194
C22   C     C_R   0.663303 0.800054 0.934257 -0.149066
C23   C     C_R   0.930996 0.488448 0.378000 -0.163468
C24   C     C_R   0.625411 0.692601 0.862615 -0.062072
C25   C     C_R   0.559844 0.595716 0.928038 0.147760
C26   C     C_R   0.560152 0.595807 0.076688 0.151862
C27   C     C_R   0.445460 0.406364 0.071204 0.004297
C28   C     C_R   0.737726 0.501384 0.501823 0.533294
C29   C     C_R   0.445794 0.406207 0.923704 -0.014061
C30   C     C_R   0.230321 0.658892 0.084521 -0.099693
C31   C     C_R   0.173835 0.637368 0.210181 -0.052128
C32   C     C_R   0.111488 0.522900 0.234015 0.056370
C33   C     C_R   0.101665 0.432681 0.128186 -0.091068
C34   C     C_R   0.872040 0.501537 0.504366 -0.006144
C35   C     C_R   0.154149 0.456885 0.000289 -0.115986
C36   C     C_3   0.998028 0.834032 0.003353 -0.272917
C37   C     C_3   0.945988 0.951802 0.943637 -0.452890
C38   C     C_R   0.944336 0.519470 0.626541 -0.026999
C39   C     C_R   0.069973 0.511386 0.620096 -0.161583
C40   C     C_R   0.128555 0.503307 0.494477 -0.013498
C41   C     C_R   0.057730 0.499627 0.370543 -0.032389
C42   C     C_R   0.939891 0.681454 0.808218 -0.101670
Cu1   Cu    Cu3+1 0.499990 0.499990 0.640660 0.898841
Cu2   Cu    Cu3+1 0.500010 0.500010 0.359340 0.923789
H1    H     H_    0.261242 0.588563 0.881190 0.133619
H2    H     H_    0.651656 0.892744 0.378020 0.101388
H3    H     H_    0.398904 0.330388 0.123475 0.122388
H4    H     H_    0.281987 0.745273 0.068382 0.106048
H5    H     H_    0.659915 0.685795 0.250756 0.167937
H6    H     H_    0.710033 0.877001 0.134453 0.108036
H7    H     H_    0.703083 0.877607 0.878547 0.121865
H8    H     H_    0.657522 0.684461 0.759655 0.182284
H9    H     H_    0.399351 0.330108 0.867323 0.117021
H10   H     H_    0.181703 0.708228 0.290685 0.098584
H11   H     H_    0.053527 0.344311 0.144661 0.094369
H12   H     H_    0.881213 0.650731 0.149358 0.099013
H13   H     H_    0.146544 0.387228 0.918683 0.095149
H14   H     H_    0.878032 0.476485 0.283341 0.125618
H15   H     H_    0.123032 0.520081 0.715028 0.132710
H16   H     H_    0.981601 0.744940 0.735826 0.095238
H17   H     H_    0.926782 0.942429 0.830699 0.143009
H18   H     H_    0.862254 0.975193 0.997676 0.142699
H19   H     H_    0.013054 0.030972 0.961098 0.130790
H20   H     H_    0.994090 0.839536 0.118076 0.134036
H21   H     H_    0.095544 0.833842 0.977656 0.138447
H22   H     H_    0.799678 0.444554 0.064004 0.107164
H23   H     H_    0.823121 0.383087 0.820678 0.121470
H24   H     H_    0.650127 0.118596 0.373739 0.120469
H25   H     H_    0.293589 0.222732 0.628041 0.130215
H26   H     H_    0.137251 0.102734 0.748127 0.104047
H27   H     H_    0.140913 0.874444 0.753789 0.107075
H28   H     H_    0.297311 0.763830 0.639175 0.137803
N1    N     N_R   0.501190 0.501210 0.147910 -0.243167
N2    N     N_R   0.501230 0.501290 0.852040 -0.255341
O1    O     O_R   0.499990 0.319640 0.618810 -0.507372
O2    O     O_R   0.500000 0.319660 0.381240 -0.503567
O3    O     O_R   0.319640 0.500000 0.618780 -0.531932
O4    O     O_R   0.319650 0.500020 0.381210 -0.481291
O5    O     O_R   0.500000 0.680340 0.618760 -0.531567
O6    O     O_R   0.500010 0.680360 0.381190 -0.515791
O7    O     O_R   0.680350 0.499980 0.618790 -0.507626
O8    O     O_R   0.680360 0.500000 0.381220 -0.530293

loop_
_geom_bond_atom_site_label_1
_geom_bond_atom_site_label_2
_ccdc_geom_bond_type
C33   H11   S    
C23   H14   S    
C24   H8    S    
C27   C29   A    
C36   H20   S    
C37   H18   S    
C8    H25   S    
C29   H9    S    
C5    C6    A    
C30   H4    S    
C36   C37   S    
C25   N2    A    
Cu2   O8    S    
C30   C31   A    
Cu1   O5    S    
C26   N1    A    
C2    C36   S    
C18   C19   A    
C7    C42   A    
Cu2   O2    S    
C4    C40   S    
C8    C9    A    
C32   C41   S    
C1    C15   S    
C9    C10   A    
C10   H27   S    
Cu1   N2    S    
C28   C34   S    
C34   C38   A    
C13   C14   A    
C18   H2    S    
C21   H6    S    
C37   H19   S    
Cu1   O1    S    
C13   C19   A    
C28   O8    A    
C1    O1    A    
Cu2   O6    S    
C9    H26   S    
C42   H16   S    
C39   C40   A    
C11   H28   S    
C12   H1    S    
C29   N2    A    
C25   C26   A    
C16   O6    A    
Cu1   Cu2   S    
C4    O4    A    
C20   H5    S    
C3    H12   S    
C31   C32   A    
C23   C34   A    
C39   H15   S    
C17   C18   A    
C24   C25   A    
C12   C35   A    
C6    H23   S    
Cu1   O7    S    
C22   C24   A    
C27   H3    S    
C15   C17   A    
C40   C41   A    
C17   H24   S    
C8    C14   A    
C12   C30   A    
C28   O7    A    
C36   H21   S    
C1    O2    A    
C5    H22   S    
C3    C5    A    
C37   H17   S    
C6    C7    A    
Cu1   O3    S    
C23   C41   A    
C35   H13   S    
C16   O5    A    
C32   C33   A    
Cu2   O4    S    
C2    C3    A    
C4    O3    A    
C27   N1    A    
C11   C13   A    
C38   C39   A    
C20   C26   A    
C2    C42   A    
C16   C19   S    
C33   C35   A    
C7    C38   S    
C31   H10   S    
Cu2   N1    S    
C10   C11   A    
C20   C21   A    
C14   C15   A    
C21   C22   A    
C22   H7    S    
