data_mof_unit_12296.cif
_audit_creation_date              2012-12-10T17:32:22-0500
_audit_creation_method            fapswitch 2.2
_symmetry_space_group_name_H-M    P1
_symmetry_Int_Tables_number       1
_space_group_crystal_system       triclinic
_cell_length_a                    15.384787
_cell_length_b                    15.645064
_cell_length_c                    15.456218
_cell_angle_alpha                 91.23659
_cell_angle_beta                  72.93178
_cell_angle_gamma                 111.773293
_cell_volume                      3286.67241217

loop_
_atom_site_label
_atom_site_type_symbol
_atom_type_description
_atom_site_fract_x
_atom_site_fract_y
_atom_site_fract_z
_atom_type_partial_charge
C1    C     C_R   0.463658 0.258926 0.465175 0.503603
C2    C     C_R   0.520289 0.509393 0.115973 -0.126636
C3    C     C_R   0.631093 0.663454 0.122394 -0.108608
C4    C     C_R   0.532201 0.740640 0.538104 0.485494
C5    C     C_R   0.430687 0.425232 0.838865 0.024581
C6    C     C_R   0.401721 0.032612 0.365916 0.000593
C7    C     C_R   0.449372 0.163056 0.453224 0.038001
C8    C     C_R   0.618465 0.889464 0.590806 -0.134239
C9    C     C_R   0.646001 0.984537 0.591034 -0.153519
C10   C     C_R   0.599031 0.029208 0.555721 -0.121138
C11   C     C_R   0.517652 0.978574 0.525794 0.028444
C12   C     C_R   0.400890 0.303210 0.950152 -0.147030
C13   C     C_R   0.490312 0.881979 0.524156 0.010406
C14   C     C_R   0.468094 0.022793 0.489994 0.017001
C15   C     C_R   0.417310 0.977187 0.427664 0.061805
C16   C     C_R   0.757041 0.553205 0.463750 0.497269
C17   C     C_R   0.382578 0.878956 0.433999 -0.008427
C18   C     C_R   0.411210 0.833725 0.490952 -0.108331
C19   C     C_R   0.468180 0.110886 0.512735 -0.024917
C20   C     C_R   0.421907 0.125923 0.378360 -0.126666
C21   C     C_R   0.543912 0.837426 0.554041 0.017864
C22   C     C_R   0.003569 0.693083 0.486012 -0.110496
C23   C     C_R   0.443219 0.368908 0.002951 -0.115787
C24   C     C_R   0.861086 0.578935 0.455452 0.041299
C25   C     C_R   0.080936 0.323421 0.534143 -0.005270
C26   C     C_R   0.979357 0.295206 0.543202 0.037294
C27   C     C_R   0.937091 0.362559 0.550425 0.010917
C28   C     C_R   0.242589 0.447894 0.534574 0.488789
C29   C     C_R   0.999584 0.457785 0.532660 0.029938
C30   C     C_R   0.094386 0.484318 0.542895 0.002241
C31   C     C_R   0.971577 0.528379 0.506696 0.028991
C32   C     C_R   0.028378 0.622256 0.511858 0.036798
C33   C     C_R   0.109857 0.644717 0.542694 -0.150108
C34   C     C_R   0.474526 0.464879 0.977850 0.015858
C35   C     C_R   0.144019 0.577191 0.555925 -0.120569
C36   C     C_R   0.891683 0.509035 0.472068 -0.147581
C37   C     C_R   0.919656 0.672354 0.458800 0.002865
C38   C     C_R   0.136853 0.417815 0.540787 0.016420
C39   C     C_R   0.552114 0.552396 0.259277 0.494052
C40   C     C_R   0.449035 0.449974 0.742235 0.497367
C41   C     C_R   0.634379 0.690781 0.035393 0.006985
C42   C     C_R   0.571248 0.574631 0.163297 0.026096
C43   C     C_R   0.395929 0.330948 0.867935 -0.130870
C44   C     C_3   0.309059 0.818731 0.389323 -0.399771
C45   C     C_R   0.461638 0.492965 0.897783 0.029467
C46   C     C_3   0.374538 0.000006 0.281275 -0.401850
C47   C     C_3   0.475933 0.145357 0.603899 -0.399570
C48   C     C_3   0.892760 0.750232 0.434788 -0.392616
C49   C     C_3   0.569744 0.757614 0.890741 -0.394280
C50   C     C_3   0.129925 0.253518 0.518888 -0.366623
C51   C     C_3   0.826900 0.333169 0.594320 -0.410710
C52   C     C_3   0.916642 0.193472 0.545479 -0.397781
C53   C     C_3   0.714334 0.782450 0.990842 -0.404382
C54   C     C_3   0.417138 0.612832 0.831787 -0.375382
C55   C     C_R   0.521458 0.533287 0.028458 -0.001813
C56   C     C_R   0.569106 0.628204 0.991674 0.056968
C57   C     C_R   0.542099 0.656127 0.919083 0.020524
C58   C     C_R   0.478624 0.587326 0.879919 0.028863
H1    H     H_    0.473745 0.442086 0.152168 0.098214
H2    H     H_    0.472204 0.091522 0.651863 0.127520
H3    H     H_    0.544869 0.207136 0.594112 0.119132
H4    H     H_    0.659687 0.857450 0.614868 0.131663
H5    H     H_    0.629197 0.103928 0.549567 0.115602
H6    H     H_    0.706773 0.024283 0.615552 0.108121
H7    H     H_    0.371365 0.760271 0.507361 0.148534
H8    H     H_    0.825194 0.749747 0.486772 0.161473
H9    H     H_    0.952241 0.818771 0.431030 0.112263
H10   H     H_    0.880225 0.742625 0.367362 0.122682
H11   H     H_    0.150062 0.715534 0.552692 0.104755
H12   H     H_    0.674247 0.712082 0.159428 0.104812
H13   H     H_    0.048337 0.764623 0.489391 0.099619
H14   H     H_    0.534807 0.770317 0.841987 0.123255
H15   H     H_    0.547093 0.792961 0.951242 0.129508
H16   H     H_    0.649373 0.791072 0.854510 0.126907
H17   H     H_    0.849334 0.439479 0.461570 0.121134
H18   H     H_    0.086333 0.186758 0.499155 0.109146
H19   H     H_    0.200261 0.281235 0.462484 0.133578
H20   H     H_    0.143988 0.238223 0.582105 0.162164
H21   H     H_    0.806187 0.392157 0.619100 0.138489
H22   H     H_    0.786585 0.298887 0.546172 0.118166
H23   H     H_    0.284908 0.744175 0.410578 0.139204
H24   H     H_    0.801975 0.284327 0.655806 0.133331
H25   H     H_    0.943296 0.167448 0.479602 0.128703
H26   H     H_    0.920049 0.153121 0.601765 0.125406
H27   H     H_    0.838279 0.179041 0.554961 0.122212
H28   H     H_    0.209513 0.598839 0.576874 0.127324
H29   H     H_    0.684448 0.837190 0.993441 0.127293
H30   H     H_    0.771139 0.806613 0.026357 0.122919
H31   H     H_    0.753689 0.774975 0.920213 0.135337
H32   H     H_    0.370587 0.278397 0.824346 0.129180
H33   H     H_    0.453609 0.342222 0.061234 0.104583
H34   H     H_    0.242401 0.835725 0.408441 0.123045
H35   H     H_    0.377302 0.230312 0.970469 0.112669
H36   H     H_    0.381297 0.656072 0.873974 0.115730
H37   H     H_    0.463524 0.651305 0.764270 0.159461
H38   H     H_    0.355571 0.551611 0.823020 0.118414
H39   H     H_    0.412089 0.169668 0.331529 0.105389
H40   H     H_    0.342396 0.825301 0.314701 0.138532
H41   H     H_    0.424010 0.966755 0.241690 0.136451
H42   H     H_    0.296152 0.953267 0.298495 0.127472
H43   H     H_    0.384062 0.058472 0.235109 0.118524
H44   H     H_    0.412300 0.164255 0.638305 0.156618
O1    O     O_3   0.500000 0.500000 0.500000 -0.430088
O2    O     O_R   0.588830 0.499590 0.285390 -0.540449
O3    O     O_R   0.395900 0.395880 0.699370 -0.552041
O4    O     O_R   0.493280 0.582590 0.315890 -0.534769
O5    O     O_R   0.521980 0.521940 0.699340 -0.534098
O6    O     O_R   0.708210 0.582550 0.530770 -0.542151
O7    O     O_R   0.270260 0.395900 0.573760 -0.549900
O8    O     O_R   0.537060 0.322180 0.411040 -0.535753
O9    O     O_R   0.484470 0.699370 0.484430 -0.553480
O10   O     O_R   0.404710 0.279110 0.530840 -0.556446
O11   O     O_R   0.573760 0.699350 0.573690 -0.560678
O12   O     O_R   0.714470 0.499570 0.411000 -0.539035
O13   O     O_R   0.307050 0.521980 0.484470 -0.546694
Zn1   Zn    Zn3+2 0.574690 0.574670 0.574650 0.917682
Zn2   Zn    Zn3+2 0.583640 0.456100 0.403530 0.933347
Zn3   Zn    Zn3+2 0.447120 0.574690 0.447120 0.919023
Zn4   Zn    Zn3+2 0.394550 0.394550 0.574700 0.909170

loop_
_geom_bond_atom_site_label_1
_geom_bond_atom_site_label_2
_ccdc_geom_bond_type
C39   O4    A    
C55   C56   A    
C3    C42   A    
C27   C29   A    
C9    H6    S    
C10   H5    S    
C46   H41   S    
C39   O2    A    
C18   H7    S    
C12   C23   A    
C26   C27   A    
C24   C36   A    
C22   C32   A    
C13   C18   A    
O9    Zn3   S    
C52   H27   S    
C28   O13   A    
C12   C43   A    
C26   C52   S    
C2    C55   A    
C31   C36   A    
C1    O10   A    
C1    O8    A    
C35   H28   S    
C19   C47   S    
C49   C57   S    
C56   C57   A    
C30   C38   A    
C52   H26   S    
C51   H22   S    
C6    C15   A    
C25   C50   S    
C44   H40   S    
C20   H39   S    
C8    C9    A    
C49   H14   S    
C9    C10   A    
C54   H38   S    
C44   H34   S    
C33   H11   S    
O11   Zn1   S    
C23   C34   A    
C5    C43   A    
C34   C55   A    
C16   C24   S    
C47   H44   S    
C1    C7    S    
O4    Zn3   S    
O1    Zn2   S    
C50   H20   S    
O8    Zn2   S    
C27   C51   S    
C24   C37   A    
C39   C42   S    
C46   H43   S    
C45   C58   A    
C43   H32   S    
C4    O11   A    
C3    H12   S    
C44   H23   S    
C11   C14   A    
C2    H1    S    
C25   C26   A    
C22   C37   A    
C5    C45   A    
C16   O12   A    
C52   H25   S    
C41   C56   A    
C29   C30   A    
C36   H17   S    
C50   H18   S    
C25   C38   A    
C31   C32   A    
C28   C38   S    
O13   Zn3   S    
C17   C18   A    
C13   C21   A    
C53   H29   S    
C34   C45   A    
C48   H10   S    
C37   C48   S    
C51   H24   S    
C41   C53   S    
C54   H37   S    
C40   O5    A    
C30   C35   A    
C4    O9    A    
C7    C19   A    
C53   H31   S    
C49   H15   S    
C12   H35   S    
O1    Zn3   S    
C50   H19   S    
C22   H13   S    
C47   H2    S    
O7    Zn4   S    
O2    Zn2   S    
C54   C58   S    
C15   C17   A    
C46   H42   S    
C3    C41   A    
C6    C46   S    
C49   H16   S    
C14   C19   A    
O1    Zn4   S    
C8    C21   A    
C47   H3    S    
O10   Zn4   S    
C28   O7    A    
C6    C20   A    
C32   C33   A    
O6    Zn1   S    
O1    Zn1   S    
C17   C44   S    
C29   C31   A    
C4    C21   S    
C11   C13   A    
C57   C58   A    
C2    C42   A    
C33   C35   A    
C53   H30   S    
C23   H33   S    
C48   H9    S    
C51   H21   S    
O5    Zn1   S    
C54   H36   S    
O12   Zn2   S    
C10   C11   A    
C16   O6    A    
C7    C20   A    
C5    C40   S    
C14   C15   A    
O3    Zn4   S    
C48   H8    S    
C8    H4    S    
C40   O3    A    
