data_mof_unit_47443.cif
_audit_creation_date              2012-12-10T17:47:14-0500
_audit_creation_method            fapswitch 2.2
_symmetry_space_group_name_H-M    P1
_symmetry_Int_Tables_number       1
_space_group_crystal_system       triclinic
_cell_length_a                    11.654738
_cell_length_b                    14.86738
_cell_length_c                    14.550434
_cell_angle_alpha                 64.777682
_cell_angle_beta                  104.599826
_cell_angle_gamma                 101.961397
_cell_volume                      2192.81161268

loop_
_atom_site_label
_atom_site_type_symbol
_atom_type_description
_atom_site_fract_x
_atom_site_fract_y
_atom_site_fract_z
_atom_type_partial_charge
C1    C     C_R   0.480854 0.119348 0.310913 0.782851
C2    C     C_R   0.516579 0.880663 0.689072 0.823963
C3    C     C_R   0.444862 0.327083 0.992830 0.036865
C4    C     C_R   0.550215 0.673440 0.007654 0.032925
C5    C     C_R   0.513503 0.465121 0.051973 -0.005102
C6    C     C_R   0.475490 0.535058 0.949566 -0.027819
C7    C     C_R   0.409020 0.497438 0.873627 -0.034228
C8    C     C_R   0.580266 0.502374 0.128020 -0.018877
C9    C     C_R   0.405658 0.396576 0.893349 -0.213914
C10   C     C_R   0.585330 0.603523 0.107828 -0.289304
C11   C     C_R   0.740965 0.311917 0.607984 -0.357239
C12   C     C_R   0.287983 0.711842 0.340092 -0.355511
C13   C     C_R   0.692058 0.217647 0.608245 0.639512
C14   C     C_R   0.319132 0.791327 0.372622 0.630967
C15   C     C_R   0.500151 0.275480 0.533828 0.138889
C16   C     C_R   0.496294 0.719152 0.479511 0.018691
C17   C     C_R   0.549530 0.375683 0.520230 -0.036432
C18   C     C_R   0.458474 0.629242 0.459938 -0.096187
C19   C     C_R   0.669744 0.389692 0.566400 -0.029494
C20   C     C_R   0.356709 0.631438 0.382216 -0.039987
C21   C     C_R   0.484053 0.461618 0.471230 -0.050416
C22   C     C_R   0.523027 0.542307 0.505619 -0.109096
C23   C     C_R   0.284525 0.000295 0.500112 0.824096
C24   C     C_R   0.715533 0.999538 0.500185 0.838208
C25   C     C_R   0.626880 0.531530 0.584206 0.391485
C26   C     C_R   0.389275 0.471344 0.385373 0.426617
C27   C     C_R   0.712648 0.477049 0.583755 0.297578
C28   C     C_R   0.329533 0.558848 0.339120 0.321060
C29   C     C_1   0.162973 0.000570 0.500637 -0.176439
C30   C     C_1   0.837201 0.998947 0.500273 -0.108300
C31   C     C_1   0.060210 0.000125 0.500681 0.003433
C32   C     C_1   0.940029 0.999293 0.500484 0.027041
C33   C     C_R   0.470570 0.186950 0.199500 -0.147978
C34   C     C_R   0.522313 0.812965 0.800440 -0.151776
C35   C     C_R   0.434643 0.223405 0.014352 -0.069094
C36   C     C_R   0.562378 0.777243 0.985424 -0.066479
C37   C     C_R   0.451273 0.153214 0.118515 -0.096032
C38   C     C_R   0.539691 0.846507 0.881342 -0.122780
C39   C     C_R   0.482810 0.289759 0.174889 -0.193930
C40   C     C_R   0.509053 0.710073 0.825533 -0.180590
C41   C     C_R   0.483996 0.360769 0.074022 0.101249
C42   C     C_R   0.507664 0.639413 0.926794 0.096243
Cu1   Cu    Cu3+1 0.469550 0.918260 0.475690 1.036870
Cu2   Cu    Cu3+1 0.530450 0.081740 0.524310 1.041286
H1    H     H_    0.360603 0.371044 0.832494 0.200326
H2    H     H_    0.627540 0.628225 0.169626 0.196755
H3    H     H_    0.503787 0.684925 0.765069 0.195240
H4    H     H_    0.487864 0.314763 0.235495 0.186567
H5    H     H_    0.833261 0.323729 0.642950 0.182928
H6    H     H_    0.210744 0.714289 0.279812 0.204655
N1    N     N_R   0.576230 0.204580 0.560790 -0.234479
N2    N     N_R   0.423770 0.795420 0.439210 -0.252683
O1    O     O_R   0.459870 0.022090 0.338120 -0.538584
O2    O     O_R   0.540130 0.977910 0.661880 -0.534718
O3    O     O_R   0.511290 0.160150 0.379180 -0.579834
O4    O     O_R   0.488710 0.839850 0.620820 -0.555487
O5    O     O_R   0.311490 0.930960 0.479480 -0.552523
O6    O     O_R   0.688510 0.069040 0.520520 -0.529939
O7    O     O_R   0.362910 0.069020 0.520540 -0.560272
O8    O     O_R   0.637090 0.930980 0.479460 -0.562141
O9    O     O_3   0.625499 0.553546 0.668692 -0.560712
C43   C     C_3   0.729818 0.533903 0.746230 0.179974
H7    H     H_    0.807465 0.586325 0.715863 0.207240
H8    H     H_    0.746640 0.454412 0.775840 0.172236
C44   C     C_3   0.715923 0.550968 0.838220 -0.773906
H9    H     H_    0.643728 0.496532 0.874659 0.259281
H10   H     H_    0.800001 0.539126 0.896337 0.209888
H11   H     H_    0.696704 0.628612 0.813722 0.265516
O10   O     O_3   0.370716 0.401208 0.340783 -0.599948
C45   C     C_3   0.248876 0.377599 0.302071 0.154614
H12   H     H_    0.226931 0.425485 0.218557 0.183160
H13   H     H_    0.186869 0.385915 0.344405 0.192700
C46   C     C_3   0.226547 0.270073 0.310549 -0.802940
H14   H     H_    0.132310 0.253577 0.276114 0.208805
H15   H     H_    0.285454 0.258217 0.268681 0.238526
H16   H     H_    0.242743 0.217598 0.392487 0.261664
C47   C     C_2   0.528428 0.951257 0.859257 0.934244
O11   O     O_2   0.434443 0.985290 0.811082 -0.551567
O12   O     O_R   0.621686 0.008791 0.898220 -0.756830
H17   H     H_    0.601331 0.078269 0.879577 0.354883
C48   C     C_2   0.452303 0.046322 0.141604 0.954332
O13   O     O_2   0.547031 0.010356 0.173983 -0.569200
O14   O     O_R   0.345039 0.986768 0.127988 -0.690161
H18   H     H_    0.357135 0.914985 0.146852 0.354422
C49   C     C_2   0.411960 0.188988 0.928427 0.831214
O15   O     O_2   0.473747 0.227525 0.861715 -0.593033
O16   O     O_R   0.319266 0.113867 0.923087 -0.717673
H19   H     H_    0.312440 0.097687 0.860814 0.361599
C50   C     C_2   0.594166 0.813540 0.070237 0.857047
O17   O     O_2   0.520895 0.851307 0.085440 -0.593267
O18   O     O_R   0.708620 0.806474 0.130816 -0.764095
H20   H     H_    0.719500 0.833916 0.185794 0.340345
C51   C     C_2   0.332822 0.557159 0.776340 0.831148
O19   O     O_2   0.270894 0.614194 0.776498 -0.600392
O20   O     O_R   0.331644 0.547486 0.684600 -0.734020
H21   H     H_    0.281133 0.595375 0.622546 0.328989
C52   C     C_2   0.660353 0.442906 0.223112 0.845974
O21   O     O_2   0.672044 0.454996 0.303206 -0.615469
O22   O     O_R   0.725133 0.375138 0.220113 -0.752082
H22   H     H_    0.776190 0.339148 0.289479 0.335794
O23   O     O_3   0.832773 0.497013 0.619763 -0.622124
C53   C     C_3   0.890728 0.545517 0.533963 0.063822
H23   H     H_    0.855388 0.618084 0.481319 0.177651
H24   H     H_    0.879748 0.497661 0.489925 0.178761
C54   C     C_3   0.023352 0.566564 0.571988 -0.746792
H25   H     H_    0.060656 0.495509 0.626111 0.264079
H26   H     H_    0.070576 0.601999 0.505431 0.188249
H27   H     H_    0.038060 0.617795 0.612467 0.267844
O24   O     O_3   0.247836 0.577184 0.247402 -0.611087
C55   C     C_3   0.310122 0.629455 0.164399 0.011190
H28   H     H_    0.372349 0.581936 0.164562 0.173783
H29   H     H_    0.361157 0.700172 0.168547 0.186759
C56   C     C_3   0.221694 0.656230 0.062667 -0.715325
H30   H     H_    0.158969 0.704892 0.059483 0.251560
H31   H     H_    0.270436 0.696904 0.997241 0.227074
H32   H     H_    0.170320 0.587198 0.055023 0.241581
C57   C     C_2   0.622418 0.740335 0.523810 0.987412
O25   O     O_2   0.648779 0.747077 0.607455 -0.540037
O26   O     O_R   0.713300 0.752232 0.471188 -0.775015
H33   H     H_    0.681854 0.746505 0.402064 0.275321
C58   C     C_2   0.382411 0.240000 0.567775 0.868587
O27   O     O_2   0.303508 0.294626 0.534821 -0.624184
O28   O     O_R   0.366773 0.146658 0.647883 -0.686065
H34   H     H_    0.284599 0.131096 0.666426 0.336267
O29   O     O_3   0.256275 0.874251 0.325246 -0.540721
C59   C     C_3   0.131633 0.848128 0.322359 0.037018
H35   H     H_    0.102320 0.888099 0.360241 0.183005
H36   H     H_    0.103631 0.767116 0.364564 0.111615
C60   C     C_3   0.065904 0.883244 0.210526 -0.724364
H37   H     H_    0.092895 0.845675 0.169041 0.244756
H38   H     H_    0.968160 0.865272 0.208312 0.226078
H39   H     H_    0.086812 0.965457 0.170540 0.269564
O30   O     O_3   0.759325 0.137355 0.652769 -0.555898
C61   C     C_3   0.832433 0.130195 0.748709 0.020225
H40   H     H_    0.786162 0.147566 0.796513 0.168143
H41   H     H_    0.916555 0.181300 0.736102 0.152154
C62   C     C_3   0.865811 0.023923 0.808183 -0.662458
H42   H     H_    0.918011 0.006604 0.764717 0.231976
H43   H     H_    0.920652 0.016085 0.885084 0.217593
H44   H     H_    0.784139 0.969577 0.819166 0.255070

loop_
_geom_bond_atom_site_label_1
_geom_bond_atom_site_label_2
_ccdc_geom_bond_type
C36   C50   S    
C40   H3    S    
O16   H19   S    
C4    C36   A    
C9    H1    S    
C51   O19   D    
C11   C13   A    
C46   H14   S    
O20   H21   S    
C21   C26   A    
C61   C62   S    
C48   O13   D    
C1    C33   S    
O28   H34   S    
C39   C41   A    
C47   O11   D    
C23   O7    A    
C54   H26   S    
C11   C19   A    
C59   H35   S    
C14   O29   S    
C34   C40   A    
C23   C29   S    
C35   C37   A    
C56   H30   S    
C57   O26   S    
C5    C6    A    
Cu1   N2    S    
Cu2   O7    S    
C53   C54   S    
C15   C17   A    
C1    O1    A    
C55   H28   S    
C43   H8    S    
C52   O22   S    
C13   N1    A    
C33   C39   A    
Cu1   O1    S    
C14   N2    A    
O22   H22   S    
Cu2   O6    S    
C44   H10   S    
C22   C25   A    
C10   H2    S    
C45   H12   S    
C15   N1    A    
C50   O18   S    
C19   C27   A    
C60   H39   S    
C2    C34   S    
C40   C42   A    
C24   O6    A    
C51   O20   S    
C34   C38   A    
C21   C22   A    
C46   H15   S    
C37   C48   S    
O9    C43   S    
C48   O14   S    
C52   O21   D    
C24   C30   S    
C47   O12   S    
C7    C51   S    
C62   H44   S    
C49   O16   S    
C53   H23   S    
O23   C53   S    
C2    O2    A    
C16   C57   S    
O18   H20   S    
C61   H41   S    
C20   C28   A    
C59   C60   S    
C49   O15   D    
C27   O23   S    
C33   C37   A    
C8    C52   S    
C43   H7    S    
C11   H5    S    
C62   H43   S    
O14   H18   S    
C3    C35   A    
C24   O8    A    
C44   H11   S    
C12   C20   A    
C45   C46   S    
C25   O9    S    
C54   H27   S    
C53   H24   S    
C3    C9    A    
C55   C56   S    
C58   O27   D    
C61   H40   S    
Cu1   O8    S    
C23   O5    A    
Cu2   N1    S    
C8    C10   A    
C12   C14   A    
Cu1   Cu2   S    
O30   C61   S    
C46   H16   S    
C4    C10   A    
C60   H37   S    
C62   H42   S    
C7    C9    A    
C5    C41   A    
C3    C41   A    
C59   H36   S    
C15   C58   S    
C43   C44   S    
C18   C22   A    
C13   O30   S    
C31   C32   S    
C16   N2    A    
C5    C8    A    
C12   H6    S    
O26   H33   S    
C6    C7    A    
C38   C47   S    
C28   O24   S    
C25   C27   A    
C54   H25   S    
C26   C28   A    
C56   H32   S    
C36   C38   A    
C1    O3    A    
C29   C31   T    
C2    O4    A    
C57   O25   D    
C30   C32   T    
C35   C49   S    
Cu2   O3    S    
O29   C59   S    
C4    C42   A    
C17   C19   A    
C18   C20   A    
O10   C45   S    
C55   H29   S    
C58   O28   S    
Cu1   O5    S    
O12   H17   S    
Cu2   O2    S    
Cu1   O4    S    
C16   C18   A    
C44   H9    S    
C6    C42   A    
C26   O10   S    
C45   H13   S    
C60   H38   S    
C50   O17   D    
O24   C55   S    
C39   H4    S    
C56   H31   S    
C17   C21   A    
