data_mof_unit_61557.cif
_audit_creation_date              2012-12-10T18:32:05-0500
_audit_creation_method            fapswitch 2.2
_symmetry_space_group_name_H-M    P1
_symmetry_Int_Tables_number       1
_space_group_crystal_system       triclinic
_cell_length_a                    18.402119
_cell_length_b                    18.581263
_cell_length_c                    51.417984
_cell_angle_alpha                 90.000232
_cell_angle_beta                  90.000343
_cell_angle_gamma                 89.951093
_cell_volume                      17581.5820494

loop_
_atom_site_label
_atom_site_type_symbol
_atom_type_description
_atom_site_fract_x
_atom_site_fract_y
_atom_site_fract_z
_atom_type_partial_charge
Br1   Br    Br    0.835263 0.704835 0.691450 0.014904
Br2   Br    Br    0.152893 0.710477 0.804981 0.008207
Br3   Br    Br    0.664692 0.795120 0.191452 0.014904
Br4   Br    Br    0.847111 0.289523 0.804981 0.008205
Br5   Br    Br    0.692641 0.212967 0.807379 0.011700
Br6   Br    Br    0.737623 0.642959 0.200311 0.012979
Br7   Br    Br    0.307362 0.787034 0.807379 0.011701
Br8   Br    Br    0.262375 0.357040 0.200311 0.012979
Br9   Br    Br    0.698842 0.574699 0.766787 0.024987
Br10  Br    Br    0.603049 0.272086 0.207135 0.043632
Br11  Br    Br    0.301158 0.425302 0.766786 0.024986
Br12  Br    Br    0.652930 0.210447 0.304989 0.008203
Br13  Br    Br    0.396950 0.727913 0.207135 0.043631
Br14  Br    Br    0.301060 0.599874 0.223658 0.029777
Br15  Br    Br    0.415969 0.310778 0.748671 0.014515
Br16  Br    Br    0.698939 0.400125 0.223658 0.029776
Br17  Br    Br    0.584031 0.689222 0.748671 0.014515
Br18  Br    Br    0.198835 0.074684 0.266765 0.024982
Br19  Br    Br    0.103082 0.772047 0.707116 0.043604
Br20  Br    Br    0.801166 0.925316 0.266765 0.024982
Br21  Br    Br    0.896917 0.227952 0.707115 0.043604
Br22  Br    Br    0.801049 0.099895 0.723641 0.029779
Br23  Br    Br    0.164735 0.295163 0.691450 0.014904
Br24  Br    Br    0.915966 0.810782 0.248647 0.014505
Br25  Br    Br    0.198949 0.900104 0.723641 0.029778
Br26  Br    Br    0.084033 0.189218 0.248647 0.014505
Br27  Br    Br    0.771610 0.667146 0.805541 0.017448
Br28  Br    Br    0.721700 0.176177 0.192078 0.001643
Br29  Br    Br    0.228392 0.332856 0.805541 0.017448
Br30  Br    Br    0.278298 0.823822 0.192078 0.001643
Br31  Br    Br    0.194294 0.675237 0.190904 0.014725
Br32  Br    Br    0.376628 0.252598 0.800590 0.038480
Br33  Br    Br    0.805703 0.324762 0.190904 0.014724
Br34  Br    Br    0.347072 0.789554 0.304989 0.008205
Br35  Br    Br    0.623374 0.747403 0.800590 0.038481
Br36  Br    Br    0.271568 0.167107 0.305535 0.017466
Br37  Br    Br    0.221752 0.676139 0.692080 0.001617
Br38  Br    Br    0.728435 0.832895 0.305535 0.017468
Br39  Br    Br    0.778246 0.323860 0.692080 0.001618
Br40  Br    Br    0.694254 0.175267 0.690903 0.014723
Br41  Br    Br    0.876670 0.752644 0.300576 0.038506
Br42  Br    Br    0.305743 0.824732 0.690903 0.014723
Br43  Br    Br    0.123332 0.247357 0.300576 0.038506
Br44  Br    Br    0.339912 0.159117 0.531957 0.027991
Br45  Br    Br    0.192601 0.713001 0.307379 0.011710
Br46  Br    Br    0.210035 0.414252 0.468896 0.032913
Br47  Br    Br    0.660068 0.840869 0.531959 0.027988
Br48  Br    Br    0.790006 0.585815 0.468896 0.032905
Br49  Br    Br    0.329098 0.148201 0.469674 0.028698
Br50  Br    Br    0.790185 0.585473 0.531191 0.030301
Br51  Br    Br    0.670877 0.851772 0.469675 0.028702
Br52  Br    Br    0.209824 0.414529 0.531191 0.030301
Br53  Br    Br    0.840063 0.659256 0.031960 0.027998
Br54  Br    Br    0.709772 0.913658 0.968893 0.032893
Br55  Br    Br    0.159896 0.340704 0.031963 0.027994
Br56  Br    Br    0.237660 0.142994 0.700300 0.012980
Br57  Br    Br    0.290226 0.086368 0.968893 0.032889
Br58  Br    Br    0.829238 0.648363 0.969677 0.028711
Br59  Br    Br    0.290430 0.086084 0.031190 0.030287
Br60  Br    Br    0.170722 0.351578 0.969680 0.028718
Br61  Br    Br    0.709572 0.913944 0.031190 0.030292
Br62  Br    Br    0.143187 0.561759 0.910566 0.005489
Br63  Br    Br    0.485994 0.846449 0.089222 0.002390
Br64  Br    Br    0.856814 0.438236 0.910565 0.005477
Br65  Br    Br    0.514001 0.153548 0.089222 0.002386
Br66  Br    Br    0.954927 0.351156 0.091321 0.010118
Br67  Br    Br    0.807401 0.287001 0.307379 0.011711
Br68  Br    Br    0.474400 0.847951 0.910675 0.004012
Br69  Br    Br    0.045067 0.648836 0.091319 0.010122
Br70  Br    Br    0.525596 0.152057 0.910674 0.004011
Br71  Br    Br    0.643182 0.061781 0.410564 0.005491
Br72  Br    Br    0.986268 0.346425 0.589222 0.002398
Br73  Br    Br    0.356818 0.938228 0.410564 0.005484
Br74  Br    Br    0.013736 0.653570 0.589222 0.002383
Br75  Br    Br    0.454981 0.851145 0.591319 0.010118
Br76  Br    Br    0.974539 0.347937 0.410677 0.004021
Br77  Br    Br    0.545014 0.148854 0.591319 0.010122
Br78  Br    Br    0.762338 0.857004 0.700300 0.012980
Br79  Br    Br    0.025479 0.652082 0.410673 0.004022
Br80  Br    Br    0.335305 0.204878 0.191452 0.014904
C1    C     C_R   1.000000 0.500000 0.679491 0.502649
C2    C     C_R   0.125980 0.455653 0.486297 0.053450
C3    C     C_3   0.722270 0.337932 0.753322 -0.088127
C4    C     C_3   0.660240 0.279118 0.748681 -0.094113
C5    C     C_3   0.727828 0.672086 0.264102 -0.097673
C6    C     C_3   0.339760 0.720882 0.748681 -0.094113
C7    C     C_3   0.272173 0.327914 0.264102 -0.097672
C8    C     C_3   0.765039 0.706807 0.720647 -0.039609
C9    C     C_3   0.683684 0.255030 0.271902 -0.041896
C10   C     C_3   0.234959 0.293192 0.720647 -0.039608
C11   C     C_3   0.316317 0.744970 0.271902 -0.041896
C12   C     C_3   0.247028 0.694056 0.275011 -0.037992
C13   C     C_R   0.598221 0.910451 0.514420 0.052827
C14   C     C_3   0.283139 0.221688 0.720595 -0.031572
C15   C     C_3   0.752973 0.305945 0.275011 -0.037992
C16   C     C_3   0.716860 0.778311 0.720595 -0.031572
C17   C     C_3   0.265062 0.206826 0.220644 -0.039600
C18   C     C_3   0.183670 0.755041 0.771894 -0.041891
C19   C     C_3   0.734937 0.793173 0.220644 -0.039600
C20   C     C_3   0.816331 0.244958 0.771894 -0.041891
C21   C     C_3   0.747046 0.194041 0.775006 -0.038002
C22   C     C_3   0.783118 0.721669 0.220594 -0.031568
C23   C     C_3   0.252955 0.805959 0.775006 -0.038001
C24   C     C_R   0.874044 0.544381 0.486297 0.053451
C25   C     C_3   0.216881 0.278330 0.220594 -0.031568
C26   C     C_3   0.734814 0.674837 0.769299 0.037068
C27   C     C_3   0.698781 0.240989 0.221378 0.033813
C28   C     C_3   0.265186 0.325164 0.769298 0.037067
C29   C     C_3   0.301218 0.759011 0.221378 0.033811
C30   C     C_3   0.248016 0.692118 0.223641 0.034758
C31   C     C_3   0.329967 0.269519 0.766146 0.039782
C32   C     C_3   0.751982 0.307881 0.223641 0.034756
C33   C     C_3   0.670033 0.730482 0.766146 0.039783
C34   C     C_3   0.234800 0.174821 0.269289 0.037067
C35   C     C_R   0.402919 0.090862 0.487064 0.053250
C36   C     C_3   0.198803 0.740967 0.721372 0.033780
C37   C     C_3   0.765201 0.825179 0.269289 0.037067
C38   C     C_3   0.801195 0.259032 0.721372 0.033779
C39   C     C_3   0.747999 0.192135 0.723636 0.034761
C40   C     C_3   0.829981 0.769534 0.266135 0.039780
C41   C     C_3   0.252000 0.807865 0.723636 0.034760
C42   C     C_3   0.170019 0.230466 0.266135 0.039781
C43   C     C_3   0.799213 0.696238 0.749329 -0.043010
C44   C     C_3   0.699007 0.198394 0.249001 -0.041145
C45   C     C_3   0.200787 0.303762 0.749329 -0.043010
C46   C     C_R   0.873988 0.544060 0.513638 0.052796
C47   C     C_3   0.300993 0.801606 0.249001 -0.041145
C48   C     C_3   0.197381 0.700481 0.249228 -0.041878
C49   C     C_3   0.301088 0.199339 0.750337 -0.047441
C50   C     C_3   0.802619 0.299519 0.249228 -0.041878
C51   C     C_3   0.698912 0.800661 0.750337 -0.047441
C52   C     C_3   0.299213 0.196237 0.249328 -0.043010
C53   C     C_3   0.199010 0.698390 0.748999 -0.041139
C54   C     C_3   0.700787 0.803763 0.249328 -0.043011
C55   C     C_3   0.800990 0.301609 0.748999 -0.041140
C56   C     C_3   0.697381 0.200482 0.749228 -0.041875
C57   C     C_R   0.597069 0.909129 0.487065 0.053251
C58   C     C_3   0.801090 0.699343 0.250337 -0.047443
C59   C     C_3   0.302619 0.799518 0.749228 -0.041875
C60   C     C_3   0.198910 0.300657 0.250337 -0.047443
C61   C     C_R   0.553686 0.964294 0.555624 0.420380
C62   C     C_R   0.936838 0.514097 0.445076 0.420183
C63   C     C_R   0.446308 0.035704 0.555624 0.420379
C64   C     C_R   0.063184 0.485932 0.445076 0.420186
C65   C     C_R   0.540419 0.949965 0.445783 0.420608
C66   C     C_R   0.063411 0.487120 0.554782 0.420300
C67   C     C_R   0.459581 0.050039 0.445783 0.420608
C68   C     C_R   0.126028 0.455957 0.513639 0.052794
C69   C     C_R   0.936596 0.512874 0.554781 0.420298
C70   C     C_R   0.053658 0.464251 0.055623 0.420379
C71   C     C_R   0.436856 0.014230 0.945077 0.420188
C72   C     C_R   0.946331 0.535735 0.055623 0.420378
C73   C     C_R   0.563138 0.985786 0.945077 0.420186
C74   C     C_R   0.040387 0.449933 0.945782 0.420608
C75   C     C_R   0.563369 0.986961 0.054780 0.420297
C76   C     C_R   0.959611 0.550057 0.945782 0.420607
C77   C     C_R   0.436621 0.013045 0.054780 0.420301
C78   C     C_R   0.448829 0.042634 0.528272 0.010352
C79   C     C_R   0.901844 0.589619 0.014420 0.052824
C80   C     C_R   0.064078 0.480468 0.472430 0.009968
C81   C     C_R   0.551163 0.957361 0.528272 0.010353
C82   C     C_R   0.935945 0.519563 0.472430 0.009969
C83   C     C_R   0.453211 0.047402 0.473158 0.010182
C84   C     C_R   0.935839 0.519038 0.527451 0.010236
C85   C     C_R   0.546783 0.952595 0.473158 0.010182
C86   C     C_R   0.064174 0.480970 0.527451 0.010239
C87   C     C_R   0.948862 0.542668 0.028271 0.010351
C88   C     C_R   0.564013 0.980301 0.972430 0.009974
C89   C     C_R   0.051123 0.457313 0.028272 0.010353
C90   C     C_R   0.625845 0.955309 0.986297 0.053452
C91   C     C_R   0.435980 0.019720 0.972430 0.009976
C92   C     C_R   0.953246 0.547432 0.973158 0.010181
C93   C     C_R   0.435881 0.019216 0.027450 0.010244
C94   C     C_R   0.046744 0.452549 0.973158 0.010180
C95   C     C_R   0.564110 0.980798 0.027450 0.010243
C96   C     C_R   0.499996 0.999998 0.514472 -0.070689
C97   C     C_R   0.000011 0.500013 0.486195 -0.071550
C98   C     C_R   0.499997 0.999999 0.486947 -0.070817
C99   C     C_R   0.000009 0.500008 0.513676 -0.071428
C100  C     C_R   0.999993 0.499990 0.014471 -0.070689
C101  C     C_R   0.098133 0.410353 0.014422 0.052822
C102  C     C_R   0.499996 0.000010 0.986195 -0.071551
C103  C     C_R   0.999995 0.499990 0.986947 -0.070819
C104  C     C_R   0.499995 0.000008 0.013675 -0.071430
C105  C     C_1   0.887753 0.797272 0.738656 0.254919
C106  C     C_1   0.783506 0.129152 0.279654 0.249824
C107  C     C_1   0.112246 0.202728 0.738656 0.254919
C108  C     C_1   0.216495 0.870849 0.279653 0.249825
C109  C     C_1   0.100674 0.788874 0.267946 0.250134
C110  C     C_1   0.205110 0.099715 0.755644 0.243268
C111  C     C_1   0.899327 0.211126 0.267946 0.250134
C112  C     C_R   0.500000 1.000000 0.320591 0.511090
C113  C     C_R   0.374150 0.044715 0.986296 0.053450
C114  C     C_1   0.794890 0.900285 0.755644 0.243268
C115  C     C_1   0.387758 0.297280 0.238673 0.254903
C116  C     C_1   0.283491 0.629170 0.779665 0.249824
C117  C     C_1   0.612241 0.702719 0.238673 0.254902
C118  C     C_1   0.716511 0.370830 0.779666 0.249825
C119  C     C_1   0.600682 0.288864 0.767961 0.250147
C120  C     C_1   0.705118 0.599721 0.255664 0.243247
C121  C     C_1   0.399319 0.711136 0.767960 0.250148
C122  C     C_1   0.294882 0.400279 0.255664 0.243247
C123  C     C_1   0.884749 0.762223 0.781285 0.226946
C124  C     C_R   0.902997 0.590940 0.987064 0.053255
C125  C     C_1   0.788967 0.098260 0.236495 0.214574
C126  C     C_1   0.115252 0.237778 0.781285 0.226946
C127  C     C_1   0.211032 0.901740 0.236495 0.214573
C128  C     C_1   0.119921 0.790818 0.224018 0.203476
C129  C     C_1   0.239287 0.159457 0.792291 0.214487
C130  C     C_1   0.880078 0.209181 0.224018 0.203477
C131  C     C_1   0.760715 0.840544 0.792291 0.214486
C132  C     C_1   0.384725 0.262199 0.281299 0.226942
C133  C     C_1   0.288982 0.598252 0.736511 0.214580
C134  C     C_1   0.615276 0.737802 0.281299 0.226942
C135  C     C_R   0.374101 0.044412 0.013638 0.052801
C136  C     C_1   0.711017 0.401747 0.736511 0.214581
C137  C     C_1   0.619902 0.290831 0.724032 0.203480
C138  C     C_1   0.739323 0.659494 0.292301 0.214493
C139  C     C_1   0.380097 0.709169 0.724031 0.203480
C140  C     C_1   0.260678 0.340507 0.292301 0.214494
C141  C     C_1   0.721904 0.643337 0.712717 0.211407
C142  C     C_1   0.616605 0.296912 0.266633 0.231475
C143  C     C_1   0.278094 0.356662 0.712717 0.211408
C144  C     C_1   0.383396 0.703088 0.266633 0.231475
C145  C     C_1   0.267689 0.618893 0.281255 0.234177
C146  C     C_R   0.096982 0.409030 0.987066 0.053255
C147  C     C_1   0.349744 0.229459 0.704474 0.232804
C148  C     C_1   0.732312 0.381107 0.281255 0.234177
C149  C     C_1   0.650254 0.770540 0.704474 0.232803
C150  C     C_1   0.221935 0.143358 0.212704 0.211405
C151  C     C_1   0.116594 0.796918 0.766615 0.231502
C152  C     C_1   0.778063 0.856641 0.212704 0.211405
C153  C     C_1   0.883407 0.203081 0.766615 0.231501
C154  C     C_1   0.767713 0.118876 0.781242 0.234178
C155  C     C_1   0.849709 0.729429 0.204465 0.232814
C156  C     C_1   0.232288 0.881124 0.781242 0.234178
C157  C     C_R   0.625895 0.955611 0.013638 0.052803
C158  C     C_1   0.150289 0.270570 0.204465 0.232815
C159  C     C_1   0.128265 0.545757 0.851212 0.266153
C160  C     C_1   0.490248 0.864633 0.148610 0.268513
C161  C     C_1   0.871733 0.454250 0.851211 0.266155
C162  C     C_1   0.509750 0.135365 0.148610 0.268514
C163  C     C_1   0.972495 0.369385 0.151216 0.240395
C164  C     C_1   0.477740 0.866120 0.851198 0.270817
C165  C     C_1   0.027503 0.630612 0.151215 0.240394
C166  C     C_1   0.522262 0.133882 0.851197 0.270818
C167  C     C_1   0.628277 0.045727 0.351211 0.266162
C168  C     C_R   0.061150 0.524567 0.891318 0.062434
C169  C     C_1   0.990454 0.364616 0.648610 0.268509
C170  C     C_1   0.371726 0.954269 0.351211 0.266162
C171  C     C_1   0.009541 0.635382 0.648610 0.268509
C172  C     C_1   0.472522 0.869381 0.651215 0.240377
C173  C     C_1   0.977811 0.366111 0.351199 0.270830
C174  C     C_1   0.527475 0.130619 0.651215 0.240377
C175  C     C_1   0.022197 0.633896 0.351196 0.270832
C176  C     C_R   0.494585 0.934866 0.108805 0.059756
C177  C     C_R   0.938851 0.475432 0.891317 0.062419
C178  C     C_R   0.505411 0.065131 0.108805 0.059754
C179  C     C_R   0.982559 0.436685 0.110180 0.068090
C180  C     C_R   0.000001 0.500000 0.320484 0.506225
C181  C     C_R   0.489362 0.935481 0.891085 0.060963
C182  C     C_R   0.017437 0.563308 0.110180 0.068095
C183  C     C_R   0.510636 0.064525 0.891084 0.060965
C184  C     C_R   0.561149 0.024571 0.391317 0.062433
C185  C     C_R   0.994697 0.434856 0.608806 0.059761
C186  C     C_R   0.438851 0.975435 0.391317 0.062424
C187  C     C_R   0.005306 0.565139 0.608806 0.059741
C188  C     C_R   0.482579 0.936683 0.610180 0.068089
C189  C     C_R   0.989417 0.435477 0.391085 0.060970
C190  C     C_R   0.517417 0.063316 0.610180 0.068092
C191  C     C_R   0.500000 0.000000 0.679771 0.516182
C192  C     C_R   0.010598 0.564537 0.391083 0.060971
C193  C     C_R   0.062236 0.523048 0.864009 -0.052606
C194  C     C_R   0.495008 0.934169 0.136058 -0.051670
C195  C     C_R   0.937764 0.476955 0.864009 -0.052605
C196  C     C_R   0.504989 0.065829 0.136059 -0.051670
C197  C     C_R   0.984406 0.436178 0.137462 -0.053075
C198  C     C_R   0.489320 0.934807 0.863835 -0.050799
C199  C     C_R   0.015592 0.563818 0.137461 -0.053076
C200  C     C_R   0.510679 0.065196 0.863834 -0.050798
C201  C     C_R   0.562240 0.023041 0.364009 -0.052608
C202  C     C_R   0.500000 1.000000 0.179491 0.502656
C203  C     C_R   0.995113 0.434160 0.636059 -0.051677
C204  C     C_R   0.437761 0.976961 0.364009 -0.052606
C205  C     C_R   0.004887 0.565837 0.636059 -0.051675
C206  C     C_R   0.484422 0.936176 0.637462 -0.053077
C207  C     C_R   0.989364 0.434804 0.363835 -0.050799
C208  C     C_R   0.515575 0.063824 0.637462 -0.053077
C209  C     C_R   0.010646 0.565205 0.363834 -0.050797
C210  C     C_R   0.000000 0.500001 0.849789 -0.030184
C211  C     C_R   0.499999 0.999999 0.150311 -0.031662
C212  C     C_R   0.999999 0.499999 0.151185 -0.015888
C213  C     C_R   0.000000 0.500000 0.820591 0.511089
C214  C     C_R   0.500000 0.000001 0.849620 -0.029074
C215  C     C_R   0.500000 0.000000 0.349789 -0.030186
C216  C     C_R   1.000000 0.499999 0.650312 -0.031664
C217  C     C_R   0.499999 1.000000 0.651185 -0.015884
C218  C     C_R   0.000003 0.500003 0.349620 -0.029077
C219  C     C_R   0.000001 0.499998 0.904900 0.211844
C220  C     C_R   0.499996 0.999999 0.095388 0.213830
C221  C     C_R   0.999997 0.499996 0.096533 0.207936
C222  C     C_R   0.499998 0.000004 0.904494 0.214463
C223  C     C_R   0.500000 0.000004 0.404900 0.211828
C224  C     C_R   0.500000 0.000000 0.820484 0.506218
C225  C     C_R   0.000001 0.499997 0.595389 0.213845
C226  C     C_R   0.499998 1.000000 0.596533 0.207948
C227  C     C_R   0.000009 0.500009 0.404494 0.214475
C228  C     C_R   0.858540 0.359354 0.749636 0.512554
C229  C     C_R   0.357198 0.139094 0.249186 0.512326
C230  C     C_R   0.141461 0.640645 0.749636 0.512554
C231  C     C_R   0.642803 0.860906 0.249185 0.512328
C232  C     C_R   0.141812 0.359432 0.250367 0.510753
C233  C     C_R   0.640181 0.142045 0.749510 0.512380
C234  C     C_R   0.858188 0.640568 0.250367 0.510756
C235  C     C_R   1.000000 0.500000 0.179771 0.516185
C236  C     C_R   0.359819 0.857955 0.749510 0.512381
C237  C     C_R   0.358542 0.859351 0.249638 0.512553
C238  C     C_R   0.857197 0.639095 0.749186 0.512325
C239  C     C_R   0.641458 0.140648 0.249638 0.512554
C240  C     C_R   0.142803 0.360905 0.749186 0.512327
C241  C     C_R   0.641813 0.859434 0.750367 0.510753
C242  C     C_R   0.140181 0.642046 0.249510 0.512381
C243  C     C_R   0.358187 0.140566 0.750367 0.510755
C244  C     C_R   0.859819 0.357954 0.249510 0.512381
C245  C     C_3   0.835419 0.770759 0.758547 -0.088625
C246  C     C_R   0.401767 0.089541 0.514420 0.052829
C247  C     C_3   0.777729 0.162066 0.253313 -0.088127
C248  C     C_3   0.164581 0.229241 0.758547 -0.088625
C249  C     C_3   0.222271 0.837934 0.253313 -0.088127
C250  C     C_3   0.160243 0.779117 0.248672 -0.094115
C251  C     C_3   0.227814 0.172072 0.764092 -0.097677
C252  C     C_3   0.839757 0.220883 0.248672 -0.094114
C253  C     C_3   0.772186 0.827928 0.764092 -0.097677
C254  C     C_3   0.335411 0.270751 0.258557 -0.088623
C255  C     C_3   0.277730 0.662068 0.753322 -0.088128
C256  C     C_3   0.664589 0.729249 0.258557 -0.088623
N1    N     N_R   0.499997 0.999999 0.568542 -0.393075
N2    N     N_1   0.789450 0.102585 0.299913 -0.205523
N3    N     N_1   0.070849 0.181264 0.723574 -0.207259
N4    N     N_1   0.210551 0.897416 0.299913 -0.205522
N5    N     N_1   0.055154 0.797273 0.283197 -0.214619
N6    N     N_1   0.184928 0.043915 0.749038 -0.209885
N7    N     N_1   0.944846 0.202728 0.283197 -0.214621
N8    N     N_1   0.815072 0.956085 0.749038 -0.209884
N9    N     N_1   0.429164 0.318756 0.223596 -0.207290
N10   N     N_1   0.289424 0.602616 0.799927 -0.205516
N11   N     N_1   0.570835 0.681243 0.223597 -0.207290
N12   N     N_R   0.000010 0.500012 0.432328 -0.394011
N13   N     N_1   0.710579 0.397384 0.799927 -0.205516
N14   N     N_1   0.555172 0.297253 0.783216 -0.214602
N15   N     N_1   0.684930 0.543914 0.249068 -0.209890
N16   N     N_1   0.444830 0.702747 0.783215 -0.214602
N17   N     N_1   0.315069 0.456085 0.249068 -0.209890
N18   N     N_1   0.923799 0.755984 0.798810 -0.240494
N19   N     N_1   0.798309 0.048911 0.223218 -0.226042
N20   N     N_1   0.076203 0.244018 0.798810 -0.240494
N21   N     N_1   0.201690 0.951088 0.223218 -0.226042
N22   N     N_1   0.087295 0.801274 0.205126 -0.201444
N23   N     N_R   0.500000 0.000003 0.432891 -0.392683
N24   N     N_1   0.246967 0.148202 0.814279 -0.225549
N25   N     N_1   0.912703 0.198724 0.205126 -0.201444
N26   N     N_1   0.753035 0.851800 0.814279 -0.225549
N27   N     N_1   0.423763 0.255948 0.298826 -0.240490
N28   N     N_1   0.298336 0.548896 0.723238 -0.226034
N29   N     N_1   0.576239 0.744053 0.298826 -0.240491
N30   N     N_1   0.701663 0.451104 0.723238 -0.226033
N31   N     N_1   0.587264 0.301297 0.705143 -0.201438
N32   N     N_1   0.747022 0.648258 0.314289 -0.225558
N33   N     N_1   0.412734 0.698702 0.705143 -0.201438
N34   N     N_R   0.000003 0.499996 0.567550 -0.393559
N35   N     N_1   0.252980 0.351744 0.314289 -0.225559
N36   N     N_1   0.687906 0.594860 0.705568 -0.205568
N37   N     N_1   0.564039 0.329898 0.263220 -0.216672
N38   N     N_1   0.312093 0.405139 0.705568 -0.205568
N39   N     N_1   0.435961 0.670102 0.263219 -0.216672
N40   N     N_1   0.283448 0.560729 0.286967 -0.231071
N41   N     N_1   0.401225 0.235143 0.691702 -0.222610
N42   N     N_1   0.716553 0.439272 0.286967 -0.231070
N43   N     N_1   0.598773 0.764855 0.691702 -0.222610
N44   N     N_1   0.187947 0.094881 0.205548 -0.205581
N45   N     N_R   0.999996 0.499994 0.068542 -0.393076
N46   N     N_1   0.064030 0.829901 0.763193 -0.216672
N47   N     N_1   0.812051 0.905117 0.205548 -0.205582
N48   N     N_1   0.935970 0.170098 0.763193 -0.216672
N49   N     N_1   0.783476 0.060709 0.786948 -0.231078
N50   N     N_1   0.901179 0.735104 0.191687 -0.222631
N51   N     N_1   0.216524 0.939291 0.786948 -0.231077
N52   N     N_1   0.098819 0.264894 0.191687 -0.222631
N53   N     N_1   0.181605 0.563492 0.841203 -0.210730
N54   N     N_1   0.486624 0.808737 0.158444 -0.228257
N55   N     N_1   0.818392 0.436519 0.841202 -0.210726
N56   N     N_R   0.499997 0.000005 0.932329 -0.394016
N57   N     N_1   0.513375 0.191262 0.158444 -0.228257
N58   N     N_1   0.963462 0.315633 0.162080 -0.214131
N59   N     N_1   0.468658 0.810989 0.841237 -0.216067
N60   N     N_1   0.036537 0.684366 0.162078 -0.214130
N61   N     N_1   0.531346 0.189012 0.841236 -0.216068
N62   N     N_1   0.681623 0.063440 0.341202 -0.210727
N63   N     N_1   0.986909 0.308714 0.658445 -0.228219
N64   N     N_1   0.318381 0.936549 0.341202 -0.210730
N65   N     N_1   0.013083 0.691285 0.658444 -0.228219
N66   N     N_1   0.463496 0.815626 0.662078 -0.214132
N67   N     N_R   0.000001 0.499997 0.932891 -0.392684
N68   N     N_1   0.968750 0.310975 0.341239 -0.216071
N69   N     N_1   0.536500 0.184375 0.662078 -0.214131
N70   N     N_1   0.031257 0.689030 0.341234 -0.216070
N71   N     N_R   0.499994 0.999999 0.067549 -0.393565
N72   N     N_1   0.929150 0.818735 0.723574 -0.207258
O1    O     O_3   0.000000 0.500000 0.750000 -0.477287
O2    O     O_R   0.438690 0.000330 0.691960 -0.527397
O3    O     O_R   0.999670 0.438690 0.308040 -0.526894
O4    O     O_R   0.561310 0.999670 0.691960 -0.527395
O5    O     O_R   0.499670 0.061310 0.191960 -0.529496
O6    O     O_R   0.061310 0.500330 0.808040 -0.524532
O7    O     O_R   0.500330 0.938690 0.191960 -0.529497
O8    O     O_R   0.938690 0.499670 0.808040 -0.524531
O9    O     O_R   0.500330 0.061310 0.808040 -0.526895
O10   O     O_R   0.938690 0.500330 0.191960 -0.527397
O11   O     O_R   0.499670 0.938690 0.808040 -0.526893
O12   O     O_3   0.500000 1.000000 0.250000 -0.477289
O13   O     O_R   0.061310 0.499670 0.191960 -0.527395
O14   O     O_R   0.913470 0.352550 0.734780 -0.525622
O15   O     O_R   0.352550 0.086530 0.265220 -0.527989
O16   O     O_R   0.086530 0.647450 0.734780 -0.525622
O17   O     O_R   0.647450 0.913470 0.265220 -0.527988
O18   O     O_R   0.086530 0.352550 0.265220 -0.524494
O19   O     O_R   0.647450 0.086530 0.734780 -0.525883
O20   O     O_R   0.913470 0.647450 0.265220 -0.524493
O21   O     O_R   0.352550 0.913470 0.734780 -0.525884
O22   O     O_R   0.413470 0.852550 0.234780 -0.525617
O23   O     O_3   0.000000 0.500000 0.250000 -0.477777
O24   O     O_R   0.852550 0.586530 0.765220 -0.527992
O25   O     O_R   0.586530 0.147450 0.234780 -0.525616
O26   O     O_R   0.147450 0.413470 0.765220 -0.527992
O27   O     O_R   0.586530 0.852550 0.765220 -0.524496
O28   O     O_R   0.147450 0.586530 0.234780 -0.525885
O29   O     O_R   0.413470 0.147450 0.765220 -0.524496
O30   O     O_R   0.852550 0.413470 0.234780 -0.525886
O31   O     O_R   0.147200 0.586220 0.765220 -0.529938
O32   O     O_R   0.586220 0.852800 0.234780 -0.527697
O33   O     O_R   0.852800 0.413780 0.765220 -0.529937
O34   O     O_3   0.500000 1.000000 0.750000 -0.477777
O35   O     O_R   0.413780 0.147200 0.234780 -0.527697
O36   O     O_R   0.852800 0.586220 0.234780 -0.528680
O37   O     O_R   0.413780 0.852800 0.765220 -0.527713
O38   O     O_R   0.147200 0.413780 0.234780 -0.528680
O39   O     O_R   0.586220 0.147200 0.765220 -0.527714
O40   O     O_R   0.647200 0.086220 0.265220 -0.529937
O41   O     O_R   0.086220 0.352800 0.734780 -0.527688
O42   O     O_R   0.352800 0.913780 0.265220 -0.529937
O43   O     O_R   0.913780 0.647200 0.734780 -0.527689
O44   O     O_R   0.352800 0.086220 0.734780 -0.528680
O45   O     O_R   0.999670 0.561310 0.691960 -0.529501
O46   O     O_R   0.913780 0.352800 0.265220 -0.527712
O47   O     O_R   0.647200 0.913780 0.734780 -0.528680
O48   O     O_R   0.086220 0.647200 0.265220 -0.527713
O49   O     O_2   0.609332 0.936916 0.569480 -0.456476
O50   O     O_2   0.875622 0.521565 0.430972 -0.454162
O51   O     O_2   0.390663 0.063084 0.569481 -0.456476
O52   O     O_2   0.124399 0.478463 0.430971 -0.454164
O53   O     O_2   0.573088 0.897789 0.431849 -0.454655
O54   O     O_2   0.124948 0.481498 0.568822 -0.455905
O55   O     O_2   0.426915 0.102221 0.431850 -0.454652
O56   O     O_R   0.561310 0.000330 0.308040 -0.524532
O57   O     O_2   0.875055 0.518482 0.568819 -0.455902
O58   O     O_2   0.109292 0.436843 0.069479 -0.456469
O59   O     O_2   0.375651 0.021813 0.930974 -0.454147
O60   O     O_2   0.890700 0.563147 0.069479 -0.456470
O61   O     O_2   0.624344 0.978203 0.930976 -0.454151
O62   O     O_2   0.073036 0.397747 0.931846 -0.454657
O63   O     O_2   0.624897 0.981193 0.068818 -0.455892
O64   O     O_2   0.926971 0.602251 0.931848 -0.454655
O65   O     O_2   0.375093 0.018811 0.068817 -0.455887
O66   O     O_R   0.000330 0.438690 0.691960 -0.529503
O67   O     O_R   0.438690 0.999670 0.308040 -0.524531
O68   O     O_R   0.000330 0.561310 0.308040 -0.526899
Zn1   Zn    Zn3+2 0.912170 0.500020 0.771750 0.994676
Zn2   Zn    Zn3+2 0.000020 0.587830 0.728250 0.990802
Zn3   Zn    Zn3+2 0.587830 0.999980 0.271750 0.994682
Zn4   Zn    Zn3+2 0.999980 0.412170 0.728250 0.990802
Zn5   Zn    Zn3+2 0.587830 0.000020 0.728250 0.993160
Zn6   Zn    Zn3+2 0.999980 0.587830 0.271750 0.996279
Zn7   Zn    Zn3+2 0.412170 0.999980 0.728250 0.993160
Zn8   Zn    Zn3+2 0.000020 0.412170 0.271750 0.996280
Zn9   Zn    Zn3+2 0.500020 0.087830 0.228250 0.990804
Zn10  Zn    Zn3+2 0.087830 0.499980 0.771750 0.994677
Zn11  Zn    Zn3+2 0.499980 0.912170 0.228250 0.990805
Zn12  Zn    Zn3+2 0.087830 0.500020 0.228250 0.993158
Zn13  Zn    Zn3+2 0.499980 0.087830 0.771750 0.996276
Zn14  Zn    Zn3+2 0.912170 0.499980 0.228250 0.993158
Zn15  Zn    Zn3+2 0.500020 0.912170 0.771750 0.996276
Zn16  Zn    Zn3+2 0.412170 0.000020 0.271750 0.994680

loop_
_geom_bond_atom_site_label_1
_geom_bond_atom_site_label_2
_ccdc_geom_bond_type
O4    Zn5   S    
C158  N52   T    
C23   C156  S    
C109  C250  S    
O12   Zn16  S    
C210  C213  S    
C27   C32   S    
C212  C235  S    
C77   O65   S    
C65   N23   A    
C224  O11   A    
C75   O63   S    
C11   C47   S    
C148  N42   T    
O25   Zn9   S    
Br59  C135  S    
C133  C255  S    
C82   C97   A    
C243  O29   A    
C105  C245  S    
C172  N66   T    
C29   C47   S    
C181  C198  A    
O19   Zn5   S    
Br78  C16   S    
C127  C249  S    
C168  C219  A    
C64   C80   A    
C89   C100  A    
C20   C55   S    
C17   C25   S    
C87   C100  A    
Br58  C124  S    
C236  O21   A    
C47   C249  S    
C176  C194  A    
O15   Zn16  S    
C27   C44   S    
C58   C234  S    
C50   C244  S    
C106  N2    T    
Br5   C21   S    
Br24  C40   S    
C165  N60   T    
C36   C41   S    
Br30  C29   S    
C178  C196  A    
O32   Zn11  S    
O27   Zn15  S    
C130  N25   T    
O42   Zn16  S    
C197  C212  A    
C75   N71   A    
C36   C53   S    
C112  O67   A    
C179  C221  A    
C45   C248  S    
O12   Zn9   S    
C213  O6    A    
C234  O20   A    
C53   C255  S    
C2    C80   A    
C13   C81   A    
C74   O62   S    
O23   Zn14  S    
Br76  C189  S    
C83   C98   A    
Br47  C13   S    
C202  O7    A    
O23   Zn6   S    
Br43  C42   S    
C191  O4    A    
C84   C99   A    
C14   C147  S    
C62   O50   S    
Br49  C35   S    
C61   O49   S    
C12   C145  S    
C112  C215  S    
C73   C88   A    
C1    O45   A    
C74   N67   A    
O1    Zn10  S    
C40   C58   S    
C53   C230  S    
C72   C87   A    
O36   Zn14  S    
C185  C203  A    
O34   Zn15  S    
C186  C204  A    
Br71  C184  S    
C167  N62   T    
C49   C243  S    
O67   Zn16  S    
C123  N18   T    
C5    C256  S    
C128  N22   T    
O26   Zn10  S    
C56   C233  S    
O39   Zn13  S    
Br39  C38   S    
C54   C256  S    
C39   C56   S    
C239  O25   A    
C28   C31   S    
O2    Zn7   S    
C72   O60   S    
C168  C193  A    
C25   C60   S    
C24   C82   A    
O12   Zn3   S    
O17   Zn3   S    
C144  N39   T    
C182  C199  A    
Br31  C30   S    
C79   C87   A    
Br35  C33   S    
Br60  C146  S    
Br6   C22   S    
Br41  C40   S    
C35   C83   A    
Br73  C186  S    
C110  N6    T    
C222  N56   S    
O29   Zn13  S    
C10   C143  S    
Br40  C39   S    
C162  N57   T    
C134  C256  S    
C21   C154  S    
C73   N56   A    
C171  C205  S    
C11   C144  S    
Br25  C41   S    
C5    C58   S    
C18   C23   S    
C30   C48   S    
C233  O19   A    
C207  C218  A    
O18   Zn8   S    
Br80  C17   S    
C7    C60   S    
C91   C113  A    
C164  N59   T    
Br36  C34   S    
Br8   C25   S    
O6    Zn10  S    
C3    C136  S    
Br17  C33   S    
Br37  C36   S    
C60   C232  S    
C67   O55   S    
C180  C218  S    
C155  N50   T    
C213  O8    A    
C93   C135  A    
C125  N19   T    
C45   C240  S    
C23   C59   S    
C183  C200  A    
C198  C214  A    
C71   C91   A    
C202  O5    A    
C244  O46   A    
Br45  C12   S    
Br34  C11   S    
C159  N53   T    
C191  O2    A    
Br13  C29   S    
C228  O14   A    
C189  C227  A    
Br38  C37   S    
C229  O15   A    
C3    C4    S    
C93   C104  A    
C221  N45   S    
C236  O37   A    
C97   C99   A    
C15   C50   S    
C200  C214  A    
C52   C229  S    
O22   Zn11  S    
C177  C195  A    
C66   O54   S    
O34   Zn13  S    
C96   C98   A    
Br52  C68   S    
Br7   C23   S    
Br67  C15   S    
O20   Zn6   S    
C55   C228  S    
C113  C135  A    
C4    C119  S    
C114  N8    T    
O3    Zn8   S    
C220  N71   S    
C74   C94   A    
C26   C33   S    
C234  O36   A    
C61   N1    A    
C108  C249  S    
C132  N27   T    
O45   Zn2   S    
C11   C12   S    
C81   C96   A    
Br27  C26   S    
C16   C149  S    
C76   C92   A    
O23   Zn8   S    
C19   C54   S    
C160  N54   T    
O7    Zn11  S    
C6    C255  S    
C5    C138  S    
C192  C209  A    
C133  N28   T    
Br74  C187  S    
C5    C120  S    
Br62  C168  S    
Br63  C176  S    
C117  N11   T    
C208  C217  A    
C136  N30   T    
C116  C255  S    
Br29  C28   S    
C69   C84   A    
C7    C140  S    
C138  N32   T    
O47   Zn5   S    
C71   O59   S    
C6    C59   S    
C16   C51   S    
C150  N44   T    
C78   C246  A    
C159  C193  S    
C179  C197  A    
C228  O33   A    
C134  N29   T    
Br64  C177  S    
C63   C78   A    
C161  N55   T    
Br14  C30   S    
O28   Zn12  S    
C70   N45   A    
O40   Zn3   S    
C141  N36   T    
C76   O64   S    
C2    C68   A    
C7    C254  S    
Br44  C246  S    
C9    C44   S    
C181  C222  A    
C41   C59   S    
C229  O35   A    
C42   C60   S    
O1    Zn2   S    
C175  C209  S    
C67   C83   A    
C201  C215  A    
C112  O56   A    
C92   C103  A    
C79   C124  A    
C190  C226  A    
Br19  C36   S    
C20   C21   S    
O38   Zn12  S    
C175  N70   T    
C126  N20   T    
C174  N69   T    
C102  C104  A    
C219  N67   S    
O35   Zn9   S    
Br3   C19   S    
C180  O3    A    
C50   C252  S    
C187  C205  A    
C199  C212  A    
Br11  C28   S    
C230  O31   A    
C95   C104  A    
C32   C50   S    
C237  O42   A    
C17   C150  S    
C242  O48   A    
Br42  C41   S    
C8    C16   S    
C184  C201  A    
C68   C86   A    
Br54  C90   S    
C57   C85   A    
C65   C85   A    
O56   Zn3   S    
Br56  C14   S    
C125  C247  S    
C18   C53   S    
C244  O30   A    
C152  N47   T    
Br32  C31   S    
C1    C216  S    
C176  C220  A    
C35   C246  A    
C37   C54   S    
C239  O40   A    
C92   C124  A    
C196  C211  A    
C245  C253  S    
C31   C49   S    
O41   Zn4   S    
C128  C250  S    
O34   Zn7   S    
O46   Zn8   S    
C231  O32   A    
C131  N26   T    
C206  C217  A    
C77   N71   A    
C33   C51   S    
C214  C224  S    
C163  N58   T    
C54   C231  S    
Br1   C8    S    
C88   C90   A    
C22   C155  S    
C119  N14   T    
C48   C250  S    
C163  C197  S    
C20   C153  S    
C248  C251  S    
C1    O66   A    
Br20  C37   S    
C107  N3    T    
C10   C14   S    
Br75  C188  S    
Br22  C39   S    
C232  O38   A    
C106  C247  S    
Br53  C79   S    
C183  C222  A    
O1    Zn4   S    
O24   Zn1   S    
C37   C40   S    
O16   Zn2   S    
C76   N67   A    
C95   C157  A    
C120  N15   T    
C67   N23   A    
C195  C210  A    
C173  N68   T    
C9    C15   S    
Br21  C38   S    
C187  C225  A    
C227  N12   S    
O43   Zn2   S    
C107  C248  S    
C73   O61   S    
Br23  C10   S    
O68   Zn6   S    
C165  C199  S    
Br33  C32   S    
C3    C118  S    
C166  C200  S    
O31   Zn10  S    
C89   C101  A    
Br51  C57   S    
C90   C157  A    
C88   C102  A    
O12   Zn11  S    
C143  N38   T    
C193  C210  A    
Br16  C32   S    
C75   C95   A    
O10   Zn14  S    
C4    C56   S    
O23   Zn12  S    
C169  C203  S    
C232  O18   A    
C64   O52   S    
C170  C204  S    
C44   C239  S    
C17   C52   S    
C230  O16   A    
C94   C103  A    
C62   C82   A    
C188  C226  A    
Br69  C182  S    
C101  C146  A    
Br79  C192  S    
C204  C215  A    
C161  C195  S    
Br65  C178  S    
C94   C146  A    
C184  C223  A    
C162  C196  S    
C167  C201  S    
C235  O10   A    
C29   C30   S    
C44   C247  S    
C47   C237  S    
O34   Zn5   S    
C126  C248  S    
C205  C216  A    
Br72  C185  S    
C10   C45   S    
C160  C194  S    
C64   N12   A    
C6    C139  S    
C80   C97   A    
C4    C137  S    
O30   Zn14  S    
C18   C151  S    
C105  N72   T    
C202  C211  S    
C19   C22   S    
C186  C223  A    
C8    C141  S    
C156  N51   T    
Br26  C42   S    
C153  N48   T    
C111  N7    T    
C38   C55   S    
C171  N65   T    
C226  N1    S    
C77   C93   A    
C69   N34   A    
C61   C81   A    
C114  C253  S    
C182  C221  A    
C249  C250  S    
C137  N31   T    
C91   C102  A    
C116  N10   T    
C192  C227  A    
Br18  C34   S    
C145  N40   T    
C19   C152  S    
O5    Zn9   S    
C129  C251  S    
C108  N4    T    
C209  C218  A    
C233  O39   A    
C247  C252  S    
C140  N35   T    
C70   C89   A    
Br28  C27   S    
Br48  C24   S    
C22   C58   S    
C38   C39   S    
C117  C256  S    
C121  N16   T    
C15   C148  S    
C177  C219  A    
C127  N21   T    
C178  C220  A    
C180  O68   A    
C129  N24   T    
C26   C43   S    
C25   C158  S    
Br50  C46   S    
C28   C45   S    
C194  C211  A    
C3    C55   S    
C235  O13   A    
C100  C103  A    
C147  N41   T    
C66   N34   A    
O8    Zn1   S    
C66   C86   A    
O44   Zn7   S    
C63   N1    A    
C241  O47   A    
C240  O41   A    
C43   C238  S    
C130  C252  S    
C85   C98   A    
Br10  C27   S    
C149  N43   T    
C238  O43   A    
C8    C43   S    
C46   C84   A    
C12   C48   S    
C164  C198  S    
Br68  C181  S    
C123  C245  S    
Br70  C183  S    
C142  N37   T    
C14   C49   S    
C223  N23   S    
C111  C252  S    
Br15  C31   S    
Br12  C9    S    
C115  N9    T    
C185  C225  A    
C191  C217  S    
Br66  C179  S    
O21   Zn7   S    
O14   Zn4   S    
C9    C142  S    
C151  N46   T    
C224  O9    A    
C241  O27   A    
Br9   C26   S    
C242  O28   A    
C43   C245  S    
Br57  C113  S    
C51   C253  S    
C63   O51   S    
O1    Zn1   S    
C132  C254  S    
O13   Zn12  S    
C240  O26   A    
C6    C121  S    
C203  C216  A    
C238  O24   A    
C65   O53   S    
Br55  C101  S    
O9    Zn13  S    
O48   Zn6   S    
C51   C241  S    
C115  C254  S    
C70   O58   S    
C78   C96   A    
C69   O57   S    
C122  N17   T    
Br4   C20   S    
C243  O44   A    
C49   C251  S    
C118  N13   T    
C21   C56   S    
C7    C122  S    
C188  C206  A    
C34   C52   S    
C189  C207  A    
C237  O22   A    
C139  N33   T    
C190  C208  A    
C172  C206  S    
Br46  C2    S    
C154  N49   T    
C173  C207  S    
C52   C254  S    
C174  C208  S    
C169  N63   T    
O66   Zn4   S    
C170  N64   T    
C166  N61   T    
Br61  C157  S    
C62   N12   A    
C109  N5    T    
C71   N56   A    
C48   C242  S    
C225  N34   S    
C72   N45   A    
O37   Zn15  S    
C110  C251  S    
C13   C57   A    
C59   C236  S    
C34   C42   S    
O11   Zn15  S    
C24   C46   A    
Br2   C18   S    
C131  C253  S    
Br77  C190  S    
O33   Zn1   S    
C86   C99   A    
C231  O17   A    
