data_mof_unit_21998.cif
_audit_creation_date              2012-12-11T15:39:04-0500
_audit_creation_method            fapswitch 2.2
_symmetry_space_group_name_H-M    P1
_symmetry_Int_Tables_number       1
_space_group_crystal_system       triclinic
_cell_length_a                    14.299812
_cell_length_b                    14.817731
_cell_length_c                    33.236318
_cell_angle_alpha                 98.13251
_cell_angle_beta                  90.348934
_cell_angle_gamma                 118.714418
_cell_volume                      6092.02745743

loop_
_atom_site_label
_atom_site_type_symbol
_atom_type_description
_atom_site_fract_x
_atom_site_fract_y
_atom_site_fract_z
_atom_type_partial_charge
C1    C     C_R   0.616871 0.910006 0.436976 0.582268
C2    C     C_R   0.717896 0.376582 0.178921 0.070406
C3    C     C_R   0.709782 0.905870 0.656677 0.064524
C4    C     C_R   0.640588 0.801306 0.661344 -0.007759
C5    C     C_R   0.637760 0.863468 0.585597 -0.022815
C6    C     C_R   0.053958 0.782295 0.063324 0.582918
C7    C     C_R   0.743328 0.485301 0.065661 0.551466
C8    C     C_R   0.741934 0.790085 0.066015 0.577760
C9    C     C_R   0.021851 0.731848 0.947156 0.586410
C10   C     C_R   0.711125 0.435243 0.949656 0.574460
C11   C     C_R   0.711243 0.738617 0.949537 0.573138
C12   C     C_R   0.814475 0.411441 0.160488 0.428097
C13   C     C_R   0.821408 0.441487 0.122235 -0.077321
C14   C     C_R   0.712533 0.273858 0.234197 0.090005
C15   C     C_R   0.707194 0.266607 0.275855 -0.110007
C16   C     C_R   0.702201 0.343721 0.304270 0.007382
C17   C     C_R   0.704671 0.430291 0.291158 -0.106069
C18   C     C_R   0.710375 0.439044 0.250133 -0.124209
C19   C     C_R   0.713600 0.361568 0.221520 0.040576
C20   C     C_R   0.611743 0.346512 0.368116 -0.113889
C21   C     C_R   0.594806 0.206644 0.457010 0.566141
C22   C     C_R   0.587106 0.318435 0.406866 0.047742
C23   C     C_R   0.721778 0.262081 0.404134 -0.140603
C24   C     C_R   0.747026 0.292687 0.366409 -0.119051
C25   C     C_R   0.688494 0.329850 0.347193 0.003723
C26   C     C_R   0.637387 0.268122 0.423699 -0.000046
C27   C     C_R   0.246472 0.877550 0.392924 0.016613
C28   C     C_R   0.235259 0.958629 0.380000 -0.111611
C29   C     C_R   0.212803 0.955578 0.338714 -0.091451
C30   C     C_R   0.200765 0.871394 0.309937 0.029987
C31   C     C_R   0.205128 0.787419 0.322732 -0.111374
C32   C     C_R   0.295941 0.892679 0.434267 0.538852
C33   C     C_R   0.227580 0.790231 0.363993 -0.121992
C34   C     C_R   0.214410 0.823359 0.161307 -0.170624
C35   C     C_R   0.189345 0.804818 0.118884 0.029986
C36   C     C_R   0.079974 0.889791 0.130540 -0.111200
C37   C     C_R   0.106484 0.908537 0.172416 0.404037
C38   C     C_R   0.169869 0.871261 0.187945 0.013229
C39   C     C_1   0.182314 0.874413 0.231137 0.062062
C40   C     C_1   0.190298 0.873711 0.267152 0.015224
C41   C     C_R   0.115247 0.832445 0.103596 -0.051744
C42   C     C_R   0.636424 0.877889 0.395191 0.029437
C43   C     C_R   0.615280 0.904430 0.550893 0.574438
C44   C     C_R   0.548818 0.806108 0.367389 -0.178180
C45   C     C_R   0.560848 0.794432 0.325681 -0.140912
C46   C     C_R   0.660564 0.853432 0.311382 -0.030357
C47   C     C_R   0.749824 0.919036 0.338887 -0.058071
C48   C     C_R   0.738291 0.931262 0.380661 0.378068
C49   C     C_R   0.784686 0.915508 0.175268 0.443500
C50   C     C_R   0.797885 0.902663 0.133741 -0.106866
C51   C     C_R   0.611391 0.766770 0.120124 0.023012
C52   C     C_R   0.599861 0.779543 0.162143 -0.183520
C53   C     C_R   0.687008 0.850683 0.189592 0.016609
C54   C     C_R   0.589410 0.198598 0.571218 0.548290
C55   C     C_1   0.677401 0.852395 0.232523 0.075896
C56   C     C_1   0.669821 0.852270 0.268481 0.020122
C57   C     C_R   0.714013 0.824170 0.106035 -0.062561
C58   C     C_R   0.621653 0.245056 0.614796 0.013518
C59   C     C_R   0.553008 0.268343 0.638836 -0.114323
C60   C     C_R   0.569709 0.287286 0.681343 -0.076346
C61   C     C_R   0.655080 0.283356 0.700287 0.027929
C62   C     C_R   0.727873 0.267230 0.676697 -0.097964
C63   C     C_R   0.711589 0.248562 0.634178 -0.116064
C64   C     C_R   0.741264 0.304650 0.847923 -0.117399
C65   C     C_R   0.288971 0.887219 0.548518 0.546197
C66   C     C_R   0.750889 0.331826 0.890675 0.037987
C67   C     C_R   0.595457 0.356837 0.884832 -0.135058
C68   C     C_R   0.582145 0.324076 0.842571 0.065512
C69   C     C_R   0.660782 0.305133 0.823882 -0.002015
C70   C     C_1   0.664617 0.294903 0.780263 0.061924
C71   C     C_1   0.663251 0.289662 0.743772 0.030707
C72   C     C_R   0.683018 0.367997 0.908900 -0.025963
C73   C     C_R   0.065495 0.752010 0.906965 0.003591
C74   C     C_R   0.073778 0.839878 0.891815 0.357936
C75   C     C_R   0.083125 0.846313 0.850605 -0.008388
C76   C     C_R   0.732162 0.437714 0.102425 -0.038220
C77   C     C_R   0.083120 0.765387 0.823463 0.001529
C78   C     C_R   0.080709 0.680561 0.838251 -0.099380
C79   C     C_R   0.078384 0.675776 0.880057 -0.009821
C80   C     C_R   0.174952 0.766797 0.758895 0.006945
C81   C     C_R   0.180804 0.777025 0.717812 -0.167949
C82   C     C_R   0.107502 0.795623 0.697510 -0.025520
C83   C     C_R   0.022847 0.798097 0.717526 0.478946
C84   C     C_R   0.014673 0.786507 0.758512 0.417707
C85   C     C_R   0.091412 0.772742 0.779766 -0.052274
C86   C     C_R   0.177336 0.923067 0.648177 0.079667
C87   C     C_R   0.634270 0.397341 0.120221 -0.126829
C88   C     C_R   0.221301 0.942692 0.610674 -0.130505
C89   C     C_R   0.162831 0.759032 0.589342 -0.119905
C90   C     C_R   0.116291 0.737717 0.625799 -0.125292
C91   C     C_R   0.127381 0.819082 0.656090 0.049036
C92   C     C_R   0.220081 0.862166 0.582403 -0.005644
C93   C     C_R   0.668649 0.739009 0.908735 -0.020293
C94   C     C_R   0.562926 0.667759 0.891156 0.034863
C95   C     C_R   0.536516 0.661847 0.849033 0.117389
C96   C     C_R   0.617011 0.726581 0.825644 0.044155
C97   C     C_R   0.718607 0.798273 0.843888 -0.093407
C98   C     C_R   0.627400 0.367348 0.158318 -0.151434
C99   C     C_R   0.743671 0.805346 0.884649 -0.122145
C100  C     C_R   0.576391 0.805652 0.771151 0.025456
C101  C     C_R   0.585102 0.823591 0.730768 -0.080564
C102  C     C_R   0.620240 0.770798 0.702037 0.011408
C103  C     C_R   0.638775 0.692473 0.712374 -0.051700
C104  C     C_R   0.629067 0.670218 0.752230 0.097007
C105  C     C_R   0.598791 0.728159 0.782127 -0.002517
C106  C     C_R   0.581200 0.726866 0.627196 -0.131509
C107  C     C_R   0.581105 0.756054 0.588906 0.045107
C108  C     C_R   0.705829 0.935896 0.618902 -0.144621
Cr1   Cr    Cr6+3 0.424820 0.846020 0.489780 1.073131
Cr2   Cr    Cr6+3 0.657880 0.078580 0.505700 1.071892
Cr3   Cr    Cr6+3 0.417280 0.075360 0.504550 1.062199
Cr4   Cr    Cr6+3 0.903360 0.812540 0.006510 1.112846
Cr5   Cr    Cr6+3 0.914630 0.587050 0.006280 1.097647
Cr6   Cr    Cr6+3 0.673560 0.582680 0.008540 1.096483
H1    H     H_    0.564089 0.393005 0.105524 0.171462
H2    H     H_    0.764262 0.226931 0.416575 0.169316
H3    H     H_    0.266625 0.798197 0.173782 0.163673
H4    H     H_    0.195469 0.721678 0.300640 0.132997
H5    H     H_    0.236143 0.726815 0.372842 0.139494
H6    H     H_    0.249669 0.027148 0.401424 0.155329
H7    H     H_    0.024024 0.912329 0.119627 0.154338
H8    H     H_    0.897769 0.472453 0.109140 0.164487
H9    H     H_    0.209086 0.020746 0.329089 0.153052
H10   H     H_    0.876421 0.949218 0.123786 0.170111
H11   H     H_    0.827527 0.964060 0.327904 0.172207
H12   H     H_    0.469418 0.764220 0.377483 0.149430
H13   H     H_    0.523223 0.732973 0.173646 0.165739
H14   H     H_    0.491428 0.743051 0.304497 0.136980
H15   H     H_    0.809043 0.282482 0.351311 0.144216
H16   H     H_    0.797216 0.283846 0.833130 0.178491
H17   H     H_    0.794602 0.264812 0.691119 0.166167
H18   H     H_    0.765894 0.230675 0.616634 0.145319
H19   H     H_    0.482961 0.265944 0.624958 0.154133
H20   H     H_    0.539722 0.379079 0.898790 0.210465
H21   H     H_    0.513363 0.300562 0.699442 0.177484
H22   H     H_    0.078671 0.658210 0.631760 0.136175
H23   H     H_    0.702623 0.198444 0.286102 0.145893
H24   H     H_    0.246265 0.775791 0.701852 0.171457
H25   H     H_    0.088582 0.914065 0.839672 0.184539
H26   H     H_    0.265097 0.022459 0.605123 0.160362
H27   H     H_    0.084815 0.619918 0.817150 0.168579
H28   H     H_    0.159281 0.695428 0.567615 0.151929
H29   H     H_    0.825145 0.860618 0.896699 0.193869
H30   H     H_    0.568860 0.882535 0.721721 0.157648
H31   H     H_    0.664784 0.651577 0.689469 0.177064
H32   H     H_    0.532277 0.646054 0.630857 0.164976
H33   H     H_    0.779609 0.849196 0.826172 0.181511
H34   H     H_    0.552660 0.340776 0.172513 0.141406
H35   H     H_    0.752749 0.017456 0.615988 0.170115
H36   H     H_    0.701975 0.491041 0.312632 0.127346
H37   H     H_    0.711902 0.506612 0.240498 0.125423
H38   H     H_    0.568928 0.378810 0.353756 0.147128
O1    O     O_R   0.318160 0.824460 0.443680 -0.516842
O2    O     O_R   0.645130 0.163230 0.552140 -0.505121
O3    O     O_R   0.498360 0.178430 0.555780 -0.501931
O4    O     O_R   0.328690 0.978040 0.538950 -0.500607
O5    O     O_3   0.499990 0.999990 0.500010 -0.269643
O6    O     O_R   0.828710 0.851830 0.052170 -0.514001
O7    O     O_R   0.005980 0.823990 0.047210 -0.502580
O8    O     O_R   0.031900 0.688850 0.050170 -0.474744
O9    O     O_R   0.830940 0.518420 0.048680 -0.499093
O10   O     O_R   0.668160 0.499860 0.053480 -0.503250
O11   O     O_R   0.689170 0.693840 0.050110 -0.465009
O12   O     O_R   0.525040 0.857250 0.449830 -0.503808
O13   O     O_R   0.803860 0.812940 0.962540 -0.491917
O14   O     O_R   0.982950 0.787950 0.964120 -0.431994
O15   O     O_R   0.007050 0.649970 0.960540 -0.480248
O16   O     O_R   0.807910 0.482370 0.965590 -0.465483
O17   O     O_R   0.643310 0.460980 0.963840 -0.507649
O18   O     O_R   0.666140 0.657800 0.967020 -0.468790
O19   O     O_3   0.830520 0.660760 0.007110 -0.294922
O20   O     O_R   0.684760 0.998800 0.456360 -0.439093
O21   O     O_R   0.647540 0.166310 0.470260 -0.510726
O22   O     O_R   0.500960 0.181750 0.467450 -0.471402
O23   O     O_R   0.331100 0.981120 0.457080 -0.500031
O24   O     O_R   0.315560 0.821140 0.532010 -0.505329
O25   O     O_R   0.522630 0.854180 0.531710 -0.464474
O26   O     O_R   0.682160 0.995480 0.544690 -0.512704
C109  C     C_2   0.510595 0.344008 0.428811 0.596289
O27   O     O_2   0.435887 0.341818 0.409749 -0.512221
O28   O     O_R   0.526394 0.374894 0.471163 -0.658454
H39   H     H_    0.469773 0.391552 0.482506 0.348447
F1    F     F_    0.902978 0.421622 0.180453 -0.600294
C110  C     C_2   0.240820 0.756529 0.091495 0.612629
O29   O     O_2   0.275345 0.704117 0.104552 -0.479521
O30   O     O_R   0.252823 0.773365 0.051032 -0.651074
H40   H     H_    0.289511 0.736844 0.035620 0.359373
F2    F     F_    0.064151 0.956611 0.197942 -0.566366
F3    F     F_    0.869064 0.986868 0.201687 -0.536084
F4    F     F_    0.825594 0.999261 0.406465 -0.604335
C111  C     C_2   0.515181 0.694748 0.091952 0.626952
O31   O     O_2   0.442181 0.618662 0.103282 -0.477619
O32   O     O_R   0.505923 0.716074 0.052943 -0.649968
H41   H     H_    0.434464 0.663970 0.037545 0.345536
C112  C     C_2   0.829158 0.318357 0.915296 0.611491
O33   O     O_2   0.906052 0.317168 0.899861 -0.458496
O34   O     O_R   0.812080 0.301319 0.955582 -0.671088
H42   H     H_    0.870192 0.292074 0.968921 0.347949
C113  C     C_2   0.487556 0.314167 0.818992 0.627377
O35   O     O_2   0.457558 0.262243 0.784825 -0.503926
O36   O     O_R   0.430438 0.362075 0.836449 -0.630402
H43   H     H_    0.367029 0.348402 0.817817 0.371832
F5    F     F_    0.069799 0.918943 0.916568 -0.600587
C114  C     C_2   0.094638 0.593303 0.894134 0.643177
O37   O     O_2   0.056677 0.506838 0.873202 -0.461447
O38   O     O_R   0.159241 0.616338 0.929960 -0.628159
H44   H     H_    0.166046 0.554340 0.935840 0.360075
C115  C     C_2   0.259662 0.753606 0.778780 0.605823
O39   O     O_2   0.296261 0.796312 0.813792 -0.461411
O40   O     O_R   0.298811 0.692996 0.756861 -0.695007
H45   H     H_    0.353241 0.686108 0.773879 0.360411
F6    F     F_    0.950431 0.814485 0.697717 -0.559642
F7    F     F_    0.932075 0.789115 0.777610 -0.603119
C116  C     C_2   0.193399 0.013838 0.679024 0.615676
O41   O     O_2   0.201761 0.092263 0.667706 -0.494709
O42   O     O_R   0.202265 0.011968 0.720778 -0.677245
H46   H     H_    0.213956 0.078985 0.738269 0.368479
C117  C     C_2   0.481218 0.600356 0.916451 0.628409
O43   O     O_2   0.429044 0.506266 0.904824 -0.452095
O44   O     O_R   0.463434 0.644850 0.953494 -0.650992
H47   H     H_    0.403929 0.591070 0.967324 0.336663
C118  C     C_2   0.713436 0.187761 0.205141 0.613934
O45   O     O_2   0.737446 0.127397 0.217874 -0.478749
O46   O     O_R   0.685163 0.173699 0.163472 -0.678709
H48   H     H_    0.688726 0.112202 0.147298 0.354490
C119  C     C_2   0.785596 0.985073 0.690706 0.603838
O47   O     O_2   0.817041 0.077874 0.690892 -0.533154
O48   O     O_R   0.823487 0.954076 0.722046 -0.615465
H49   H     H_    0.874757 0.015127 0.743228 0.361697
C120  C     C_2   0.550638 0.874081 0.801307 0.593019
O49   O     O_2   0.555392 0.953315 0.792225 -0.486196
O50   O     O_R   0.519870 0.848565 0.839762 -0.670115
H50   H     H_    0.505490 0.901899 0.857108 0.378555
C121  C     C_2   0.425493 0.592926 0.829759 0.625595
O51   O     O_2   0.349083 0.586501 0.848028 -0.439501
O52   O     O_R   0.408311 0.536827 0.790403 -0.688052
H51   H     H_    0.329582 0.493453 0.780600 0.351676
C122  C     C_2   0.658656 0.591362 0.761958 0.629294
O53   O     O_2   0.628312 0.549557 0.792043 -0.494371
O54   O     O_R   0.721279 0.564139 0.736175 -0.670908
H52   H     H_    0.737978 0.511603 0.746260 0.337556
C123  C     C_2   0.521733 0.672629 0.553385 0.596225
O55   O     O_2   0.551368 0.684460 0.519144 -0.487941
O56   O     O_R   0.434042 0.578514 0.559307 -0.698685
H53   H     H_    0.401190 0.527369 0.532939 0.344905

loop_
_geom_bond_atom_site_label_1
_geom_bond_atom_site_label_2
_ccdc_geom_bond_type
C65   C92   S    
C21   C26   S    
C43   O26   A    
C101  C102  A    
Cr4   O7    S    
Cr6   O17   S    
Cr3   O22   S    
C73   C74   A    
C95   C96   A    
C55   C56   T    
Cr1   O5    S    
O46   H48   S    
Cr5   O16   S    
C86   C116  S    
C6    O7    A    
C90   C91   A    
Cr1   O24   S    
Cr5   O19   S    
C77   C78   A    
C110  O29   D    
C10   O17   A    
C104  C122  S    
C12   C13   A    
C7    O9    A    
C44   H12   S    
C100  C105  A    
C37   C38   A    
Cr4   O6    S    
C68   C113  S    
Cr3   O23   S    
C99   H29   S    
C9    O14   A    
C67   C72   A    
C65   O4    A    
C86   C91   A    
C54   C58   S    
C38   C39   S    
C80   C81   A    
C101  H30   S    
C116  O42   S    
Cr6   O10   S    
Cr4   O19   S    
C49   F3    S    
C106  C107  A    
Cr2   O26   S    
C45   H14   S    
C15   C16   A    
C29   H9    S    
C94   C117  S    
C51   C52   A    
O56   H53   S    
C34   C35   A    
O36   H43   S    
C23   C26   A    
Cr6   O11   S    
C74   F5    S    
O44   H47   S    
C6    O8    A    
C103  C104  A    
C23   H2    S    
C68   C69   A    
C24   H15   S    
C88   H26   S    
C88   C92   A    
C1    O12   A    
C16   C17   A    
C6    C41   S    
C4    C102  S    
C36   C37   A    
C123  O56   S    
C23   C24   A    
C31   C33   A    
C107  C123  S    
C70   C71   T    
C51   C57   A    
C95   C121  S    
C29   C30   A    
Cr1   O1    S    
Cr3   O4    S    
C93   C99   A    
C48   F4    S    
C83   F6    S    
O32   H41   S    
C87   C98   A    
C11   C93   S    
C34   H3    S    
C27   C32   S    
C2    C12   A    
C59   C60   A    
C59   H19   S    
C12   F1    S    
C97   H33   S    
C36   C41   A    
C102  C103  A    
C42   C44   A    
C21   O22   A    
C35   C41   A    
C62   H17   S    
C104  C105  A    
C97   C99   A    
C52   H13   S    
C47   H11   S    
C122  O54   S    
C53   C55   S    
C84   C85   A    
Cr6   O19   S    
C32   O23   A    
C66   C72   A    
C74   C75   A    
C39   C40   T    
C67   C68   A    
C108  H35   S    
C9    O15   A    
C67   H20   S    
C50   H10   S    
C24   C25   A    
O52   H51   S    
C28   H6    S    
C78   H27   S    
C115  O39   D    
C54   O3    A    
O38   H44   S    
C18   C19   A    
C35   C110  S    
O28   H39   S    
C4    C106  A    
C82   C83   A    
C81   C82   A    
C82   C91   S    
C112  O33   D    
C60   C61   A    
C9    C73   S    
C64   C66   A    
C89   H28   S    
C120  O50   S    
C111  O32   S    
C31   H4    S    
Cr5   O15   S    
C80   C85   A    
Cr2   O2    S    
Cr1   O25   S    
C8    C57   S    
C90   H22   S    
C117  O44   S    
C47   C48   A    
C60   H21   S    
C13   C76   A    
Cr4   O14   S    
C96   C97   A    
C62   C63   A    
C14   C15   A    
C17   C18   A    
C73   C79   A    
C30   C40   S    
C94   C95   A    
C119  O47   D    
C93   C94   A    
C42   C48   A    
C64   C69   A    
O42   H46   S    
C89   C92   A    
C118  O46   S    
C75   C77   A    
C3    C119  S    
Cr2   O5    S    
C63   H18   S    
O30   H40   S    
C115  O40   S    
C80   C115  S    
C20   C22   A    
C49   C50   A    
C119  O48   S    
C65   O24   A    
C22   C26   A    
C8    O6    A    
C83   C84   A    
Cr5   O9    S    
C121  O51   D    
C3    C4    A    
C28   C29   A    
C27   C28   A    
C50   C57   A    
C51   C111  S    
C84   F7    S    
C103  H31   S    
C96   C105  S    
C11   O13   A    
C5    C107  A    
Cr2   O21   S    
C16   C25   S    
Cr6   O18   S    
C66   C112  S    
C122  O53   D    
C43   O25   A    
C123  O55   D    
C2    C19   S    
C34   C38   A    
C58   C59   A    
C87   H1    S    
C14   C19   A    
C14   C118  S    
C44   C45   A    
C58   C63   A    
C64   H16   S    
C81   H24   S    
Cr1   O12   S    
C54   O2    A    
C61   C62   A    
C76   C87   A    
C8    O11   A    
C33   H5    S    
C7    C76   S    
C3    C108  A    
C121  O52   S    
C1    O20   A    
C21   O21   A    
C106  H32   S    
O50   H50   S    
C100  C120  S    
C36   H7    S    
Cr3   O5    S    
C120  O49   D    
C75   H25   S    
C114  O38   S    
C13   H8    S    
C78   C79   A    
C61   C71   S    
C117  O43   D    
C30   C31   A    
C98   H34   S    
C77   C85   S    
C49   C53   A    
Cr4   O13   S    
C116  O41   D    
C15   H23   S    
O54   H52   S    
C110  O30   S    
C86   C88   A    
O40   H45   S    
Cr5   O8    S    
C5    C43   S    
O34   H42   S    
C111  O31   D    
C69   C70   S    
C46   C47   A    
O48   H49   S    
C32   O1    A    
C37   F2    S    
C45   C46   A    
C1    C42   S    
C113  O35   D    
C20   H38   S    
C114  O37   D    
C2    C98   A    
C11   O18   A    
C10   O16   A    
C79   C114  S    
C20   C25   A    
C46   C56   S    
C27   C33   A    
C113  O36   S    
C109  O27   D    
C10   C72   S    
C7    O10   A    
C100  C101  A    
C109  O28   S    
C22   C109  S    
C89   C90   A    
Cr3   O3    S    
C118  O45   D    
C5    C108  A    
C18   H37   S    
C52   C53   A    
C112  O34   S    
C17   H36   S    
Cr2   O20   S    
