data_mof_unit_21062.cif
_audit_creation_date              2012-12-11T14:33:12-0500
_audit_creation_method            fapswitch 2.2
_symmetry_space_group_name_H-M    P1
_symmetry_Int_Tables_number       1
_space_group_crystal_system       triclinic
_cell_length_a                    6.948775
_cell_length_b                    13.770976
_cell_length_c                    18.104566
_cell_angle_alpha                 112.143802
_cell_angle_beta                  95.110792
_cell_angle_gamma                 90.560185
_cell_volume                      1596.5216671

loop_
_atom_site_label
_atom_site_type_symbol
_atom_type_description
_atom_site_fract_x
_atom_site_fract_y
_atom_site_fract_z
_atom_type_partial_charge
O1    O     O_R   0.484560 0.544530 0.414330 -0.539208
O2    O     O_R   0.197040 0.638810 0.585080 -0.546607
O3    O     O_R   0.026800 0.455470 0.585670 -0.560291
C1    C     C_R   0.374226 0.676339 0.612895 0.664906
O4    O     O_R   0.155000 0.556150 0.414940 -0.540539
O5    O     O_R   0.984450 0.372220 0.414320 -0.504748
C2    C     C_R   0.318176 0.564961 0.386678 0.775056
O6    O     O_R   0.526900 0.627780 0.585680 -0.542407
O7    O     O_3   0.339170 0.439750 0.499990 -0.360196
V1    V     V_3+5 0.064350 0.511180 0.500000 1.391004
O8    O     O_R   0.654880 0.361190 0.414920 -0.546832
C3    C     C_R   0.817305 0.325754 0.386073 0.796251
O9    O     O_R   0.696930 0.443850 0.585060 -0.523118
C4    C     C_R   0.872681 0.433243 0.612080 0.694515
V2    V     V_3+5 0.564340 0.488820 0.500000 1.406843
O10   O     O_3   0.839390 0.560250 0.500010 -0.381675
C5    C     C_R   0.044375 0.863197 0.824374 -0.047913
C6    C     C_R   0.905308 0.397023 0.679137 -0.048999
C7    C     C_R   0.933866 0.823673 0.685268 -0.134016
C8    C     C_R   0.979342 0.790656 0.748158 -0.140754
C9    C     C_R   0.056154 0.970894 0.838046 -0.212442
C10   C     C_R   0.007602 0.007034 0.774755 0.100313
C11   C     C_R   0.950731 0.930240 0.697429 0.119966
C12   C     C_R   0.012710 0.115825 0.785021 0.065363
C13   C     C_R   0.964031 0.144887 0.717469 0.054194
C14   C     C_R   0.921334 0.064195 0.641437 -0.169419
C15   C     C_R   0.914098 0.959473 0.631996 -0.236798
C16   C     C_R   0.063747 0.196502 0.860470 -0.178228
C17   C     C_R   0.067296 0.301379 0.870022 -0.212279
C18   C     C_R   0.016662 0.330823 0.805407 0.126360
C19   C     C_R   0.961035 0.253659 0.728145 0.086732
C20   C     C_R   0.021549 0.437716 0.817978 -0.129387
C21   C     C_R   0.967964 0.470322 0.755398 -0.155871
C22   C     C_R   0.903626 0.289283 0.665291 -0.224380
H1    H     H_    0.878591 0.900309 0.572379 0.118049
H2    H     H_    0.858252 0.235950 0.605007 0.102840
H3    H     H_    0.976812 0.553199 0.766498 0.095246
H4    H     H_    0.109313 0.360447 0.929125 0.114395
H5    H     H_    0.885859 0.765421 0.626560 0.137965
H6    H     H_    0.963414 0.708012 0.737214 0.091012
H7    H     H_    0.101224 0.023793 0.898490 0.091388
H8    H     H_    0.891776 0.079247 0.587453 0.133604
H9    H     H_    0.102832 0.181291 0.913835 0.120620
H10   H     H_    0.068241 0.496488 0.876608 0.137879
C23   C     C_2   0.131891 0.036839 0.181697 -0.336722
C24   C     C_2   0.974222 0.073741 0.221813 0.177396
H11   H     H_    0.684153 0.173364 0.307951 0.087134
C25   C     C_2   0.816603 0.221558 0.320804 -0.337924
C26   C     C_2   0.974383 0.184597 0.280780 0.177832
H12   H     H_    0.264268 0.085075 0.194479 0.084276
C27   C     C_R   0.411285 0.779377 0.681423 -0.053253
C28   C     C_R   0.542789 0.468005 0.838647 -0.076027
C29   C     C_R   0.543018 0.876402 0.818541 -0.121073
C30   C     C_R   0.490852 0.781292 0.755488 -0.147540
C31   C     C_R   0.392502 0.875286 0.670929 -0.216964
C32   C     C_R   0.463425 0.973711 0.731978 0.101264
C33   C     C_R   0.529054 0.971937 0.807855 0.120524
C34   C     C_R   0.468211 0.073620 0.722278 0.014857
C35   C     C_R   0.514521 0.170071 0.792222 0.044434
C36   C     C_R   0.567795 0.161909 0.866366 -0.162753
C37   C     C_R   0.579460 0.065145 0.873354 -0.220009
C38   C     C_R   0.438711 0.082785 0.646183 0.189774
C39   C     C_R   0.430810 0.180428 0.641659 -0.186373
C40   C     C_R   0.457625 0.273667 0.709047 0.057386
C41   C     C_R   0.509317 0.271702 0.785656 0.065568
C42   C     C_R   0.437921 0.369382 0.698947 0.191758
C43   C     C_R   0.481101 0.464392 0.763058 -0.146289
C44   C     C_R   0.553648 0.371848 0.851127 -0.219368
H13   H     H_    0.626929 0.063352 0.931501 0.115684
H14   H     H_    0.595447 0.377698 0.911461 0.095264
H15   H     H_    0.466906 0.537230 0.753745 0.079993
H16   H     H_    0.408589 0.181884 0.582102 0.168206
H17   H     H_    0.597344 0.875304 0.876050 0.148864
H18   H     H_    0.511231 0.708996 0.764941 0.094967
H19   H     H_    0.315238 0.869229 0.615565 0.114376
H20   H     H_    0.606269 0.229702 0.920379 0.120649
H21   H     H_    0.333755 0.667206 0.195277 0.153557
H22   H     H_    0.615483 0.591292 0.307530 0.152269
C45   C     C_2   0.315219 0.602085 0.319265 -0.348876
C46   C     C_2   0.476996 0.611110 0.285320 -0.128637
H23   H     H_    0.772102 0.636788 0.206159 0.126384
C47   C     C_2   0.633970 0.656363 0.183464 -0.346968
C48   C     C_2   0.472260 0.647378 0.217466 -0.127684
H24   H     H_    0.177129 0.621664 0.296538 0.126749
O11   O     O_R   0.421600 0.630430 0.917010 -0.539864
O12   O     O_R   0.793840 0.702190 0.087630 -0.542846
O13   O     O_R   0.964010 0.886170 0.088190 -0.505664
C49   C     C_R   0.630801 0.693436 0.116020 0.761692
O14   O     O_R   0.751460 0.619510 0.917500 -0.540466
O15   O     O_R   0.921330 0.802900 0.916840 -0.544886
C50   C     C_R   0.575918 0.575300 0.902716 0.678928
O16   O     O_R   0.464290 0.713700 0.088350 -0.541336
O17   O     O_3   0.609200 0.818520 0.002630 -0.369844
V3    V     V_3+5 0.884140 0.747190 0.002530 1.396205
O18   O     O_R   0.251150 0.814630 0.917340 -0.542166
C51   C     C_R   0.075524 0.826267 0.891008 0.684624
O19   O     O_R   0.293530 0.897310 0.087470 -0.550929
C52   C     C_R   0.131153 0.932663 0.116407 0.793371
V4    V     V_3+5 0.384070 0.769710 0.002370 1.382075
O20   O     O_3   0.109180 0.698190 0.002460 -0.382395
N1    N     N_3   0.142457 0.253263 0.293856 -0.631004
H25   H     H_    0.169407 0.258025 0.239401 0.208757
H26   H     H_    0.261045 0.222287 0.315677 0.225633
N2    N     N_3   0.806308 0.005007 0.208851 -0.629816
H27   H     H_    0.779525 0.000353 0.263359 0.215340
H28   H     H_    0.687580 0.035864 0.187011 0.221070
N3    N     N_3   0.435838 0.997347 0.570157 -0.699944
H29   H     H_    0.537412 0.942352 0.570713 0.240567
H30   H     H_    0.294806 0.966102 0.549272 0.230400
N4    N     N_3   0.375661 0.370298 0.622112 -0.622835
H31   H     H_    0.353866 0.447878 0.629160 0.264767
H32   H     H_    0.241931 0.329334 0.602727 0.219470

loop_
_geom_bond_atom_site_label_1
_geom_bond_atom_site_label_2
_ccdc_geom_bond_type
C34   C38   A    
C18   C20   A    
C31   C32   A    
C13   C19   A    
O17   V3    S    
C4    C6    S    
O2    C1    A    
O18   C51   A    
C1    O6    A    
H22   C46   S    
N2    H28   S    
O19   C52   A    
O11   C50   A    
C23   C24   D    
C24   C26   S    
C14   C15   A    
C38   C39   A    
C16   C17   A    
C23   C52   S    
O5    C3    A    
C45   H24   S    
C8    H6    S    
O12   C49   A    
H21   C48   S    
O18   V4    S    
V2    O10   S    
O13   V3    S    
C5    C8    A    
C32   C33   A    
O14   V3    S    
N4    H31   S    
O12   V3    S    
C30   H18   S    
O8    V2    S    
V4    O20   S    
C17   H4    S    
N3    H29   S    
O15   V3    S    
O1    V2    S    
C11   C15   A    
O14   C50   A    
O7    V1    S    
O17   V4    S    
C43   H15   S    
C28   C44   A    
C3    C25   S    
O13   C52   A    
C31   H19   S    
C42   C43   A    
C35   C36   A    
N1    H26   S    
O9    C4    A    
N3    H30   S    
C46   C48   S    
N2    H27   S    
O19   V4    S    
H23   C47   S    
C1    C27   S    
N1    H25   S    
C49   O16   A    
C12   C13   A    
O4    C2    A    
C29   C33   A    
C38   N3    S    
C27   C31   A    
C15   H1    S    
C13   C14   A    
C29   C30   A    
C24   N2    S    
C36   H20   S    
C21   H3    S    
C45   C46   D    
C36   C37   A    
C40   C42   A    
C7    C11   A    
C17   C18   A    
O11   V4    S    
H11   C25   S    
V3    O20   S    
C41   C44   A    
C20   H10   S    
C19   C22   A    
C5    C51   S    
C42   N4    S    
C33   C37   A    
C6    C22   A    
O3    C4    A    
C7    H5    S    
C9    H7    S    
C25   C26   D    
O6    V2    S    
O9    V2    S    
C10   C12   A    
O2    V1    S    
C14   H8    S    
C2    C45   S    
C37   H13   S    
O1    C2    A    
C29   H17   S    
C12   C16   A    
C28   C43   A    
O5    V1    S    
O8    C3    A    
O15   C51   A    
C16   H9    S    
C27   C30   A    
C20   C21   A    
C7    C8    A    
C34   C35   A    
O4    V1    S    
O3    V1    S    
V1    O10   S    
C35   C41   A    
C26   N1    S    
C18   C19   A    
C23   H12   S    
C47   C49   S    
C40   C41   A    
C32   C34   A    
C22   H2    S    
O7    V2    S    
C6    C21   A    
N4    H32   S    
C39   C40   A    
C39   H16   S    
C44   H14   S    
C47   C48   D    
C10   C11   A    
C28   C50   S    
C9    C10   A    
O16   V4    S    
C5    C9    A    
