data_mof_unit_15068.cif
_audit_creation_date              2013-03-05T16:14:17-0500
_audit_creation_method            fapswitch 2.2
_symmetry_space_group_name_H-M    P1
_symmetry_Int_Tables_number       1
_space_group_crystal_system       triclinic
_cell_length_a                    10.801464
_cell_length_b                    10.7253
_cell_length_c                    10.056094
_cell_angle_alpha                 91.553647
_cell_angle_beta                  89.608365
_cell_angle_gamma                 87.511308
_cell_volume                      1163.42372606

loop_
_atom_site_label
_atom_site_type_symbol
_atom_site_description
_atom_site_fract_x
_atom_site_fract_y
_atom_site_fract_z
_atom_type_partial_charge
O1    O     O_R   0.499990 0.316750 0.614620 -0.630521
O2    O     O_R   0.500010 0.683250 0.385380 -0.637333
O3    O     O_R   0.499990 0.316780 0.385290 -0.643686
O4    O     O_R   0.500010 0.683220 0.614710 -0.646382
C1    C     C_R   0.499214 0.260559 0.498717 0.898116
C2    C     C_R   0.499908 0.739452 0.501295 0.917413
O5    O     O_R   0.316760 0.500000 0.614660 -0.617621
O6    O     O_R   0.683240 0.500000 0.385340 -0.620581
O7    O     O_R   0.316760 0.500020 0.385330 -0.611311
O8    O     O_R   0.683240 0.499980 0.614670 -0.630709
C3    C     C_R   0.260826 0.501759 0.499839 0.956865
C4    C     C_R   0.739337 0.500100 0.500263 0.949876
Zn1   Zn    Zn3+2 0.500000 0.499980 0.653120 0.964519
Zn2   Zn    Zn3+2 0.500000 0.500020 0.346880 0.956570
H1    H     H_    0.268508 0.024600 0.138461 0.196800
H2    H     H_    0.700760 0.820803 0.006302 0.191058
C5    C     C_R   0.228303 0.222774 0.132236 0.055334
C6    C     C_R   0.800877 0.652589 0.940837 0.020302
C7    C     C_R   0.178394 0.330880 0.203619 0.401933
C8    C     C_R   0.860327 0.587164 0.831828 0.360893
C9    C     C_R   0.139574 0.317055 0.338862 -0.049196
C10   C     C_R   0.863486 0.644946 0.705924 0.020225
C11   C     C_R   0.154945 0.200586 0.400939 0.000856
C12   C     C_R   0.807818 0.765580 0.689775 0.050514
C13   C     C_R   0.196669 0.094945 0.325273 0.350447
C14   C     C_R   0.749329 0.828770 0.800065 0.378831
C15   C     C_R   0.236298 0.107641 0.194499 -0.270824
C16   C     C_R   0.744775 0.770594 0.922416 -0.264528
C17   C     C_R   0.939789 0.418284 0.414883 0.313193
C18   C     C_R   0.060599 0.591261 0.581232 0.307749
C19   C     C_R   0.872512 0.500564 0.501929 -0.214009
C20   C     C_R   0.127897 0.505246 0.497453 -0.203134
C21   C     C_R   0.932533 0.580389 0.592702 -0.063473
C22   C     C_R   0.068607 0.418717 0.414456 -0.017017
C23   C     C_R   0.556667 0.058294 0.394993 -0.129953
C24   C     C_R   0.440334 0.941627 0.604687 -0.028997
H3    H     H_    0.606228 0.102036 0.316666 0.184618
H4    H     H_    0.393677 0.897079 0.684785 0.172360
C25   C     C_R   0.557105 0.930289 0.396414 -0.201050
C26   C     C_R   0.438673 0.069936 0.602421 -0.154307
H5    H     H_    0.605040 0.876692 0.317341 0.152095
H6    H     H_    0.391789 0.123784 0.682024 0.156064
C27   C     C_R   0.500219 0.872268 0.502149 0.010727
C28   C     C_R   0.497056 0.127821 0.497538 -0.024884
C29   C     C_R   0.440617 0.594651 0.074554 0.176841
C30   C     C_R   0.564595 0.408881 0.925423 0.107770
C31   C     C_R   0.435615 0.591055 0.931760 0.218945
C32   C     C_R   0.555959 0.403694 0.067832 0.143300
N1    N     N_R   0.499970 0.499970 0.857200 -0.121382
N2    N     N_R   0.500030 0.500030 0.142800 -0.125712
C33   C     C_3   0.354590 0.686515 0.864558 -0.694853
H7    H     H_    0.391692 0.780714 0.879562 0.203637
H8    H     H_    0.344084 0.666123 0.759550 0.305627
H9    H     H_    0.259159 0.684355 0.904848 0.282315
C34   C     C_3   0.602094 0.288852 0.136880 -0.721681
H10   H     H_    0.520062 0.237060 0.165817 0.229012
H11   H     H_    0.660609 0.221170 0.077328 0.243428
H12   H     H_    0.658688 0.316418 0.222384 0.310785
C35   C     C_3   0.266536 0.222801 0.987325 -0.705292
H13   H     H_    0.299061 0.128674 0.949339 0.213222
H14   H     H_    0.186499 0.252627 0.925303 0.295922
H15   H     H_    0.344488 0.284871 0.973391 0.242713
C36   C     C_3   0.798470 0.601805 0.079165 -0.674323
H16   H     H_    0.730352 0.654613 0.144866 0.201338
H17   H     H_    0.772886 0.503175 0.076595 0.263495
H18   H     H_    0.891087 0.608883 0.124635 0.301652
N3    N     N_R   0.165850 0.451557 0.140531 0.244804
O9    O     O_R   0.113163 0.548614 0.201393 -0.397369
O10   O     O_R   0.207130 0.467198 0.020809 -0.396434
N4    N     N_R   0.916615 0.463381 0.847707 0.201283
O11   O     O_R   0.914491 0.379184 0.752312 -0.424668
O12   O     O_R   0.966524 0.431422 0.959473 -0.316335
C37   C     C_3   0.125847 0.189970 0.547970 -0.698649
H19   H     H_    0.171930 0.263993 0.605980 0.209020
H20   H     H_    0.024293 0.199720 0.565203 0.307461
H21   H     H_    0.160638 0.100257 0.588875 0.259021
C38   C     C_3   0.812548 0.823567 0.554779 -0.730972
H22   H     H_    0.769592 0.761936 0.479525 0.179944
H23   H     H_    0.763788 0.915916 0.550917 0.277593
H24   H     H_    0.910226 0.834422 0.526088 0.309702
N5    N     N_R   0.186818 0.972203 0.375418 0.231006
O13   O     O_R   0.268682 0.884796 0.341751 -0.421381
O14   O     O_R   0.082920 0.941244 0.428437 -0.345088
N6    N     N_R   0.698311 0.954110 0.792562 0.192882
O15   O     O_R   0.596803 0.985712 0.857816 -0.481439
O16   O     O_R   0.767080 0.041745 0.750355 -0.362569
N7    N     N_R   0.878415 0.322669 0.340976 0.189658
O17   O     O_R   0.899437 0.305409 0.214140 -0.378786
O18   O     O_R   0.813152 0.243341 0.403684 -0.419835
N8    N     N_R   0.121138 0.694376 0.644687 0.197471
O19   O     O_R   0.084118 0.741059 0.759602 -0.406206
O20   O     O_R   0.204242 0.752462 0.579216 -0.381073
C39   C     C_3   0.378063 0.702486 0.151310 -0.599768
H25   H     H_    0.305058 0.755621 0.098016 0.219940
H26   H     H_    0.329221 0.668514 0.238626 0.316690
H27   H     H_    0.448428 0.770809 0.178020 0.214176
C40   C     C_3   0.643523 0.310866 0.851228 -0.619673
H28   H     H_    0.667959 0.336523 0.750854 0.295578
H29   H     H_    0.734580 0.297325 0.900056 0.262717
H30   H     H_    0.594681 0.222255 0.846952 0.266697

loop_
_geom_bond_atom_site_label_1
_geom_bond_atom_site_label_2
_geom_bond_distance
_ccdc_geom_bond_type
H2    C16   1.084098 S    
C32   C34   1.498454 S    
C34   H10   1.107404 S    
C36   H17   1.104562 S    
C39   H25   1.103238 S    
C37   H19   1.109753 S    
C18   N8    1.445031 S    
C29   C39   1.505514 S    
N5    O13   1.296946 A    
C31   N1    1.376194 A    
C38   H22   1.108697 S    
O5    C3    1.307026 A    
C30   N1    1.376974 A    
O1    C1    1.297777 A    
C23   H3    1.078503 S    
N6    O16   1.301275 A    
C6    C36   1.508031 S    
O4    Zn1   2.013155 S    
N5    O14   1.299129 A    
N8    O20   1.300032 A    
O6    Zn2   2.019277 S    
C19   C21   1.414383 A    
C7    N3    1.458264 S    
N4    O11   1.300536 A    
C32   N2    1.377748 A    
C36   H18   1.107518 S    
C35   H13   1.111288 S    
C39   H26   1.099898 S    
C13   N5    1.430405 S    
C37   H20   1.109363 S    
C8    N4    1.449286 S    
O2    C2    1.297662 A    
C11   C37   1.517822 S    
C40   H29   1.107981 S    
C40   H28   1.087166 S    
C29   C31   1.436872 A    
C9    C11   1.415405 A    
C30   C32   1.437216 A    
C35   H14   1.110360 S    
C33   H7    1.109875 S    
C5    C15   1.399184 A    
C24   C26   1.376292 A    
C6    C16   1.396790 A    
N6    O15   1.301337 A    
C25   H5    1.083774 S    
C25   C27   1.398400 A    
C9    C22   1.492933 S    
C17   C22   1.391611 A    
N3    O9    1.300500 A    
N3    O10   1.298662 A    
C20   C22   1.408877 A    
C23   C25   1.373154 A    
O7    Zn2   2.014079 S    
H1    C15   1.083991 S    
C26   C28   1.398560 A    
O6    C4    1.308546 A    
C38   H23   1.103176 S    
C23   C28   1.393399 A    
O7    C3    1.296031 A    
O3    Zn2   2.013154 S    
O8    C4    1.296690 A    
C5    C35   1.511913 S    
Zn1   N1    2.052248 S    
O4    C2    1.304520 A    
C1    C28   1.424590 S    
C8    C10   1.425490 A    
C3    C20   1.435075 S    
C39   H27   1.107826 S    
C2    C27   1.424432 S    
C34   H11   1.102948 S    
C4    C19   1.438918 S    
C37   H21   1.108341 S    
C10   C12   1.416725 A    
O1    Zn1   1.992650 S    
C40   H30   1.106819 S    
C38   H24   1.103756 S    
C10   C21   1.494251 S    
C35   H15   1.106309 S    
C14   N6    1.434667 S    
C18   C21   1.397487 A    
C7    C9    1.433867 A    
C30   C40   1.503184 S    
C12   C14   1.414566 A    
O3    C1    1.304722 A    
O8    Zn1   2.014078 S    
C31   C33   1.496216 S    
C13   C15   1.392215 A    
C14   C16   1.396073 A    
C33   H9    1.106394 S    
C24   H4    1.080407 S    
C17   C19   1.402421 A    
C18   C20   1.407302 A    
N8    O19   1.300350 A    
Zn2   N2    2.052248 S    
C29   N2    1.378388 A    
C26   H6    1.083877 S    
C5    C7    1.430234 A    
C6    C8    1.419832 A    
C11   C13   1.403591 A    
O2    Zn2   1.992649 S    
C17   N7    1.438034 S    
C36   H16   1.111547 S    
C12   C38   1.509936 S    
O5    Zn1   2.019280 S    
N7    O17   1.300865 A    
C34   H12   1.099779 S    
N7    O18   1.301386 A    
C24   C27   1.393742 A    
N4    O12   1.297862 A    
C33   H8    1.080305 S    
