data_mof_unit_52123.cif
_audit_creation_date              2012-12-10T22:11:16-0500
_audit_creation_method            fapswitch 2.2
_symmetry_space_group_name_H-M    P1
_symmetry_Int_Tables_number       1
_space_group_crystal_system       triclinic
_cell_length_a                    12.107091
_cell_length_b                    12.289136
_cell_length_c                    22.975397
_cell_angle_alpha                 90.819788
_cell_angle_beta                  90.407145
_cell_angle_gamma                 91.085041
_cell_volume                      3417.35441431

loop_
_atom_site_label
_atom_site_type_symbol
_atom_type_description
_atom_site_fract_x
_atom_site_fract_y
_atom_site_fract_z
_atom_type_partial_charge
C1    C     C_R   0.656876 0.998360 0.579481 0.871619
C2    C     C_R   0.100168 0.836905 0.803148 -0.294847
C3    C     C_R   0.895481 0.219481 0.142917 0.481356
C4    C     C_R   0.098478 0.749385 0.840752 0.500294
C5    C     C_R   0.140338 0.905788 0.307114 -0.182499
C6    C     C_R   0.881408 0.091332 0.681502 -0.162353
C7    C     C_R   0.221832 0.904745 0.349549 -0.198163
C8    C     C_R   0.799308 0.093180 0.639439 -0.200537
C9    C     C_R   0.855751 0.103245 0.310838 -0.179305
C10   C     C_R   0.121785 0.900145 0.676943 -0.165260
C11   C     C_R   0.774979 0.101963 0.352974 -0.200892
C12   C     C_R   0.342910 0.001564 0.420663 0.872734
C13   C     C_R   0.202639 0.900853 0.634934 -0.204812
C14   C     C_3   0.996846 0.006289 0.248046 -0.087106
C15   C     C_3   0.003954 0.992969 0.752027 -0.084144
C16   C     C_R   0.654981 0.001880 0.420691 0.872650
C17   C     C_R   0.345107 0.998175 0.579269 0.871970
C18   C     C_R   0.095476 0.004959 0.289264 0.128752
C19   C     C_R   0.904919 0.994324 0.710791 0.126640
C20   C     C_R   0.257591 0.002319 0.376174 -0.025359
C21   C     C_R   0.741726 0.997249 0.624275 -0.024868
C22   C     C_R   0.899836 0.005121 0.289713 0.132609
C23   C     C_R   0.892281 0.783627 0.142405 -0.201153
C24   C     C_R   0.100651 0.994705 0.710165 0.132811
C25   C     C_R   0.739389 0.003029 0.376336 -0.023531
C26   C     C_R   0.260825 0.997285 0.623526 -0.022669
C27   C     C_R   0.997673 0.104167 0.208426 0.063529
C28   C     C_R   0.003353 0.894551 0.791492 0.062356
C29   C     C_R   0.996157 0.268059 0.125219 -0.136908
C30   C     C_R   0.002446 0.728066 0.873184 -0.137101
C31   C     C_R   0.994140 0.911399 0.204874 0.129302
C32   C     C_R   0.005908 0.088318 0.795054 0.125739
C33   C     C_R   0.991597 0.751125 0.117542 -0.022877
C34   C     C_R   0.105614 0.197388 0.867836 -0.203913
C35   C     C_R   0.007993 0.250895 0.881254 -0.020044
C36   C     C_R   0.992871 0.662943 0.074992 0.860517
C37   C     C_R   0.007114 0.337663 0.924637 0.854851
C38   C     C_R   0.998360 0.351854 0.081036 0.897647
C39   C     C_R   0.001408 0.646608 0.918335 0.885993
C40   C     C_R   0.128922 0.101851 0.318304 -0.163990
C41   C     C_R   0.848354 0.897677 0.693854 -0.184369
C42   C     C_R   0.210529 0.100809 0.360538 -0.199673
C43   C     C_R   0.766716 0.899523 0.651513 -0.197423
C44   C     C_R   0.866789 0.906650 0.315527 -0.170467
C45   C     C_R   0.092323 0.882741 0.176687 -0.163941
C46   C     C_R   0.156508 0.092419 0.696347 -0.188597
C47   C     C_R   0.785959 0.905403 0.357675 -0.199399
C48   C     C_R   0.236939 0.093246 0.653973 -0.193932
C49   C     C_R   0.097256 0.152409 0.189763 -0.180789
C50   C     C_R   0.907336 0.869779 0.823134 -0.158656
C51   C     C_R   0.096286 0.234208 0.149143 -0.271222
C52   C     C_R   0.906891 0.787526 0.863439 -0.271487
C53   C     C_R   0.893271 0.864407 0.185078 -0.176818
C54   C     C_R   0.104045 0.114996 0.825939 -0.159437
C55   C     C_3   0.721444 0.287417 0.159642 0.079588
C56   C     C_R   0.907514 0.139304 0.811290 -0.191495
C57   C     C_3   0.614861 0.218469 0.158045 -0.328608
C58   C     C_3   0.531863 0.259071 0.202681 -0.976168
C59   C     C_3   0.210218 0.620583 0.800001 0.061755
C60   C     C_3   0.148053 0.511764 0.807284 -0.336329
C61   C     C_3   0.170141 0.433235 0.756861 -0.983237
C62   C     C_R   0.091324 0.802361 0.134194 -0.194101
C63   C     C_R   0.908961 0.220627 0.853184 -0.187693
C64   C     C_R   0.898287 0.134663 0.182126 -0.262366
H1    H     H_    0.235249 0.176968 0.381562 0.157968
H2    H     H_    0.828298 0.115449 0.792646 0.141492
H3    H     H_    0.821892 0.092027 0.192005 0.146641
H4    H     H_    0.178342 0.859148 0.783751 0.157462
H5    H     H_    0.110979 0.828463 0.289345 0.136379
H6    H     H_    0.927652 0.165840 0.690987 0.136951
H7    H     H_    0.884900 0.181588 0.295754 0.128371
H8    H     H_    0.075167 0.825343 0.683584 0.131610
H9    H     H_    0.761335 0.828187 0.376202 0.156788
H10   H     H_    0.279612 0.169272 0.644760 0.157874
H11   H     H_    0.174562 0.269472 0.135728 0.182517
H12   H     H_    0.724151 0.824010 0.639672 0.156596
H13   H     H_    0.832219 0.772316 0.887964 0.182944
H14   H     H_    0.814031 0.746763 0.129008 0.156049
H15   H     H_    0.182471 0.218142 0.890097 0.160340
H16   H     H_    0.168927 0.780719 0.114357 0.161920
H17   H     H_    0.831818 0.259317 0.863694 0.161668
H18   H     H_    0.255723 0.827411 0.361922 0.156643
H19   H     H_    0.782639 0.169144 0.618016 0.156252
H20   H     H_    0.741572 0.178646 0.367695 0.154787
H21   H     H_    0.218044 0.826442 0.610734 0.155211
H22   H     H_    0.090871 0.178622 0.308754 0.135958
H23   H     H_    0.904357 0.830463 0.303409 0.133761
H24   H     H_    0.868944 0.819657 0.711730 0.140208
H25   H     H_    0.701456 0.372263 0.147926 0.160860
H26   H     H_    0.754989 0.291144 0.205107 0.107964
H27   H     H_    0.577211 0.221664 0.113846 0.230345
H28   H     H_    0.633908 0.132356 0.167355 0.216344
H29   H     H_    0.566759 0.253645 0.247382 0.266310
H30   H     H_    0.455278 0.208004 0.199981 0.265760
H31   H     H_    0.510390 0.344807 0.193916 0.262369
H32   H     H_    0.300051 0.604377 0.797665 0.169418
H33   H     H_    0.187407 0.658115 0.757735 0.118804
H34   H     H_    0.136502 0.169180 0.716814 0.138664
H35   H     H_    0.174895 0.473982 0.848512 0.250001
H36   H     H_    0.057778 0.525747 0.809472 0.196161
H37   H     H_    0.143726 0.469016 0.714997 0.263609
H38   H     H_    0.122628 0.356253 0.763328 0.270536
H39   H     H_    0.259438 0.414466 0.754882 0.264270
H40   H     H_    0.176524 0.125270 0.205289 0.149073
H41   H     H_    0.832811 0.915813 0.817296 0.150476
H42   H     H_    0.814808 0.890534 0.201997 0.137365
H43   H     H_    0.179626 0.072097 0.817305 0.143889
H44   H     H_    0.170315 0.922708 0.187649 0.136579
O1    O     O_R   0.621380 0.090460 0.561410 -0.629089
O2    O     O_R   0.912410 0.372520 0.941210 -0.624509
O3    O     O_R   0.905660 0.383870 0.059980 -0.570364
O4    O     O_R   0.094340 0.616130 0.940020 -0.569458
O5    O     O_R   0.092570 0.390420 0.063230 -0.636451
O6    O     O_R   0.907430 0.609580 0.936770 -0.638592
O7    O     O_R   0.900680 0.620930 0.055550 -0.633412
O8    O     O_R   0.099320 0.379070 0.944450 -0.640682
O9    O     O_3   0.795764 0.246909 0.117446 -0.623142
O10   O     O_3   0.193403 0.690008 0.848830 -0.628874
O11   O     O_R   0.378620 0.909540 0.438590 -0.629940
O12   O     O_R   0.617150 0.909540 0.438590 -0.629555
O13   O     O_R   0.382850 0.090460 0.561410 -0.629229
O14   O     O_R   0.619720 0.093230 0.440890 -0.629986
O15   O     O_R   0.380280 0.906770 0.559110 -0.629910
O16   O     O_R   0.618800 0.906770 0.559110 -0.629050
O17   O     O_R   0.381200 0.093230 0.440890 -0.629389
O18   O     O_R   0.087590 0.627480 0.058790 -0.630328
Zn1   Zn    Zn3+2 0.501730 0.123520 0.501540 0.936621
Zn2   Zn    Zn3+2 0.498270 0.876480 0.498460 0.935879
Zn3   Zn    Zn3+2 0.125690 0.504390 0.002180 0.959857
Zn4   Zn    Zn3+2 0.874310 0.495610 0.997820 0.960244

loop_
_geom_bond_atom_site_label_1
_geom_bond_atom_site_label_2
_ccdc_geom_bond_type
C1    C21   S    
C57   H28   S    
C8    H19   S    
C41   C43   A    
C14   C18   S    
C2    C4    A    
C14   C31   S    
C60   H35   S    
C49   H40   S    
C57   C58   S    
C15   C32   S    
C37   O8    A    
C3    C64   A    
C15   C19   S    
C6    C19   A    
O5    Zn3   S    
C54   H43   S    
C63   H17   S    
C17   C26   S    
C62   H16   S    
C35   C37   S    
C58   H29   S    
C51   H11   S    
O13   Zn1   S    
C55   H26   S    
C2    H4    S    
C16   O12   A    
C55   O9    S    
C9    C22   A    
C11   C25   A    
C45   C62   A    
C16   C25   S    
C33   C36   S    
C45   H44   S    
C34   C35   A    
C49   C51   A    
C40   H22   S    
O14   Zn1   S    
C3    C29   A    
C16   O14   A    
C18   C40   A    
C3    O9    S    
C1    O1    A    
C21   C43   A    
O4    Zn3   S    
C28   C50   A    
C53   H42   S    
C17   O15   A    
C22   C44   A    
O8    Zn3   S    
C33   C62   A    
C23   C33   A    
C29   C38   S    
C42   H1    S    
C50   C52   A    
C14   C27   S    
C44   H23   S    
C25   C47   A    
C44   C47   A    
C26   C48   A    
O16   Zn2   S    
O11   Zn2   S    
C40   C42   A    
C46   H34   S    
C59   C60   S    
O6    Zn4   S    
C4    O10   S    
C32   C54   A    
O1    Zn1   S    
C23   C53   A    
C46   C48   A    
C64   H3    S    
C48   H10   S    
C47   H9    S    
C5    C7    A    
C38   O5    A    
C6    C8    A    
C12   O17   A    
O18   Zn3   S    
C10   C24   A    
C5    H5    S    
C60   C61   S    
C61   H37   S    
C58   H31   S    
C34   H15   S    
C50   H41   S    
C12   O11   A    
O3    Zn4   S    
C39   O6    A    
C12   C20   S    
C8    C21   A    
C56   C63   A    
C31   C53   A    
C9    C11   A    
C37   O2    A    
C17   O13   A    
C39   O4    A    
C34   C54   A    
C59   O10   S    
C55   C57   S    
C59   H33   S    
C13   C26   A    
C59   H32   S    
C13   H21   S    
C52   H13   S    
C29   C51   A    
C43   H12   S    
C6    H6    S    
C41   H24   S    
C30   C52   A    
C15   C24   S    
C57   H27   S    
C61   H39   S    
C36   O18   A    
C9    H7    S    
C60   H36   S    
C10   C13   A    
C20   C42   A    
O12   Zn2   S    
C5    C18   A    
C11   H20   S    
C24   C46   A    
C14   C22   S    
C61   H38   S    
C58   H30   S    
C1    O16   A    
C55   H25   S    
C15   C28   S    
C56   H2    S    
C30   C39   S    
O2    Zn4   S    
C23   H14   S    
C2    C28   A    
C27   C64   A    
C27   C49   A    
C7    H18   S    
C7    C20   A    
C31   C45   A    
O15   Zn2   S    
O17   Zn1   S    
C35   C63   A    
C38   O3    A    
C36   O7    A    
C32   C56   A    
C4    C30   A    
C19   C41   A    
O7    Zn4   S    
C10   H8    S    
