data_mof_unit_55102.cif
_audit_creation_date              2012-12-11T16:34:30-0500
_audit_creation_method            fapswitch 2.2
_symmetry_space_group_name_H-M    P1
_symmetry_Int_Tables_number       1
_space_group_crystal_system       triclinic
_cell_length_a                    8.381174
_cell_length_b                    17.502861
_cell_length_c                    27.06358
_cell_angle_alpha                 95.896634
_cell_angle_beta                  93.098083
_cell_angle_gamma                 83.21105
_cell_volume                      3917.85311125

loop_
_atom_site_label
_atom_site_type_symbol
_atom_type_description
_atom_site_fract_x
_atom_site_fract_y
_atom_site_fract_z
_atom_type_partial_charge
Ba1   Ba    Ba6+2 0.856110 0.463800 0.523550 1.647748
Ba2   Ba    Ba6+2 0.333710 0.536130 0.476450 1.651955
C1    C     C_3   0.753455 0.189011 0.672510 -0.361707
C2    C     C_R   0.959498 0.586442 0.180556 0.592448
C3    C     C_2   0.772536 0.561425 0.271618 -0.093230
C4    C     C_3   0.226582 0.247682 0.653375 0.294589
C5    C     C_3   0.743836 0.572280 0.326935 -0.094412
C6    C     C_1   0.983624 0.481282 0.339572 0.028726
C7    C     C_2   0.029261 0.485241 0.293449 -0.075671
C8    C     C_2   0.914926 0.523560 0.255648 0.230233
C9    C     C_R   0.027555 0.511280 0.101648 -0.079337
C10   C     C_R   0.024512 0.443337 0.125259 -0.034530
C11   C     C_R   0.057301 0.371774 0.097424 -0.059686
C12   C     C_3   0.707908 0.261066 0.645628 0.406861
C13   C     C_R   0.995054 0.583253 0.129705 -0.029770
C14   C     C_2   0.836235 0.507284 0.351874 -0.220691
C15   C     C_2   0.338723 0.468135 0.638497 -0.259367
C16   C     C_3   0.198520 0.224837 0.704573 -0.314760
C17   C     C_R   0.128059 0.430045 0.970502 0.019939
C18   C     C_R   0.103101 0.572459 0.975399 0.019935
C19   C     C_R   0.133233 0.499239 0.947451 0.049825
C20   C     C_R   0.156442 0.358820 0.940675 -0.100279
C21   C     C_R   0.190447 0.355588 0.890656 -0.062527
C22   C     C_R   0.198014 0.423066 0.867637 -0.029550
C23   C     C_3   0.504206 0.631105 0.626621 0.272653
C24   C     C_R   0.169002 0.495102 0.895836 -0.079329
C25   C     C_R   0.175618 0.562910 0.872363 -0.033617
C26   C     C_R   0.212905 0.557750 0.821415 0.590248
C27   C     C_R   0.233825 0.419589 0.816866 0.591476
C28   C     C_3   0.203142 0.302871 0.420185 0.312525
C29   C     C_2   0.421892 0.438283 0.726422 -0.090542
C30   C     C_3   0.447612 0.418463 0.671406 -0.070575
C31   C     C_1   0.209669 0.511153 0.656032 0.034077
C32   C     C_2   0.172905 0.517958 0.703766 -0.095903
C33   C     C_2   0.285062 0.481052 0.742013 0.229899
C34   C     C_3   0.469394 0.646346 0.681619 -0.363666
C35   C     C_R   0.094464 0.434062 0.022146 0.019965
C36   C     C_R   0.063073 0.507267 0.050018 0.050014
C37   C     C_R   0.066706 0.576500 0.026870 0.019780
C38   C     C_R   0.091475 0.367096 0.047289 -0.099397
C39   C     C_R   0.998681 0.650839 0.106408 -0.062219
C40   C     C_3   0.233456 0.215874 0.407191 -0.384782
C41   C     C_R   0.110684 0.639332 0.950527 -0.099173
C42   C     C_R   0.145985 0.634523 0.900419 -0.061354
C43   C     C_R   0.033463 0.647715 0.056399 -0.100355
C44   C     C_R   0.419353 0.281432 0.523357 -0.281657
C45   C     C_3   0.939346 0.737475 0.354832 0.317496
C46   C     C_R   0.559327 0.256552 0.497840 0.083509
C47   C     C_R   0.618650 0.177387 0.493813 -0.120150
C48   C     C_R   0.535561 0.123475 0.514408 -0.003363
C49   C     C_R   0.389413 0.149246 0.537230 -0.133842
C50   C     C_R   0.330186 0.228013 0.540794 -0.020903
C51   C     C_R   0.602624 0.838107 0.522000 -0.148952
C52   C     C_3   0.917460 0.700920 0.628859 0.282044
C53   C     C_R   0.656114 0.758599 0.518841 0.028016
C54   C     C_R   0.896512 0.781797 0.478107 0.003404
C55   C     C_R   0.842081 0.861231 0.480871 -0.155546
C56   C     C_3   0.925950 0.766910 0.303660 -0.327946
C57   C     C_R   0.696007 0.890021 0.503363 0.010981
C58   C     C_1   0.641152 0.972561 0.506810 0.004159
C59   C     C_1   0.594434 0.041367 0.510016 -0.002670
C60   C     C_R   0.805358 0.731808 0.498709 -0.054325
C61   C     C_3   0.893008 0.707100 0.684589 -0.370114
C62   C     C_3   0.681292 0.354932 0.372334 0.287391
C63   C     C_3   0.663936 0.331412 0.316802 -0.342961
C64   C     C_3   0.809660 0.610248 0.449454 0.033237
C65   C     C_3   0.479608 0.729626 0.335474 0.348627
C66   C     C_3   0.389089 0.796669 0.310382 -0.347083
C67   C     C_R   0.988054 0.448186 0.176193 0.591233
H1    H     H_    0.757875 0.251347 0.607982 0.078016
H2    H     H_    0.809711 0.360908 0.382019 0.019350
H3    H     H_    0.602159 0.409637 0.380879 0.079412
H4    H     H_    0.885840 0.175409 0.675432 0.143030
H5    H     H_    0.740492 0.276257 0.306983 0.124439
H6    H     H_    0.701980 0.376848 0.295713 0.092823
H7    H     H_    0.536476 0.323884 0.306124 0.133354
H8    H     H_    0.574388 0.269068 0.641565 -0.123190
H9    H     H_    0.701495 0.139189 0.651529 0.065676
H10   H     H_    0.400897 0.606347 0.606368 0.038543
H11   H     H_    0.613323 0.589031 0.622299 0.077290
H12   H     H_    0.323284 0.202521 0.377923 0.131491
H13   H     H_    0.348650 0.679257 0.686341 0.136000
H14   H     H_    0.473329 0.591046 0.698399 0.078545
H15   H     H_    0.560760 0.680086 0.701765 0.126431
H16   H     H_    0.705592 0.198058 0.710400 0.111544
H17   H     H_    0.307305 0.231726 0.729151 0.119910
H18   H     H_    0.963798 0.673445 0.350058 0.029769
H19   H     H_    0.823835 0.755599 0.373343 -0.068770
H20   H     H_    0.038667 0.748073 0.283882 0.161588
H21   H     H_    0.824817 0.743513 0.281307 0.118190
H22   H     H_    0.904326 0.831035 0.307282 0.102289
H23   H     H_    0.279691 0.186719 0.440279 0.065810
H24   H     H_    0.604356 0.722664 0.322859 -0.067178
H25   H     H_    0.479441 0.744117 0.376506 0.039678
H26   H     H_    0.453365 0.848766 0.318728 0.064931
H27   H     H_    0.266175 0.810158 0.324309 0.153615
H28   H     H_    0.248139 0.309373 0.657152 0.022522
H29   H     H_    0.381534 0.781976 0.269473 0.120776
H30   H     H_    0.145948 0.457363 0.282097 0.110904
H31   H     H_    0.056636 0.318389 0.114411 0.121484
H32   H     H_    0.504922 0.410253 0.752965 0.096503
H33   H     H_    0.211301 0.299229 0.869927 0.117199
H34   H     H_    0.119555 0.192882 0.393409 0.126234
H35   H     H_    0.152738 0.303706 0.954602 0.067490
H36   H     H_    0.115838 0.309373 0.029477 0.067903
H37   H     H_    0.686995 0.589865 0.245923 0.094383
H38   H     H_    0.974159 0.707172 0.126912 0.118265
H39   H     H_    0.090522 0.697047 0.968675 0.067569
H40   H     H_    0.334216 0.210390 0.639187 -0.022424
H41   H     H_    0.150230 0.687818 0.883643 0.119261
H42   H     H_    0.058075 0.547579 0.715305 0.093583
H43   H     H_    0.032564 0.702886 0.042105 0.067649
H44   H     H_    0.786889 0.488212 0.383629 -0.025300
H45   H     H_    0.822110 0.672632 0.607242 0.051191
H46   H     H_    0.355255 0.457667 0.598796 0.076255
H47   H     H_    0.489585 0.859325 0.538893 0.080796
H48   H     H_    0.320020 0.108169 0.551090 0.075247
H49   H     H_    0.911627 0.900121 0.464832 0.081951
H50   H     H_    0.726246 0.157694 0.473573 0.091012
H51   H     H_    0.371855 0.341866 0.525695 0.061342
H52   H     H_    0.094067 0.262010 0.720931 0.170464
H53   H     H_    0.175162 0.163373 0.701870 0.090909
H54   H     H_    0.318119 0.325442 0.432085 0.010422
H55   H     H_    0.117890 0.314761 0.450755 0.069141
H56   H     H_    0.908465 0.760458 0.617402 0.018484
H57   H     H_    0.970936 0.636400 0.510464 0.227174
H58   H     H_    0.739979 0.563178 0.454613 0.153745
H59   H     H_    0.906645 0.573565 0.433386 0.093480
H60   H     H_    0.758676 0.649737 0.421567 -0.046617
H61   H     H_    0.869079 0.650615 0.695935 0.110926
H62   H     H_    0.788357 0.750283 0.693874 0.085900
H63   H     H_    0.001301 0.726017 0.705613 0.132326
N1    N     N_R   0.955122 0.519326 0.203363 -0.424326
N2    N     N_R   0.243115 0.486440 0.794221 -0.422585
N3    N     N_2   0.857428 0.651838 0.495786 -0.435888
O1    O     O_2   0.910880 0.540430 0.617910 -0.477468
O2    O     O_2   0.230413 0.770125 0.464490 -0.465526
O3    O     O_3   0.066068 0.769191 0.382334 -0.587866
O4    O     O_3   0.142880 0.540370 0.557740 -0.478839
O5    O     O_3   0.562610 0.408580 0.475460 -0.497083
O6    O     O_2   0.365880 0.685750 0.523280 -0.428655
O7    O     O_3   0.528925 0.700921 0.608839 -0.650624
O8    O     O_2   0.448124 0.512990 0.325909 -0.476547
O9    O     O_3   0.406503 0.661957 0.321664 -0.565347
O10   O     O_2   0.983636 0.388932 0.196112 -0.596550
O11   O     O_2   0.255650 0.356704 0.792672 -0.623342
O12   O     O_3   0.633646 0.297481 0.398157 -0.639499
O13   O     O_2   0.933702 0.649224 0.204621 -0.620333
O14   O     O_2   0.220349 0.616769 0.801538 -0.604982
O15   O     O_3   0.675650 0.402220 0.588450 -0.480164
O16   O     O_2   0.752647 0.476353 0.676558 -0.485280
O17   O     O_3   0.071031 0.664537 0.617519 -0.631850
O18   O     O_3   0.770481 0.324885 0.672761 -0.571284
O19   O     O_2   0.823810 0.314230 0.476690 -0.463415
O20   O     O_3   0.086630 0.363340 0.564170 -0.467564
O21   O     O_2   0.999693 0.226002 0.528490 -0.483833
O22   O     O_3   0.090973 0.236622 0.621892 -0.581733
O23   O     O_2   0.278810 0.459550 0.382060 -0.443016
O24   O     O_3   0.046820 0.459570 0.442260 -0.521660
O25   O     O_3   0.514050 0.597710 0.411540 -0.482408
O26   O     O_3   0.138863 0.336216 0.377725 -0.625334
O27   O     O_3   0.627090 0.591350 0.524530 -0.483005
O28   O     O_3   0.103080 0.636600 0.435820 -0.491753
P1    P     P_3+3 0.078810 0.562990 0.610370 0.981236
P2    P     P_3+3 0.645380 0.325580 0.462150 0.979052
P3    P     P_3+3 0.128247 0.262660 0.563287 0.955951
P4    P     P_3+3 0.110900 0.436950 0.389630 0.981921
P5    P     P_3+3 0.074332 0.739214 0.442052 0.988356
P6    P     P_3+3 0.661789 0.408658 0.653050 0.969370
P7    P     P_3+3 0.544457 0.686586 0.544256 0.967111
P8    P     P_3+3 0.528639 0.585507 0.346081 0.966976

loop_
_geom_bond_atom_site_label_1
_geom_bond_atom_site_label_2
_ccdc_geom_bond_type
C30   P6    S    
C5    P8    S    
C4    O22   S    
C1    H16   S    
C23   H11   S    
C67   O10   D    
C23   O7    S    
C8    N1    S    
C19   C24   A    
C14   H44   S    
Ba2   O27   S    
C51   C57   A    
C43   H43   S    
C2    C13   A    
C64   H58   S    
O9    P8    S    
C24   C25   A    
C66   H27   S    
C63   H7    S    
C26   N2    Am   
Ba2   O4    S    
C29   H32   S    
O4    P1    S    
C17   C19   A    
C22   C24   A    
C32   C33   S    
C35   C38   A    
C36   C37   A    
C55   C57   A    
O15   P6    S    
C52   C61   S    
O20   P3    S    
C2    O13   D    
C53   C60   A    
C44   C50   A    
C20   H35   S    
C54   C55   A    
O3    P5    S    
Ba1   Ba2   S    
C62   H2    S    
Ba1   O20   S    
C22   C27   A    
C11   C38   A    
O12   P2    S    
C50   P3    S    
C9    C13   A    
C25   C42   A    
C46   P2    S    
Ba1   P1    S    
C34   H13   S    
Ba2   O24   S    
C65   H25   S    
C21   C22   A    
O19   P2    D    
C61   H62   S    
Ba1   O1    S    
C17   C35   A    
C7    C8    S    
C53   P7    S    
C40   H23   S    
Ba1   O4    S    
C51   H47   S    
O7    P7    S    
C64   H60   S    
C27   N2    Am   
C26   O14   D    
C6    C14   D    
C40   H34   S    
C56   H22   S    
C32   H42   S    
C12   H1    S    
C54   P5    S    
C40   H12   S    
C15   C31   D    
O24   P4    S    
C65   O9    S    
C33   N2    S    
O23   P4    D    
C31   C32   D    
C3    H37   S    
C51   C53   A    
C4    C16   S    
C52   H56   S    
C44   C46   A    
C66   H26   S    
C65   C66   S    
C61   H61   S    
C4    H28   S    
Ba1   O24   S    
C31   P1    S    
C13   C39   A    
C27   O11   D    
C12   H8    S    
C18   C37   A    
C6    C7    D    
C52   O17   S    
C16   H52   S    
C63   H5    S    
C49   C50   A    
C58   C59   T    
C45   H18   S    
C60   N3    S    
O22   P3    S    
C9    C36   A    
C41   C42   A    
C35   C36   A    
C6    P4    S    
C29   C30   S    
O27   P7    S    
O21   P3    D    
Ba2   O23   S    
C17   C20   A    
C48   C49   A    
C44   H51   S    
Ba1   O15   S    
C16   H17   S    
C61   H63   S    
C18   C19   A    
C28   H54   S    
C56   H21   S    
O26   P4    S    
C1    C12   S    
C16   H53   S    
C46   C47   A    
C10   C67   A    
C28   H55   S    
H57   N3    S    
C62   O12   S    
C4    H40   S    
C29   C33   D    
C38   H36   S    
C18   C41   A    
C15   H46   S    
C3    C5    S    
O1    P1    D    
O5    P2    S    
C15   C30   S    
C5    C14   S    
C67   N1    Am   
C39   H38   S    
Ba1   P2    S    
C23   H10   S    
C48   C59   S    
O17   P1    S    
C63   H6    S    
Ba2   O28   S    
Ba1   O27   S    
C9    C10   A    
C7    H30   S    
O16   P6    D    
C37   C43   A    
Ba2   O5    S    
C62   C63   S    
C11   H31   S    
O28   P5    S    
O8    P8    D    
C3    C8    D    
C12   O18   S    
C45   H19   S    
C45   C56   S    
C47   H50   S    
C34   H15   S    
C52   H45   S    
C45   O3    S    
O6    P7    D    
C49   H48   S    
O25   P8    S    
C64   H59   S    
C54   C60   A    
C41   H39   S    
C62   H3    S    
Ba1   O19   S    
C1    H4    S    
C56   H20   S    
C66   H29   S    
C23   C34   S    
C64   N3    S    
C21   H33   S    
C57   C58   S    
C10   C11   A    
C55   H49   S    
Ba2   O25   S    
C47   C48   A    
O18   P6    S    
C25   C26   A    
C65   H24   S    
Ba2   O6    S    
C39   C43   A    
C20   C21   A    
C28   C40   S    
Ba1   O5    S    
C34   H14   S    
C28   O26   S    
C1    H9    S    
Ba2   P4    S    
O2    P5    D    
C2    N1    Am   
C42   H41   S    
