data_mof_unit_22003.cif
_audit_creation_date              2012-12-11T16:04:51-0500
_audit_creation_method            fapswitch 2.2
_symmetry_space_group_name_H-M    P1
_symmetry_Int_Tables_number       1
_space_group_crystal_system       triclinic
_cell_length_a                    10.685327
_cell_length_b                    10.636758
_cell_length_c                    16.809039
_cell_angle_alpha                 99.146614
_cell_angle_beta                  99.045866
_cell_angle_gamma                 61.374793
_cell_volume                      1648.37346018

loop_
_atom_site_label
_atom_site_type_symbol
_atom_type_description
_atom_site_fract_x
_atom_site_fract_y
_atom_site_fract_z
_atom_type_partial_charge
Br1   Br    Br    0.567391 0.493708 0.787243 -0.450437
Br2   Br    Br    0.266761 0.610095 0.897498 -0.435196
C1    C     C_R   0.382622 0.706322 0.386773 0.543699
C2    C     C_3   0.305081 0.696789 0.232259 -0.131321
C3    C     C_3   0.373157 0.749056 0.307937 0.054288
C4    C     C_R   0.406249 0.373821 0.357414 0.544766
C5    C     C_3   0.495215 0.731058 0.262248 -0.134873
C6    C     C_3   0.404444 0.888388 0.241945 -0.130431
C7    C     C_3   0.284684 0.905234 0.289860 -0.105603
C8    C     C_3   0.215772 0.853605 0.213456 -0.098625
C9    C     C_3   0.336732 0.834368 0.166184 0.049343
C10   C     C_3   0.474400 0.250639 0.783286 -0.113275
C11   C     C_3   0.451143 0.396889 0.763443 0.138793
C12   C     C_3   0.741371 0.397243 0.254513 -0.121563
C13   C     C_3   0.373017 0.376430 0.681374 0.017438
C14   C     C_3   0.393629 0.231170 0.701514 -0.164285
C15   C     C_3   0.247911 0.310940 0.737872 -0.171030
C16   C     C_R   0.782508 0.373067 0.404382 0.515171
C17   C     C_3   0.227690 0.456853 0.718754 -0.020600
C18   C     C_3   0.307603 0.474043 0.801527 0.161388
C19   C     C_3   0.329524 0.328966 0.818650 0.044179
C20   C     C_1   0.858014 0.322960 0.703593 -0.013941
C21   C     C_1   0.904187 0.289088 0.771455 -0.030709
C22   C     C_1   0.321609 0.845998 0.705104 -0.017080
C23   C     C_3   0.844253 0.331522 0.328059 0.053631
C24   C     C_1   0.284362 0.891858 0.771938 -0.028998
C25   C     C_R   0.960529 0.283940 0.102874 0.560019
C26   C     C_R   0.322153 0.302723 0.119161 0.548361
C27   C     C_R   0.295743 0.889676 0.088026 0.582679
C28   C     C_R   0.353270 0.779028 0.625569 0.561504
C29   C     C_R   0.946419 0.273823 0.856180 0.545629
C30   C     C_R   0.307314 0.291552 0.891223 0.577022
C31   C     C_R   0.246607 0.942436 0.852679 0.540851
C32   C     C_R   0.408566 0.380084 0.601759 0.598600
C33   C     C_R   0.783456 0.374950 0.627398 0.560028
C34   C     C_3   0.915041 0.185438 0.278924 -0.012842
C35   C     C_1   0.375261 0.359828 0.272769 -0.069865
C36   C     C_1   0.349671 0.341903 0.201522 -0.066022
C37   C     C_3   0.813557 0.252073 0.204105 -0.105869
C38   C     C_R   0.094753 0.576444 0.680671 0.059151
C39   C     C_R   0.049008 0.720772 0.711965 -0.062795
C40   C     C_R   0.934376 0.832485 0.672604 -0.109543
C41   C     C_R   0.865557 0.801543 0.600569 -0.120775
C42   C     C_R   0.910765 0.658891 0.568489 -0.087815
C43   C     C_R   0.022922 0.546299 0.608906 -0.038243
C44   C     C_R   0.928247 0.054619 0.311896 0.025122
C45   C     C_3   0.025241 0.228194 0.257159 -0.157250
C46   C     C_R   0.869820 0.969132 0.265867 -0.097052
C47   C     C_R   0.862653 0.861908 0.300485 -0.106996
C48   C     C_R   0.909745 0.841473 0.381905 -0.087453
C49   C     C_R   0.966471 0.926541 0.428459 -0.049151
C50   C     C_R   0.980085 0.029370 0.393077 -0.046810
C51   C     C_3   0.951290 0.375845 0.307461 -0.136616
C52   C     C_3   0.847905 0.443157 0.233430 -0.109092
C53   C     C_3   0.920782 0.297509 0.183955 0.041434
C54   C     C_3   0.426359 0.678310 0.184502 -0.135542
Cr1   Cr    Cr6+3 0.608340 0.611040 0.520430 1.001112
Cr2   Cr    Cr6+3 0.287650 0.601120 0.489350 0.992003
Cr3   Cr    Cr6+3 0.604040 0.287870 0.490280 1.002719
Cr4   Cr    Cr6+3 0.054020 0.052700 0.970850 1.045028
Cr5   Cr    Cr6+3 0.059230 0.375120 0.993390 1.057049
Cr6   Cr    Cr6+3 0.374950 0.061200 0.992340 1.040615
H1    H     H_    0.624349 0.453828 0.257265 0.099800
H2    H     H_    0.006497 0.426421 0.351913 0.130251
H3    H     H_    0.820232 0.548818 0.213559 0.126398
H4    H     H_    0.255704 0.625592 0.229553 0.125304
H5    H     H_    0.483805 0.587448 0.139310 0.142303
H6    H     H_    0.608475 0.687822 0.287670 0.126035
H7    H     H_    0.103955 0.748391 0.765277 0.178538
H8    H     H_    0.901023 0.943164 0.697098 0.119131
H9    H     H_    0.778617 0.888035 0.569012 0.109709
H10   H     H_    0.860094 0.636426 0.511536 0.137453
H11   H     H_    0.057391 0.436298 0.582659 0.107622
H12   H     H_    0.444789 0.967631 0.243753 0.134494
H13   H     H_    0.828576 0.985476 0.203336 0.105928
H14   H     H_    0.817899 0.796526 0.264542 0.103285
H15   H     H_    0.902104 0.759867 0.408838 0.087999
H16   H     H_    0.002225 0.911198 0.491728 0.121772
H17   H     H_    0.024589 0.094147 0.430100 0.088471
H18   H     H_    0.232440 0.992487 0.337734 0.126902
H19   H     H_    0.101112 0.903615 0.190581 0.142752
H20   H     H_    0.575245 0.166169 0.811008 0.157322
H21   H     H_    0.428645 0.129695 0.660703 0.150179
H22   H     H_    0.165309 0.273978 0.729882 0.092514
H23   H     H_    0.754929 0.206739 0.158596 0.129086
H24   H     H_    0.141762 0.168350 0.251935 0.102691
O1    O     O_R   0.751220 0.499230 0.435170 -0.558451
O2    O     O_R   0.412990 0.180750 0.091610 -0.512054
O3    O     O_R   0.366620 0.943130 0.065760 -0.494178
O4    O     O_R   0.477220 0.727600 0.436870 -0.502702
O5    O     O_R   0.160510 0.906330 0.879210 -0.473726
O6    O     O_R   0.930190 0.179050 0.889450 -0.489571
O7    O     O_R   0.909140 0.398170 0.896710 -0.440948
O8    O     O_R   0.186190 0.363460 0.918830 -0.494212
O9    O     O_R   0.401670 0.173200 0.913310 -0.527420
O10   O     O_R   0.356120 0.936130 0.900470 -0.450958
O11   O     O_3   0.162740 0.163010 0.985530 -0.339077
O12   O     O_R   0.297880 0.469080 0.560050 -0.499775
O13   O     O_R   0.258650 0.745120 0.411470 -0.522219
O14   O     O_R   0.297070 0.467240 0.395960 -0.509755
O15   O     O_R   0.488830 0.252610 0.387790 -0.491804
O16   O     O_R   0.724400 0.302390 0.420980 -0.513350
O17   O     O_R   0.752100 0.501210 0.612190 -0.487879
O18   O     O_R   0.478040 0.729440 0.600970 -0.467724
O19   O     O_R   0.259530 0.747110 0.588490 -0.528625
O20   O     O_R   0.489720 0.254590 0.564810 -0.516324
O21   O     O_R   0.725220 0.304230 0.585080 -0.513612
O22   O     O_3   0.500010 0.500010 0.500020 -0.303727
O23   O     O_R   0.171830 0.913880 0.057510 -0.503837
O24   O     O_R   0.940690 0.186050 0.054730 -0.494757
O25   O     O_R   0.920470 0.405720 0.075010 -0.498274
O26   O     O_R   0.196690 0.370460 0.084120 -0.504905

loop_
_geom_bond_atom_site_label_1
_geom_bond_atom_site_label_2
_ccdc_geom_bond_type
C30   O8    A    
C31   O10   A    
Cr6   O10   S    
C39   C40   A    
C17   C18   S    
Cr2   O12   S    
C27   O3    A    
C5    C6    S    
C52   H3    S    
C51   C52   S    
C26   O26   A    
C13   C17   S    
C20   C33   S    
C1    O4    A    
C45   C53   S    
C23   C51   S    
C33   O17   A    
C31   O5    A    
C51   H2    S    
Cr5   O7    S    
C13   C14   S    
Cr6   O3    S    
C44   C50   A    
C40   H8    S    
C34   C45   S    
C43   H11   S    
C16   O16   A    
C4    O15   A    
Cr4   O23   S    
C15   C17   S    
C5    H6    S    
C37   C53   S    
C10   C14   S    
C25   O24   A    
C14   C15   S    
C26   O2    A    
C34   C44   S    
C50   H17   S    
C7    C8    S    
C13   C32   S    
Cr2   O22   S    
C45   C51   S    
C12   C37   S    
C25   O25   A    
Cr6   O9    S    
C2    C54   S    
C46   H13   S    
C16   C23   S    
C5    C54   S    
Cr4   O6    S    
C38   C43   A    
Cr1   O17   S    
C19   C30   S    
C44   C46   A    
C47   H14   S    
Cr3   O20   S    
Cr1   O4    S    
Br2   C18   S    
C49   C50   A    
Cr3   O15   S    
C45   H24   S    
Cr2   O14   S    
Cr4   O11   S    
C8    C9    S    
C3    C5    S    
Cr5   O8    S    
C6    C7    S    
C29   O7    A    
Cr6   O2    S    
C10   C19   S    
C14   H21   S    
Cr3   O21   S    
Cr1   O1    S    
C7    H18   S    
C4    O14   A    
C41   C42   A    
C3    C7    S    
C35   C36   T    
Cr6   O11   S    
C24   C31   S    
C26   C36   S    
Cr1   O22   S    
C6    H12   S    
C48   C49   A    
C4    C35   S    
C10   H20   S    
C10   C11   S    
C46   C47   A    
C12   C52   S    
C29   O6    A    
C11   C13   S    
C28   O19   A    
Br1   C11   S    
C40   C41   A    
C37   H23   S    
C2    C8    S    
Cr5   O25   S    
C48   H15   S    
C42   C43   A    
C39   H7    S    
Cr4   O5    S    
C27   O23   A    
Cr1   O18   S    
C52   C53   S    
C38   C39   A    
C41   H9    S    
C11   C18   S    
Cr3   O16   S    
C34   C37   S    
Cr5   O11   S    
Cr2   O13   S    
C16   O1    A    
C22   C24   T    
C2    C3    S    
C1    C3    S    
C54   H5    S    
C8    H19   S    
Cr3   O22   S    
Cr2   O19   S    
C15   H22   S    
C49   H16   S    
C2    H4    S    
C6    C9    S    
C12   H1    S    
Cr4   O24   S    
C32   O12   A    
C42   H10   S    
C32   O20   A    
C25   C53   S    
C12   C23   S    
C22   C28   S    
C33   O21   A    
C17   C38   S    
C23   C34   S    
C1    O13   A    
C30   O9    A    
C18   C19   S    
C9    C27   S    
C47   C48   A    
C28   O18   A    
C20   C21   T    
Cr5   O26   S    
C9    C54   S    
C21   C29   S    
C15   C19   S    
