data_mof_unit_16106.cif
_audit_creation_date              2012-10-26T20:51:14-0400
_audit_creation_method            fapswitch 2.2
_symmetry_space_group_name_H-M    P1
_symmetry_Int_Tables_number       1
_space_group_crystal_system       triclinic
_cell_length_a                    12.999104
_cell_length_b                    10.870551
_cell_length_c                    9.548375
_cell_angle_alpha                 90.655103
_cell_angle_beta                  96.101545
_cell_angle_gamma                 90.545134
_cell_volume                      1341.44702593

loop_
_atom_site_label
_atom_site_type_symbol
_atom_type_description
_atom_site_fract_x
_atom_site_fract_y
_atom_site_fract_z
_atom_type_partial_charge
C1    C     C_R   0.498813 0.262883 0.498983 0.548179
C2    C     C_R   0.495791 0.934157 0.370438 -0.159019
C3    C     C_R   0.502422 0.870463 0.499465 0.002062
C4    C     C_R   0.300569 0.498802 0.473758 0.549339
C5    C     C_R   0.508721 0.940844 0.622552 -0.065643
C6    C     C_3   0.516809 0.935846 0.779770 -0.218975
C7    C     C_3   0.511002 0.078087 0.777537 0.524725
C8    C     C_R   0.588983 0.523379 0.087003 0.164509
C9    C     C_R   0.414535 0.465252 0.061509 -0.026988
C10   C     C_R   0.414521 0.465248 0.912937 0.006724
C11   C     C_R   0.589271 0.522393 0.939564 0.168708
C12   C     C_R   0.028299 0.505044 0.568695 0.063304
C13   C     C_3   0.653262 0.636964 0.945071 -0.287637
C14   C     C_3   0.652461 0.638378 0.103635 -0.277155
C15   C     C_R   0.501210 0.737480 0.500614 0.555301
C16   C     C_R   0.699456 0.498402 0.526251 0.541873
C17   C     C_R   0.812291 0.497285 0.541741 -0.044141
C18   C     C_R   0.187833 0.495491 0.458943 -0.014159
C19   C     C_R   0.024259 0.473144 0.314412 -0.138261
C20   C     C_R   0.131736 0.476297 0.326778 -0.137315
C21   C     C_R   0.135945 0.509702 0.579139 -0.107593
C22   C     C_3   0.416263 0.125156 0.964564 0.018197
C23   C     C_R   0.972183 0.487470 0.434530 0.001473
C24   C     C_3   0.306758 0.146213 0.001355 -0.392233
C25   C     C_3   0.689517 0.138099 0.778571 -0.015308
C26   C     C_3   0.777988 0.198923 0.872251 -0.366954
C27   C     C_3   0.996116 0.632748 0.897335 -0.021727
C28   C     C_3   0.085908 0.688814 0.992819 -0.372460
C29   C     C_R   0.864807 0.484750 0.422060 -0.153624
C30   C     C_R   0.867844 0.510069 0.675170 -0.137511
C31   C     C_R   0.976105 0.518793 0.689615 0.257087
C32   C     C_R   0.505494 0.064870 0.620461 0.061132
C33   C     C_R   0.498688 0.130571 0.496629 -0.016044
C34   C     C_R   0.494461 0.063206 0.369154 -0.170662
Cu1   Cu    Cu3+1 0.499990 0.499980 0.640670 0.971555
Cu2   Cu    Cu3+1 0.500010 0.500020 0.359330 0.929485
H1    H     H_    0.593043 0.902595 0.825694 0.091129
H2    H     H_    0.489962 0.109534 0.269069 0.129302
H3    H     H_    0.491223 0.885064 0.270589 0.130121
H4    H     H_    0.448601 0.889238 0.817475 0.127588
H5    H     H_    0.822298 0.472022 0.318861 0.126545
H6    H     H_    0.466360 0.201761 0.011443 0.180718
H7    H     H_    0.443777 0.036839 0.012490 0.110519
H8    H     H_    0.255561 0.068780 0.959962 0.155867
H9    H     H_    0.306643 0.152054 0.117538 0.103214
H10   H     H_    0.276309 0.233368 0.954609 0.153753
H11   H     H_    0.679209 0.190573 0.679054 0.144937
H12   H     H_    0.344919 0.438086 0.106081 0.114118
H13   H     H_    0.711574 0.041965 0.755883 0.108659
H14   H     H_    0.792045 0.148708 0.973004 0.150572
H15   H     H_    0.849555 0.197704 0.818268 0.107406
H16   H     H_    0.758652 0.295991 0.894956 0.161886
H17   H     H_    0.609534 0.717287 0.143192 0.145826
H18   H     H_    0.981960 0.458995 0.211296 0.112656
H19   H     H_    0.936910 0.598881 0.963929 0.125608
H20   H     H_    0.962242 0.707431 0.828070 0.122481
H21   H     H_    0.144454 0.727352 0.928288 0.151203
H22   H     H_    0.057508 0.763675 0.058340 0.101245
H23   H     H_    0.344826 0.437947 0.847858 0.132765
H24   H     H_    0.122874 0.617664 0.062935 0.157794
H25   H     H_    0.731371 0.621881 0.912059 0.104333
H26   H     H_    0.610232 0.713430 0.892371 0.142863
H27   H     H_    0.730084 0.623040 0.161005 0.119878
H28   H     H_    0.827393 0.513867 0.768102 0.114371
H29   H     H_    0.170923 0.462811 0.233365 0.122700
H30   H     H_    0.179673 0.524623 0.681082 0.166828
N1    N     N_R   0.500660 0.500930 0.148010 -0.235224
N2    N     N_R   0.500660 0.500890 0.852110 -0.225361
O1    O     O_R   0.500000 0.319640 0.618810 -0.451972
O2    O     O_3   0.598812 0.142188 0.848491 -0.556505
O3    O     O_3   0.032757 0.532921 0.820839 -0.580479
O4    O     O_R   0.500010 0.319680 0.381230 -0.514040
O5    O     O_R   0.348990 0.499960 0.599490 -0.517796
O6    O     O_R   0.349000 0.500000 0.361910 -0.513284
O7    O     O_R   0.499990 0.680320 0.618770 -0.503760
O8    O     O_R   0.500000 0.680360 0.381190 -0.508649
O9    O     O_R   0.651000 0.500000 0.638090 -0.510554
O10   O     O_R   0.651010 0.500040 0.400510 -0.504961
O11   O     O_3   0.416007 0.123236 0.816425 -0.534547

loop_
_geom_bond_atom_site_label_1
_geom_bond_atom_site_label_2
_ccdc_geom_bond_type
C15   O7    A    
C30   H28   S    
C21   H30   S    
C18   C21   A    
C17   C29   A    
C19   C20   A    
C7    O2    S    
Cu2   N1    S    
C1    C33   S    
C28   H21   S    
C12   C23   A    
Cu1   O7    S    
C5    C6    S    
C24   H9    S    
C23   C29   A    
C22   O11   S    
C26   H14   S    
C30   C31   A    
C27   H19   S    
C16   O9    A    
Cu2   O8    S    
C2    H3    S    
C13   H26   S    
Cu1   Cu2   S    
C16   C17   S    
C9    C10   A    
C25   H11   S    
C4    O6    A    
C5    C32   A    
C4    C18   S    
C2    C34   A    
C31   O3    S    
C15   O8    A    
C13   C14   S    
C17   C30   A    
C28   H24   S    
C1    O4    A    
C20   H29   S    
C6    H4    S    
C27   H20   S    
C25   C26   S    
C12   C21   A    
Cu1   O9    S    
C1    O1    A    
C19   C23   A    
C9    N1    A    
C26   H16   S    
C22   H7    S    
C33   C34   A    
C6    H1    S    
C4    O5    A    
Cu2   O6    S    
C8    N1    A    
C19   H18   S    
C28   H22   S    
C12   C31   A    
C24   H8    S    
C22   C24   S    
C27   O3    S    
C11   N2    A    
C16   O10   A    
C7    O11   S    
Cu1   O5    S    
C8    C14   S    
C7    C32   S    
C29   H5    S    
C34   H2    S    
C3    C5    A    
C6    C7    S    
C10   N2    A    
C24   H10   S    
C32   C33   A    
C2    C3    A    
Cu2   O10   S    
C26   H15   S    
C11   C13   S    
C22   H6    S    
Cu1   N2    S    
C8    C11   A    
C14   H27   S    
C10   H23   S    
C18   C20   A    
C25   H13   S    
C14   H17   S    
C13   H25   S    
Cu1   O1    S    
C9    H12   S    
C27   C28   S    
C3    C15   S    
C25   O2    S    
Cu2   O4    S    
