data_mof_unit_5875.cif
_audit_creation_date              2012-10-26T19:15:54-0400
_audit_creation_method            fapswitch 2.2
_symmetry_space_group_name_H-M    P1
_symmetry_Int_Tables_number       1
_space_group_crystal_system       triclinic
_cell_length_a                    7.840065
_cell_length_b                    9.089862
_cell_length_c                    17.045408
_cell_angle_alpha                 89.667025
_cell_angle_beta                  94.430772
_cell_angle_gamma                 89.940677
_cell_volume                      1211.09068894

loop_
_atom_site_label
_atom_site_type_symbol
_atom_type_description
_atom_site_fract_x
_atom_site_fract_y
_atom_site_fract_z
_atom_type_partial_charge
Br1   Br    Br    0.810156 0.383794 0.261460 -0.295417
Br2   Br    Br    0.402132 0.795280 0.718308 -0.326540
Br3   Br    Br    0.784536 0.671850 0.111316 -0.273603
Br4   Br    Br    0.458906 0.807620 0.912915 -0.202706
Br5   Br    Br    0.686319 0.208835 0.720650 -0.335730
Br6   Br    Br    0.123398 0.635564 0.262337 -0.309754
C1    C     C_R   0.500033 0.220243 0.499992 0.567565
C2    C     C_R   0.610563 0.540871 0.142108 0.228218
C3    C     C_R   0.573166 0.503008 0.901376 0.143136
C4    C     C_R   0.455099 0.535085 0.095838 0.156068
C5    C     C_R   0.627497 0.378186 0.861250 0.024834
C6    C     C_R   0.302711 0.527423 0.133566 0.033049
C7    C     C_R   0.609689 0.376248 0.778343 0.089375
C8    C     C_R   0.310081 0.540053 0.216229 0.112686
C9    C     C_1   0.500077 0.065426 0.500038 0.026167
C10   C     C_1   0.499941 0.934572 0.500019 0.026655
C11   C     C_2   0.699322 0.249554 0.907056 0.658818
C12   C     C_R   0.499960 0.779757 0.499950 0.567854
C13   C     C_2   0.139310 0.499331 0.086993 0.687705
C14   C     C_R   0.521995 0.497654 0.650941 0.604385
C15   C     C_R   0.478180 0.502569 0.348191 0.575162
C16   C     C_R   0.537905 0.498506 0.736739 -0.021620
C17   C     C_R   0.466056 0.509811 0.260963 -0.040862
C18   C     C_R   0.489087 0.624645 0.776700 0.119949
C19   C     C_R   0.615139 0.496143 0.220409 0.146193
C20   C     C_R   0.509253 0.628203 0.858996 0.219642
Cu1   Cu    Cu3+1 0.669080 0.500010 0.500000 1.151939
Cu2   Cu    Cu3+1 0.330920 0.499990 0.500000 1.153981
H1    H     H_    0.851455 0.175893 0.000006 0.383625
H2    H     H_    0.991720 0.533739 0.986016 0.381292
N1    N     N_1   0.076820 0.499970 0.500010 -0.044733
N2    N     N_1   0.923180 0.500030 0.499990 -0.044901
N3    N     N_2   0.583565 0.499509 0.984626 -0.140005
N4    N     N_2   0.447912 0.537596 0.012308 -0.128893
O1    O     O_R   0.642760 0.288400 0.500000 -0.485157
O2    O     O_R   0.812775 0.271519 0.973335 -0.641401
O3    O     O_2   0.038129 0.411219 0.111459 -0.402717
O4    O     O_R   0.104325 0.566795 0.013492 -0.606961
O5    O     O_R   0.357240 0.711600 0.500000 -0.484849
O6    O     O_R   0.357190 0.288380 0.500000 -0.497771
O7    O     O_R   0.642810 0.711620 0.500000 -0.497790
O8    O     O_R   0.658410 0.498660 0.613920 -0.479552
O9    O     O_R   0.341590 0.501340 0.386080 -0.465818
O10   O     O_R   0.372840 0.498650 0.613930 -0.479768
O11   O     O_R   0.627160 0.501350 0.386070 -0.470341
O12   O     O_2   0.657305 0.124627 0.887908 -0.381412

loop_
_geom_bond_atom_site_label_1
_geom_bond_atom_site_label_2
_ccdc_geom_bond_type
C8    C17   A    
C7    C16   A    
C14   O8    A    
C1    O6    A    
C11   O2    S    
Br6   C8    S    
C3    C5    A    
Cu1   O7    S    
Cu2   O9    S    
Br4   C20   S    
N1    N2    T    
H1    O2    S    
C14   C16   S    
C12   O5    A    
Br5   C7    S    
Cu1   O11   S    
C1    C9    S    
N3    N4    D    
C4    N4    S    
Br1   C19   S    
C2    C19   A    
C5    C7    A    
Cu1   O8    S    
C4    C6    A    
C3    N3    S    
C6    C13   S    
C2    C4    A    
C14   O10   A    
C6    C8    A    
C3    C20   A    
C15   O11   A    
C15   C17   S    
Br2   C18   S    
C16   C18   A    
Cu2   O6    S    
C9    C10   T    
C17   C19   A    
C11   O12   D    
H2    O4    S    
C10   C12   S    
Br3   C2    S    
C12   O7    A    
Cu1   Cu2   S    
C13   O4    S    
C5    C11   S    
C13   O3    D    
Cu2   O5    S    
Cu1   O1    S    
Cu1   N2    S    
C15   O9    A    
C1    O1    A    
Cu2   O10   S    
Cu2   N1    S    
C18   C20   A    
