data_mof_unit_37524.cif
_audit_creation_date              2012-12-11T14:43:30-0500
_audit_creation_method            fapswitch 2.2
_symmetry_space_group_name_H-M    P1
_symmetry_Int_Tables_number       1
_space_group_crystal_system       triclinic
_cell_length_a                    20.935639
_cell_length_b                    7.103416
_cell_length_c                    16.304236
_cell_angle_alpha                 89.998612
_cell_angle_beta                  92.442712
_cell_angle_gamma                 89.994082
_cell_volume                      2422.47393783

loop_
_atom_site_label
_atom_site_type_symbol
_atom_type_description
_atom_site_fract_x
_atom_site_fract_y
_atom_site_fract_z
_atom_type_partial_charge
O1    O     O_R   0.564840 0.505290 0.579830 -0.511541
O2    O     O_R   0.435160 0.005290 0.420170 -0.511616
O3    O     O_R   0.556720 0.179930 0.409350 -0.541732
O4    O     O_R   0.443280 0.679930 0.590650 -0.541776
C1    C     C_R   0.570365 0.344575 0.380889 0.690766
C2    C     C_R   0.429634 0.844587 0.619109 0.690844
O5    O     O_R   0.572280 0.175810 0.578530 -0.548491
O6    O     O_R   0.427720 0.675810 0.421470 -0.548486
O7    O     O_R   0.450830 0.001920 0.590540 -0.534764
O8    O     O_R   0.549170 0.501920 0.409460 -0.534803
C3    C     C_R   0.590252 0.343084 0.604603 0.725515
C4    C     C_R   0.409751 0.843102 0.395395 0.725577
O9    O     O_3   0.460130 0.338030 0.503750 -0.364517
O10   O     O_3   0.539870 0.838030 0.496250 -0.364481
V1    V     V_3+5 0.507400 0.064560 0.499310 1.495227
V2    V     V_3+5 0.492600 0.564560 0.500690 1.495160
C5    C     C_R   0.142469 0.925854 0.170443 -0.092323
C6    C     C_R   0.857514 0.425970 0.829570 -0.092346
C7    C     C_R   0.354632 0.842599 0.334416 -0.095714
C8    C     C_R   0.645385 0.342523 0.665563 -0.095815
C9    C     C_R   0.294103 0.672964 0.226273 -0.147745
C10   C     C_R   0.706036 0.172598 0.773526 -0.147945
C11   C     C_R   0.348323 0.691954 0.278525 -0.215875
C12   C     C_R   0.651794 0.191611 0.721312 -0.215723
C13   C     C_R   0.304945 0.975911 0.337703 0.308033
C14   C     C_R   0.694989 0.476098 0.662394 0.307997
C15   C     C_R   0.250388 0.960211 0.282371 0.027810
C16   C     C_R   0.749558 0.460377 0.717702 0.027910
C17   C     C_R   0.244760 0.805686 0.227412 0.116968
C18   C     C_R   0.755294 0.305577 0.772504 0.116997
C19   C     C_R   0.190650 0.787875 0.173036 -0.305657
C20   C     C_R   0.809424 0.287745 0.826848 -0.305719
C21   C     C_R   0.148343 0.080668 0.225003 0.372953
C22   C     C_R   0.851522 0.581081 0.775171 0.373029
C23   C     C_R   0.202031 0.096959 0.279457 -0.250355
C24   C     C_R   0.797818 0.597378 0.720746 -0.250565
H1    H     H_    0.187331 0.670754 0.130420 0.139016
H2    H     H_    0.812826 0.170397 0.869342 0.139123
H3    H     H_    0.290946 0.554254 0.184539 0.136359
H4    H     H_    0.709274 0.053674 0.815142 0.136341
H5    H     H_    0.205970 0.220754 0.317909 0.134946
H6    H     H_    0.793787 0.721374 0.682423 0.134895
H7    H     H_    0.385448 0.586080 0.276002 0.145778
H8    H     H_    0.614735 0.085540 0.723752 0.145955
C25   C     C_R   0.378218 0.842845 0.836712 -0.119933
C26   C     C_R   0.621811 0.342010 0.163301 -0.119942
H9    H     H_    0.467193 0.841365 0.776887 0.131031
H10   H     H_    0.532829 0.340514 0.223107 0.131029
H11   H     H_    0.402235 0.828918 0.896564 0.177811
H12   H     H_    0.597810 0.327678 0.103459 0.177815
C27   C     C_R   0.387242 0.852430 0.689286 -0.136090
C28   C     C_R   0.612762 0.352358 0.310715 -0.136104
C29   C     C_R   0.079271 0.977734 0.730582 -0.027589
C30   C     C_R   0.920687 0.478303 0.269367 -0.027447
C31   C     C_R   0.117925 0.022810 0.663994 0.388046
C32   C     C_R   0.881998 0.523702 0.335885 0.388106
C33   C     C_R   0.184452 0.014385 0.673707 0.421224
C34   C     C_R   0.815477 0.515018 0.326161 0.421241
C35   C     C_R   0.214274 0.925923 0.743685 -0.100130
C36   C     C_R   0.785707 0.426065 0.256277 -0.100093
C37   C     C_R   0.176302 0.893671 0.812904 -0.067148
C38   C     C_R   0.823705 0.393536 0.187105 -0.067162
C39   C     C_R   0.281407 0.882853 0.749295 -0.001992
C40   C     C_R   0.718593 0.382786 0.250697 -0.001995
C41   C     C_R   0.311230 0.855619 0.828315 0.051928
C42   C     C_R   0.688793 0.355037 0.171699 0.051915
C43   C     C_R   0.273993 0.838354 0.897813 0.352333
C44   C     C_R   0.726049 0.337508 0.102229 0.352354
C45   C     C_R   0.207100 0.848295 0.888734 -0.221593
C46   C     C_R   0.792937 0.347683 0.111315 -0.221671
C47   C     C_R   0.319367 0.858142 0.679047 0.324986
C48   C     C_R   0.680633 0.358353 0.320963 0.325066
C49   C     C_R   0.415626 0.848394 0.768261 -0.244729
C50   C     C_R   0.584391 0.347791 0.231737 -0.244763
C51   C     C_R   0.108700 0.919088 0.806473 -0.097197
C52   C     C_R   0.891296 0.419176 0.193526 -0.097162
H13   H     H_    0.179462 0.826787 0.942567 0.090632
H14   H     H_    0.820593 0.325966 0.057512 0.090779
O11   O     O_R   0.950790 0.256670 0.090520 -0.527821
O12   O     O_R   0.049210 0.756670 0.909480 -0.527834
O13   O     O_R   0.927720 0.590370 0.921470 -0.510825
O14   O     O_R   0.072280 0.090370 0.078530 -0.510919
C53   C     C_R   0.910542 0.422960 0.894096 0.725782
C54   C     C_R   0.089458 0.922935 0.105900 0.725879
O15   O     O_R   0.943270 0.586180 0.090640 -0.542105
O16   O     O_R   0.056730 0.086180 0.909360 -0.542125
O17   O     O_R   0.064850 0.759970 0.079840 -0.548067
O18   O     O_R   0.935150 0.259970 0.920160 -0.548083
C55   C     C_R   0.930028 0.418532 0.119000 0.733561
C56   C     C_R   0.069972 0.918519 0.881002 0.733550
O19   O     O_3   0.039850 0.428050 0.996240 -0.373624
O20   O     O_3   0.960150 0.928050 0.003760 -0.373580
V3    V     V_3+5 0.992610 0.701540 0.000700 1.473969
V4    V     V_3+5 0.007390 0.201540 0.999300 1.473880
O21   O     O_3   0.288768 0.824473 0.603472 -0.614524
H15   H     H_    0.320201 0.805565 0.560675 0.289261
O22   O     O_3   0.711238 0.325182 0.396579 -0.614475
H16   H     H_    0.679808 0.306437 0.439393 0.289211
C57   C     C_3   0.007741 0.010793 0.721896 -0.727105
H17   H     H_    0.982321 0.986407 0.778956 0.227115
H18   H     H_    0.998124 0.159155 0.703725 0.211121
H19   H     H_    0.986485 0.914597 0.674531 0.215245
C58   C     C_3   0.992208 0.511498 0.278046 -0.727069
H20   H     H_    0.017665 0.486538 0.221059 0.227091
H21   H     H_    0.001784 0.660043 0.295944 0.211091
H22   H     H_    0.013460 0.415777 0.325608 0.215040
O23   O     O_3   0.218365 0.114042 0.617285 -0.585343
H23   H     H_    0.257101 0.166541 0.645931 0.295926
O24   O     O_3   0.781508 0.614905 0.382456 -0.585268
H24   H     H_    0.742755 0.667130 0.353736 0.295878
O25   O     O_3   0.093335 0.093724 0.590095 -0.606073
H25   H     H_    0.047240 0.065721 0.583154 0.305279
O26   O     O_3   0.906535 0.595152 0.409708 -0.606045
H26   H     H_    0.952667 0.567665 0.416650 0.305273
O27   O     O_3   0.100958 0.215827 0.224277 -0.645435
H27   H     H_    0.113673 0.317725 0.263180 0.282402
O28   O     O_3   0.898802 0.716542 0.776026 -0.645454
H28   H     H_    0.885988 0.818666 0.737279 0.282344
O29   O     O_3   0.310126 0.114428 0.397027 -0.635268
H29   H     H_    0.267465 0.134249 0.419482 0.315590
O30   O     O_3   0.689720 0.614911 0.603206 -0.635263
H30   H     H_    0.732365 0.635035 0.580754 0.315472
O31   O     O_3   0.303816 0.805928 0.973858 -0.651501
H31   H     H_    0.271151 0.797897 0.016013 0.286284
O32   O     O_3   0.696252 0.304596 0.026211 -0.651485
H32   H     H_    0.728927 0.296429 0.984073 0.286281

loop_
_geom_bond_atom_site_label_1
_geom_bond_atom_site_label_2
_ccdc_geom_bond_type
C42   C44   A    
C39   C41   A    
O14   V4    S    
C46   H14   S    
C34   O24   S    
C45   H13   S    
O21   H15   S    
O1    C3    A    
C54   O17   A    
O2    C4    A    
C2    O7    A    
O22   H16   S    
O31   H31   S    
C29   C57   S    
O5    C3    A    
C5    C21   A    
C25   C49   A    
C26   C42   A    
C28   C50   A    
C33   C35   A    
C47   O21   S    
C34   C36   A    
O27   H27   S    
C11   H7    S    
C15   C17   A    
C38   C46   A    
C36   C38   A    
O16   V4    S    
C51   C56   S    
C24   H6    S    
C8    C12   A    
C41   C43   A    
C32   O26   S    
C1    C28   S    
C14   O30   S    
C20   H2    S    
C2    C27   S    
C52   C55   S    
C22   O28   S    
O5    V1    S    
C53   O18   A    
O6    V2    S    
C38   C52   A    
C29   C51   A    
C27   C47   A    
C7    C13   A    
C13   O29   S    
O13   C53   A    
O18   V4    S    
C48   O22   S    
C29   C31   A    
C30   C32   A    
C3    C8    S    
C21   O27   S    
C35   C37   A    
H10   C50   S    
C30   C58   S    
H9    C49   S    
O11   V4    S    
O4    C2    A    
O16   C56   A    
O15   C55   A    
C15   C23   A    
C9    C17   A    
C37   C51   A    
C19   H1    S    
C43   C45   A    
C40   C42   A    
O4    V2    S    
C7    C11   A    
C28   C48   A    
O19   V3    S    
O13   V3    S    
C57   H17   S    
C9    H3    S    
C25   H11   S    
O6    C4    A    
C10   H4    S    
C57   H19   S    
O20   V4    S    
C6    C53   S    
C58   H21   S    
O1    V2    S    
O2    V1    S    
C6    C22   A    
O30   H30   S    
C30   C52   A    
C33   O23   S    
C39   C47   A    
O14   C54   A    
C31   C33   A    
C25   C41   A    
O32   H32   S    
C12   H8    S    
C10   C12   A    
C6    C20   A    
O23   H23   S    
C26   C50   A    
O3    V1    S    
O26   H26   S    
C37   C45   A    
C10   C18   A    
O25   H25   S    
C31   O25   S    
C35   C39   A    
C27   C49   A    
O3    C1    A    
C43   O31   S    
O29   H29   S    
C13   C15   A    
C26   H12   S    
C14   C16   A    
C36   C40   A    
C5    C54   S    
C9    C11   A    
O7    V1    S    
C1    O8    A    
C17   C19   A    
O8    V2    S    
O24   H24   S    
O19   V4    S    
C18   C20   A    
C8    C14   A    
C5    C19   A    
O17   V3    S    
C4    C7    S    
C16   C18   A    
O20   V3    S    
C21   C23   A    
C32   C34   A    
C58   H22   S    
C22   C24   A    
C40   C48   A    
O12   C56   A    
C23   H5    S    
O11   C55   A    
O15   V3    S    
C16   C24   A    
C44   C46   A    
O9    V2    S    
C58   H20   S    
O10   V1    S    
O12   V3    S    
O28   H28   S    
C44   O32   S    
C57   H18   S    
