data_mof_unit_63650.cif
_audit_creation_date              2012-12-10T18:25:39-0500
_audit_creation_method            fapswitch 2.2
_symmetry_space_group_name_H-M    P1
_symmetry_Int_Tables_number       1
_space_group_crystal_system       triclinic
_cell_length_a                    15.010195
_cell_length_b                    13.998893
_cell_length_c                    19.194202
_cell_angle_alpha                 89.976863
_cell_angle_beta                  89.900982
_cell_angle_gamma                 90.073855
_cell_volume                      4033.19336607

loop_
_atom_site_label
_atom_site_type_symbol
_atom_type_description
_atom_site_fract_x
_atom_site_fract_y
_atom_site_fract_z
_atom_type_partial_charge
Br1   Br    Br    0.332306 0.604814 0.302580 -0.369894
Br2   Br    Br    0.667696 0.395191 0.697420 -0.369896
Br3   Br    Br    0.332193 0.604824 0.697808 -0.413643
Br4   Br    Br    0.667805 0.395172 0.302191 -0.413642
C1    C     C_R   0.326452 0.499960 0.500130 0.934269
C2    C     C_R   0.092557 0.412298 0.500043 0.117695
C3    C     C_R   0.953470 0.325603 0.499591 -0.171551
C4    C     C_R   0.046530 0.674397 0.500413 -0.171551
C5    C     C_R   0.046030 0.325576 0.499798 -0.183003
C6    C     C_R   0.953970 0.674424 0.500206 -0.183002
C7    C     C_R   0.561109 0.798197 0.460542 -0.031682
C8    C     C_R   0.438890 0.201803 0.539457 -0.031683
C9    C     C_R   0.438860 0.797980 0.539429 -0.023592
C10   C     C_R   0.561140 0.202020 0.460571 -0.023592
C11   C     C_R   0.437356 0.898661 0.540363 0.006499
C12   C     C_R   0.673548 0.500040 0.499871 0.934269
C13   C     C_R   0.562644 0.101339 0.459636 0.006499
C14   C     C_R   0.562625 0.898888 0.459618 0.012776
C15   C     C_R   0.437375 0.101112 0.540382 0.012776
C16   C     C_R   0.499995 0.949375 0.499996 0.091283
C17   C     C_R   0.500004 0.050625 0.500004 0.091283
C18   C     C_R   0.375053 0.949585 0.580493 -0.169112
C19   C     C_R   0.624946 0.050415 0.419507 -0.169112
C20   C     C_R   0.624937 0.950043 0.419498 -0.180251
C21   C     C_R   0.375063 0.049957 0.580502 -0.180251
C22   C     C_R   0.500047 0.500015 0.365825 1.039338
C23   C     C_R   0.815065 0.413026 0.499531 -0.179017
C24   C     C_R   0.499953 0.499985 0.634175 1.039338
C25   C     C_R   0.430758 0.545708 0.254749 0.148641
C26   C     C_R   0.569242 0.454293 0.745251 0.148639
C27   C     C_R   0.430592 0.545614 0.745409 0.143999
C28   C     C_R   0.569406 0.454384 0.254590 0.144000
C29   C     C_R   0.431008 0.545595 0.182387 0.601464
C30   C     C_R   0.568991 0.454406 0.817613 0.601462
C31   C     C_R   0.430830 0.545472 0.817773 0.606788
C32   C     C_R   0.569168 0.454525 0.182226 0.606787
C33   C     C_R   0.500089 0.500065 0.145932 -0.333929
C34   C     C_R   0.184935 0.586974 0.500472 -0.179016
C35   C     C_R   0.499909 0.499934 0.854068 -0.333929
C36   C     C_R   0.500079 0.500047 0.290756 -0.378364
C37   C     C_R   0.499921 0.499953 0.709244 -0.378363
C38   C     C_R   0.499936 0.499958 0.929841 0.409777
C39   C     C_R   0.500062 0.500040 0.070159 0.409776
C40   C     C_R   0.815297 0.587076 0.499836 -0.228740
C41   C     C_R   0.184703 0.412925 0.500165 -0.228740
C42   C     C_R   0.769410 0.500064 0.499717 -0.053961
C43   C     C_R   0.230590 0.499936 0.500284 -0.053960
C44   C     C_R   0.907197 0.412352 0.499652 0.110598
C45   C     C_R   0.092802 0.587649 0.500351 0.110597
C46   C     C_R   0.953657 0.500013 0.499902 0.068894
C47   C     C_R   0.046343 0.499987 0.500101 0.068893
C48   C     C_R   0.907443 0.587702 0.499960 0.117695
F1    F     F_    0.362430 0.587413 0.147806 -0.570013
F2    F     F_    0.637572 0.412592 0.852195 -0.570012
F3    F     F_    0.362262 0.587304 0.852520 -0.570269
F4    F     F_    0.637735 0.412692 0.147480 -0.570268
H1    H     H_    0.779505 0.654342 0.499904 0.162587
H2    H     H_    0.391412 0.242038 0.570162 0.138254
H3    H     H_    0.391348 0.757590 0.570098 0.162914
H4    H     H_    0.608652 0.242410 0.429902 0.162915
H5    H     H_    0.326348 0.911814 0.611858 0.167512
H6    H     H_    0.673651 0.088186 0.388142 0.167513
H7    H     H_    0.673645 0.912455 0.388131 0.157108
H8    H     H_    0.326355 0.087545 0.611869 0.157108
H9    H     H_    0.220495 0.345658 0.500097 0.162587
H10   H     H_    0.779101 0.345765 0.499353 0.169640
H11   H     H_    0.220898 0.654236 0.500650 0.169640
H12   H     H_    0.918123 0.258043 0.499400 0.157078
H13   H     H_    0.081877 0.741958 0.500605 0.157078
H14   H     H_    0.081179 0.257994 0.499751 0.154327
H15   H     H_    0.918821 0.742006 0.500253 0.154327
H16   H     H_    0.608588 0.757962 0.429838 0.138254
N1    N     N_R   0.533331 0.424555 0.034528 -0.068996
N2    N     N_R   0.466666 0.575444 0.965471 -0.068996
N3    N     N_R   0.533271 0.424516 0.965438 -0.069003
N4    N     N_R   0.466727 0.575483 0.034562 -0.069002
N5    N     N_R   0.500000 0.750030 0.500000 -0.109093
N6    N     N_R   0.500000 0.249970 0.500000 -0.109093
O1    O     O_R   0.367850 0.580280 0.500020 -0.615707
O2    O     O_R   0.632150 0.419720 0.499980 -0.615708
O3    O     O_R   0.632150 0.580280 0.499980 -0.642915
O4    O     O_R   0.367850 0.419720 0.500020 -0.642915
O5    O     O_R   0.499990 0.580300 0.398140 -0.598761
O6    O     O_R   0.500010 0.419700 0.601860 -0.598762
O7    O     O_R   0.500010 0.580300 0.601860 -0.598943
O8    O     O_R   0.499990 0.419700 0.398140 -0.598943
Zn1   Zn    Zn3+2 0.500000 0.607200 0.500000 0.998999
Zn2   Zn    Zn3+2 0.500000 0.392800 0.500000 0.998999

loop_
_geom_bond_atom_site_label_1
_geom_bond_atom_site_label_2
_ccdc_geom_bond_type
C23   C44   A    
C39   N1    A    
O5    Zn1   S    
C7    C14   A    
C22   O5    A    
C2    C41   A    
C24   O6    A    
C6    C48   A    
C2    C5    A    
O1    Zn1   S    
C34   C45   A    
C1    C43   S    
C38   N3    A    
C13   C19   A    
N2    N4    A    
C14   C20   A    
C28   C32   A    
C32   C33   A    
C15   C17   A    
O8    Zn2   S    
C25   C29   A    
C24   C37   S    
C10   N6    A    
C8    C15   A    
C7    N5    A    
C3    H12   S    
C11   C18   A    
C45   C47   A    
C18   C21   A    
C8    N6    A    
C46   C48   A    
C19   C20   A    
C26   C37   A    
C2    C47   A    
C1    O1    A    
C8    H2    S    
C6    H15   S    
C40   C48   A    
C44   C46   A    
N1    N3    A    
C10   C13   A    
C40   C42   A    
C35   C38   S    
C41   C43   A    
C29   F1    S    
C11   C16   A    
C9    N5    A    
C38   N2    A    
C26   C30   A    
O7    Zn1   S    
C31   F3    S    
C30   C35   A    
C5    H14   S    
C12   C42   S    
C7    H16   S    
C29   C33   A    
C12   O2    A    
C21   H8    S    
C33   C39   S    
C31   C35   A    
C32   F4    S    
C40   H1    S    
C22   O8    A    
Br1   C25   S    
C46   C47   A    
C4    H13   S    
O3    Zn1   S    
C34   H11   S    
Br3   C27   S    
C34   C43   A    
Br4   C28   S    
C23   C42   A    
C30   F2    S    
C20   H7    S    
C9    C11   A    
C41   H9    S    
C27   C31   A    
N6    Zn2   S    
C39   N4    A    
C3    C5    A    
C27   C37   A    
O6    Zn2   S    
C9    H3    S    
C10   H4    S    
Br2   C26   S    
C3    C44   A    
O2    Zn2   S    
C23   H10   S    
C18   H5    S    
C1    O4    A    
C22   C36   S    
O4    Zn2   S    
C25   C36   A    
C12   O3    A    
C14   C16   A    
C28   C36   A    
C15   C21   A    
C13   C17   A    
C16   C17   A    
N5    Zn1   S    
C4    C6    A    
C24   O7    A    
C19   H6    S    
C4    C45   A    
