data_mof_unit_37313.cif
_audit_creation_date              2012-12-10T18:56:24-0500
_audit_creation_method            fapswitch 2.2
_symmetry_space_group_name_H-M    P1
_symmetry_Int_Tables_number       1
_space_group_crystal_system       triclinic
_cell_length_a                    10.715918
_cell_length_b                    9.820935
_cell_length_c                    19.29399
_cell_angle_alpha                 89.756119
_cell_angle_beta                  90.179329
_cell_angle_gamma                 90.009029
_cell_volume                      2030.4775936

loop_
_atom_site_label
_atom_site_type_symbol
_atom_type_description
_atom_site_fract_x
_atom_site_fract_y
_atom_site_fract_z
_atom_type_partial_charge
C1    C     C_R   0.872612 0.499929 0.500540 0.001281
C2    C     C_R   0.127429 0.499932 0.500446 -0.012038
C3    C     C_R   0.373818 0.509062 0.964117 -0.196632
C4    C     C_R   0.601807 0.525353 0.034849 -0.195801
C5    C     C_R   0.375250 0.510229 0.035946 -0.193383
C6    C     C_R   0.600432 0.523130 0.963113 -0.192754
C7    C     C_R   0.489322 0.517583 0.071297 0.171340
C8    C     C_R   0.486530 0.513996 0.927741 0.174336
C9    C     C_R   0.259820 0.499990 0.500092 0.861278
C10   C     C_R   0.740192 0.499998 0.500185 0.879251
C11   C     C_R   0.500325 0.500428 0.365709 0.963904
C12   C     C_R   0.499161 0.499694 0.634098 0.953876
C13   C     C_R   0.063830 0.378317 0.487839 -0.179409
C14   C     C_R   0.936210 0.621443 0.513438 -0.185416
C15   C     C_R   0.936028 0.378308 0.487901 -0.189263
C16   C     C_R   0.064039 0.621451 0.513361 -0.214650
C17   C     C_R   0.562117 0.403631 0.747445 0.464871
C18   C     C_R   0.559115 0.610703 0.254972 0.473007
C19   C     C_R   0.437055 0.399507 0.253366 0.473910
C20   C     C_R   0.413675 0.593063 0.742539 0.468452
C21   C     C_R   0.560676 0.410727 0.819546 -0.278826
C22   C     C_R   0.557526 0.612765 0.182820 -0.281586
C23   C     C_R   0.430209 0.408566 0.181367 -0.277125
C24   C     C_R   0.411763 0.596863 0.814474 -0.273137
C25   C     C_R   0.485760 0.506756 0.852728 -0.037012
C26   C     C_R   0.491588 0.513561 0.146403 -0.034514
C27   C     C_R   0.590318 0.071750 0.534712 -0.089893
C28   C     C_R   0.410015 0.928276 0.464994 -0.090187
C29   C     C_R   0.409794 0.072288 0.465191 -0.085646
C30   C     C_R   0.590123 0.927736 0.534891 -0.055785
C31   C     C_R   0.492246 0.499118 0.709018 -0.274582
C32   C     C_R   0.499707 0.502658 0.290345 -0.280187
H1    H     H_    0.662638 0.126253 0.562261 0.141583
H2    H     H_    0.338260 0.873858 0.436916 0.125167
H3    H     H_    0.337616 0.127210 0.437497 0.146758
H4    H     H_    0.662047 0.872889 0.562843 0.119589
H5    H     H_    0.112412 0.283850 0.477433 0.156417
H6    H     H_    0.887597 0.715895 0.523825 0.151216
H7    H     H_    0.887294 0.283819 0.477563 0.154911
H8    H     H_    0.112825 0.715911 0.523686 0.158770
H9    H     H_    0.618755 0.342181 0.849722 0.159450
H10   H     H_    0.606942 0.692321 0.155147 0.159371
H11   H     H_    0.378161 0.332794 0.152611 0.160033
H12   H     H_    0.354256 0.671703 0.840367 0.165293
H13   H     H_    0.285462 0.501519 0.936948 0.136460
H14   H     H_    0.690392 0.530275 0.061951 0.142104
H15   H     H_    0.287908 0.505022 0.063970 0.141601
H16   H     H_    0.687870 0.528072 0.935162 0.141021
N1    N     N_R   0.500000 0.857200 0.500000 -0.070157
N2    N     N_R   0.500000 0.142800 0.500000 -0.079105
O1    O     O_R   0.316770 0.614620 0.500000 -0.629903
O2    O     O_R   0.683230 0.385380 0.500000 -0.633077
O3    O     O_R   0.683230 0.614620 0.500000 -0.629936
O4    O     O_R   0.316770 0.385380 0.500000 -0.631893
O5    O     O_R   0.500030 0.614710 0.398180 -0.591137
O6    O     O_R   0.499970 0.385290 0.601820 -0.599023
O7    O     O_R   0.499970 0.614710 0.601820 -0.581513
O8    O     O_R   0.500030 0.385290 0.398180 -0.590290
Zn1   Zn    Zn3+2 0.500000 0.653120 0.500000 0.982488
Zn2   Zn    Zn3+2 0.500000 0.346880 0.500000 0.969688
O9    O     O_3   0.642079 0.314419 0.714330 -0.600778
C33   C     C_3   0.597795 0.180201 0.723356 -0.266404
H17   H     H_    0.657413 0.110538 0.692806 0.175829
H18   H     H_    0.500354 0.169236 0.703893 0.172175
H19   H     H_    0.604203 0.147019 0.778405 0.151468
O10   O     O_3   0.628423 0.706358 0.291033 -0.582731
C34   C     C_3   0.569447 0.834501 0.285614 -0.276982
H20   H     H_    0.579849 0.878086 0.232698 0.142874
H21   H     H_    0.468968 0.829035 0.300089 0.149788
H22   H     H_    0.615335 0.905441 0.322330 0.187315
O11   O     O_3   0.371818 0.298466 0.288047 -0.589165
C35   C     C_3   0.431854 0.172399 0.277449 -0.304559
H23   H     H_    0.383757 0.093636 0.308864 0.172204
H24   H     H_    0.531023 0.175675 0.294822 0.164418
H25   H     H_    0.425870 0.139930 0.222414 0.149594
O12   O     O_3   0.342996 0.685814 0.705263 -0.585968
C36   C     C_3   0.223925 0.628959 0.693805 -0.291116
H26   H     H_    0.229877 0.533164 0.663326 0.142945
H27   H     H_    0.167471 0.702449 0.663177 0.191184
H28   H     H_    0.174316 0.610317 0.743559 0.154343

loop_
_geom_bond_atom_site_label_1
_geom_bond_atom_site_label_2
_ccdc_geom_bond_type
O5    Zn1   S    
C19   O11   S    
C9    O1    A    
C10   O2    A    
O3    Zn1   S    
O4    Zn2   S    
C36   H26   S    
C27   H1    S    
C5    H15   S    
C7    C26   S    
C6    H16   S    
C28   C29   A    
C4    C7    A    
C4    H14   S    
O7    Zn1   S    
O8    Zn2   S    
C23   H11   S    
C20   O12   S    
C23   C26   A    
C10   O3    A    
C2    C13   A    
C33   H18   S    
O2    Zn2   S    
C17   O9    S    
C20   C24   A    
C1    C15   A    
C11   O8    A    
C2    C16   A    
C13   H5    S    
C27   N2    A    
O10   C34   S    
C28   H2    S    
C27   C30   A    
C8    C25   S    
C35   H25   S    
C19   C32   A    
C29   N2    A    
C36   H27   S    
C34   H20   S    
O12   C36   S    
C4    C6    A    
C3    C8    A    
C5    C7    A    
C6    C8    A    
C3    H13   S    
C17   C21   A    
O6    Zn2   S    
C34   H21   S    
C19   C23   A    
C33   H17   S    
C14   H6    S    
C28   N1    A    
C24   C25   A    
C15   H7    S    
C12   O6    A    
C16   H8    S    
C21   H9    S    
C12   O7    A    
C35   H24   S    
C30   N1    A    
C11   C32   S    
C13   C15   A    
C12   C31   S    
C24   H12   S    
C14   C16   A    
O1    Zn1   S    
C11   O5    A    
C36   H28   S    
C21   C25   A    
C33   H19   S    
C18   C22   A    
C1    C10   S    
C35   H23   S    
C3    C5    A    
C9    O4    A    
C18   O10   S    
C29   H3    S    
N1    Zn1   S    
C30   H4    S    
C34   H22   S    
N2    Zn2   S    
O11   C35   S    
C22   H10   S    
C17   C31   A    
O9    C33   S    
C18   C32   A    
C22   C26   A    
C1    C14   A    
C2    C9    S    
C20   C31   A    
