data_mof_unit_47828.cif
_audit_creation_date              2012-12-10T17:09:52-0500
_audit_creation_method            fapswitch 2.2
_symmetry_space_group_name_H-M    P1
_symmetry_Int_Tables_number       1
_space_group_crystal_system       triclinic
_cell_length_a                    10.800496
_cell_length_b                    13.04979
_cell_length_c                    11.760768
_cell_angle_alpha                 99.36055
_cell_angle_beta                  91.166894
_cell_angle_gamma                 93.091204
_cell_volume                      1632.44594313

loop_
_atom_site_label
_atom_site_type_symbol
_atom_type_description
_atom_site_fract_x
_atom_site_fract_y
_atom_site_fract_z
_atom_type_partial_charge
C1    C     C_R   0.506669 0.299568 0.478554 0.922488
C2    C     C_R   0.054722 0.399711 0.459441 -0.144739
C3    C     C_R   0.127749 0.490325 0.508949 -0.125954
C4    C     C_R   0.071418 0.584013 0.546710 0.301512
C5    C     C_R   0.942819 0.586996 0.538824 0.374757
C6    C     C_R   0.871671 0.499355 0.483555 -0.119162
C7    C     C_R   0.472417 0.811881 0.531298 -0.268562
C8    C     C_R   0.513302 0.185391 0.466824 -0.308113
C9    C     C_R   0.538000 0.015612 0.351536 0.412348
C10   C     C_R   0.534950 0.123318 0.359398 0.293243
C11   C     C_R   0.498549 0.137162 0.565525 0.514069
C12   C     C_R   0.262374 0.494394 0.502279 0.941046
C13   C     C_R   0.478974 0.028508 0.553003 -0.206354
C14   C     C_R   0.499256 0.967412 0.444893 -0.209958
C15   C     C_R   0.476807 0.859630 0.432253 0.418228
C16   C     C_R   0.443188 0.871022 0.637792 0.351897
C17   C     C_R   0.435604 0.979426 0.644802 0.352397
C18   C     C_R   0.374389 0.409438 0.029152 -0.184431
C19   C     C_R   0.388498 0.414152 0.147791 0.546434
C20   C     C_R   0.559519 0.537601 0.153709 0.631924
C21   C     C_R   0.555101 0.527497 0.030678 -0.201080
C22   C     C_R   0.455804 0.467300 0.969154 -0.193765
C23   C     C_R   0.490690 0.699674 0.521004 0.933929
C24   C     C_R   0.442714 0.462885 0.848230 0.506152
C25   C     C_R   0.620819 0.578097 0.848260 0.506791
C26   C     C_R   0.645447 0.573712 0.966107 0.243121
C27   C     C_R   0.737425 0.497553 0.495650 0.848283
C28   C     C_R   0.098355 0.297723 0.442063 0.321264
C29   C     C_R   0.028167 0.215225 0.375233 0.316436
C30   C     C_R   0.923110 0.236484 0.313208 0.283190
C31   C     C_R   0.873792 0.334477 0.338616 0.296434
C32   C     C_R   0.930811 0.411439 0.426524 -0.191798
Cu1   Cu    Cu3+1 0.509250 0.507730 0.615930 1.107829
Cu2   Cu    Cu3+1 0.490750 0.492270 0.384070 1.150615
H1    H     H_    0.300299 0.358209 0.985049 0.234768
N1    N     N_R   0.523180 0.519350 0.790130 -0.279957
N2    N     N_R   0.476820 0.480650 0.209890 -0.256390
O1    O     O_R   0.506570 0.354460 0.582000 -0.525662
O2    O     O_R   0.490940 0.341410 0.386200 -0.500636
O3    O     O_R   0.327470 0.506530 0.597920 -0.516523
O4    O     O_R   0.311840 0.493480 0.402120 -0.554046
O5    O     O_R   0.509060 0.658590 0.613800 -0.539125
O6    O     O_R   0.493430 0.645540 0.418000 -0.525009
O7    O     O_R   0.688160 0.506520 0.597880 -0.542955
O8    O     O_R   0.672530 0.493470 0.402080 -0.512482
Cl1   Cl    Cl    0.161543 0.698794 0.602951 -0.469592
Cl2   Cl    Cl    0.351000 0.048329 0.757346 -0.448751
Cl3   Cl    Cl    0.561699 0.176095 0.232006 -0.399750
O9    O     O_3   0.501220 0.196644 0.674341 -0.466470
C33   C     C_3   0.623074 0.201277 0.721226 -0.179804
H2    H     H_    0.626200 0.251902 0.806832 0.211535
H3    H     H_    0.690909 0.236134 0.666253 0.111680
H4    H     H_    0.650684 0.122976 0.734282 0.138663
Cl4   Cl    Cl    0.322472 0.382677 0.772037 -0.438683
O10   O     O_3   0.705013 0.628861 0.786095 -0.514294
C34   C     C_3   0.727096 0.735166 0.834049 -0.097316
H5    H     H_    0.828089 0.751233 0.852326 0.238992
H6    H     H_    0.677970 0.761546 0.914993 0.121310
H7    H     H_    0.699851 0.782970 0.768948 0.167795
Cl5   Cl    Cl    0.800679 0.602964 0.017986 -0.442640
Cl6   Cl    Cl    0.289235 0.330308 0.211761 -0.528997
Cl7   Cl    Cl    0.661315 0.632134 0.237178 -0.393399
Cl8   Cl    Cl    0.225830 0.264403 0.519504 -0.485766
O11   O     O_3   0.070296 0.115831 0.360981 -0.521131
C35   C     C_3   0.998392 0.056481 0.428301 -0.098569
H8    H     H_    0.899909 0.045697 0.396902 0.171038
H9    H     H_    0.004048 0.092115 0.521136 0.159432
H10   H     H_    0.035761 0.978224 0.421043 0.226080
O12   O     O_3   0.863936 0.160063 0.231783 -0.517081
C36   C     C_3   0.933624 0.147537 0.130773 -0.017596
H11   H     H_    0.023172 0.112650 0.144653 0.192098
H12   H     H_    0.950408 0.222450 0.098255 0.169249
H13   H     H_    0.879977 0.093383 0.062643 0.181645
Cl9   Cl    Cl    0.775839 0.367544 0.230085 -0.461333
Cl10  Cl    Cl    0.871984 0.705092 0.584635 -0.535406
Cl11  Cl    Cl    0.411235 0.792173 0.299131 -0.449736
O13   O     O_3   0.396681 0.818699 0.723223 -0.508095
C37   C     C_3   0.455905 0.854160 0.831743 -0.066984
H14   H     H_    0.392154 0.900698 0.889138 0.237082
H15   H     H_    0.545367 0.900104 0.828129 0.094487
H16   H     H_    0.473605 0.785374 0.872473 0.153448
Cl12  Cl    Cl    0.606554 0.944833 0.229190 -0.435599

loop_
_geom_bond_atom_site_label_1
_geom_bond_atom_site_label_2
_ccdc_geom_bond_type
C6    C32   A    
O10   C34   S    
C12   O3    A    
Cu2   N2    S    
C21   C26   A    
C4    Cl1   S    
O13   C37   S    
C24   N1    A    
C23   O5    A    
Cu1   O5    S    
C28   C29   A    
C16   O13   S    
C5    C6    A    
C37   H15   S    
C24   Cl4   S    
C1    C8    S    
Cu1   N1    S    
C23   O6    A    
C34   H5    S    
C2    C32   A    
C18   C19   A    
C3    C12   S    
C19   N2    A    
C27   O7    A    
C6    C27   S    
C16   C17   A    
C35   H9    S    
C33   H3    S    
C36   H11   S    
C9    C10   A    
C9    Cl12  S    
C27   O8    A    
C7    C15   A    
C15   Cl11  S    
C29   O11   S    
C13   C14   A    
Cu2   O4    S    
C33   H2    S    
C33   H4    S    
Cu2   O2    S    
Cu1   O3    S    
C25   O10   S    
C37   H14   S    
C31   Cl9   S    
C25   C26   A    
C5    Cl10  S    
C9    C14   A    
C29   C30   A    
C11   O9    S    
C31   C32   A    
C35   H10   S    
C36   H13   S    
Cu1   Cu2   S    
Cu2   O8    S    
C1    O1    A    
C7    C16   A    
C35   H8    S    
C10   Cl3   S    
C22   C24   A    
C3    C4    A    
C30   O12   S    
C12   O4    A    
C18   H1    S    
C18   C22   A    
Cu1   O7    S    
Cu2   O6    S    
C17   Cl2   S    
C4    C5    A    
C2    C28   A    
Cu1   O1    S    
C34   H7    S    
C13   C17   A    
O11   C35   S    
C2    C3    A    
C20   N2    A    
C11   C13   A    
C37   H16   S    
C30   C31   A    
C19   Cl6   S    
C8    C11   A    
C7    C23   S    
C34   H6    S    
C20   Cl7   S    
O12   C36   S    
C1    O2    A    
C25   N1    A    
C28   Cl8   S    
C20   C21   A    
C8    C10   A    
O9    C33   S    
C14   C15   A    
C36   H12   S    
C21   C22   A    
C26   Cl5   S    
