data_mof_unit_67138.cif
_audit_creation_date              2012-12-11T17:48:23-0500
_audit_creation_method            fapswitch 2.2
_symmetry_space_group_name_H-M    P1
_symmetry_Int_Tables_number       1
_space_group_crystal_system       triclinic
_cell_length_a                    8.209282
_cell_length_b                    12.655066
_cell_length_c                    14.938942
_cell_angle_alpha                 96.260688
_cell_angle_beta                  97.554751
_cell_angle_gamma                 98.418481
_cell_volume                      1508.86066639

loop_
_atom_site_label
_atom_site_type_symbol
_atom_type_description
_atom_site_fract_x
_atom_site_fract_y
_atom_site_fract_z
_atom_type_partial_charge
Ba1   Ba    Ba6+2 0.843750 0.550210 0.455600 1.645944
Ba2   Ba    Ba6+2 0.346090 0.449880 0.544410 1.628879
C1    C     C_3   0.557520 0.923123 0.188397 -0.425649
C2    C     C_3   0.587669 0.829504 0.240788 0.376132
C3    C     C_3   0.414695 0.284658 0.265406 0.310719
C4    C     C_3   0.375152 0.252534 0.162770 -0.404440
C5    C     C_3   0.146898 0.235605 0.796610 0.365926
C6    C     C_3   0.191944 0.212989 0.894158 -0.370589
C7    C     C_3   0.640240 0.175078 0.791042 0.379847
C8    C     C_3   0.526867 0.094044 0.718779 -0.283575
C9    C     C_R   0.829426 0.433515 0.830361 -0.007260
C10   C     C_R   0.898493 0.440049 0.923093 -0.031864
C11   C     C_R   0.040422 0.453352 0.109629 -0.021973
C12   C     C_3   0.145059 0.890560 0.221531 0.301317
C13   C     C_R   0.878848 0.397819 0.077068 -0.050004
C14   C     C_R   0.807373 0.394988 0.986865 -0.114485
C15   C     C_R   0.109437 0.465101 0.203514 0.050866
C16   C     C_R   0.271671 0.520132 0.231152 -0.287508
C17   C     C_R   0.086580 0.530576 0.795863 0.046629
C18   C     C_R   0.157934 0.540276 0.889387 -0.043293
C19   C     C_R   0.064516 0.492353 0.952638 0.004293
C20   C     C_R   0.318450 0.597430 0.922265 -0.034653
C21   C     C_R   0.390412 0.600742 0.012571 -0.108233
C22   C     C_R   0.300592 0.553702 0.076023 -0.038969
C23   C     C_3   0.069948 0.929313 0.134230 -0.156614
C24   C     C_R   0.135144 0.499988 0.046239 0.019854
C25   C     C_R   0.369360 0.561400 0.168908 -0.015883
C26   C     C_R   0.925987 0.474346 0.768096 -0.297636
C27   C     C_R   0.769387 0.181448 0.537104 -0.277456
C28   C     C_R   0.424438 0.808385 0.458644 -0.261361
C29   C     C_R   0.388321 0.988055 0.432038 -0.111777
C30   C     C_R   0.325133 0.878884 0.422800 -0.043938
C31   C     C_R   0.581605 0.847307 0.510257 0.058193
C32   C     C_R   0.647676 0.959038 0.519726 -0.057424
C33   C     C_R   0.549927 0.029362 0.478038 -0.055415
C34   C     C_3   0.325484 0.784830 0.673766 0.272311
C35   C     C_R   0.613946 0.140235 0.486190 0.041433
C36   C     C_R   0.868963 0.113511 0.575461 -0.004867
C37   C     C_R   0.807373 0.003316 0.569268 -0.091803
C38   C     C_3   0.243963 0.875137 0.638752 -0.376871
C39   C     C_3   0.933419 0.220243 0.351842 0.281527
C40   C     C_3   0.932306 0.099873 0.335844 -0.351980
C41   C     C_3   0.760776 0.693505 0.730680 0.300560
C42   C     C_3   0.762184 0.720249 0.832155 -0.415118
H1    H     H_    0.684634 0.859073 0.301041 0.084081
H2    H     H_    0.333130 0.929659 0.608851 0.071937
H3    H     H_    0.140041 0.840139 0.585061 0.162478
H4    H     H_    0.195617 0.921525 0.694082 0.145499
H5    H     H_    0.812707 0.236076 0.369588 0.001234
H6    H     H_    0.033802 0.254003 0.409235 0.085318
H7    H     H_    0.834968 0.063067 0.278304 0.110893
H8    H     H_    0.906664 0.062662 0.397149 0.092961
H9    H     H_    0.055253 0.084338 0.319630 0.117198
H10   H     H_    0.883679 0.674713 0.718152 0.020134
H11   H     H_    0.663158 0.622271 0.706044 0.080138
H12   H     H_    0.527700 0.990070 0.234625 0.097731
H13   H     H_    0.861417 0.789953 0.858604 0.128313
H14   H     H_    0.784635 0.650092 0.867625 0.074505
H15   H     H_    0.640785 0.742300 0.845351 0.113041
H16   H     H_    0.469802 0.798201 0.264942 -0.093972
H17   H     H_    0.452428 0.896653 0.131971 0.104426
H18   H     H_    0.300617 0.305017 0.290760 0.016636
H19   H     H_    0.514304 0.356455 0.279503 0.058959
H20   H     H_    0.271406 0.183294 0.146361 0.117148
H21   H     H_    0.337722 0.320960 0.129071 0.058991
H22   H     H_    0.486692 0.229512 0.135867 0.120579
H23   H     H_    0.669573 0.952196 0.158233 0.130092
H24   H     H_    0.169071 0.979744 0.106378 0.063873
H25   H     H_    0.241637 0.301857 0.783925 0.120807
H26   H     H_    0.023887 0.262379 0.789944 -0.065632
H27   H     H_    0.208609 0.288914 0.941662 0.078398
H28   H     H_    0.092079 0.154746 0.913022 0.101879
H29   H     H_    0.309106 0.178807 0.902028 0.151589
H30   H     H_    0.749171 0.208590 0.760054 -0.036818
H31   H     H_    0.418485 0.057777 0.748348 0.135837
H32   H     H_    0.592908 0.029740 0.692881 0.038848
H33   H     H_    0.214011 0.823762 0.205203 -0.005254
H34   H     H_    0.483987 0.135696 0.660856 0.147993
H35   H     H_    0.803394 0.356940 0.120730 0.101319
H36   H     H_    0.679953 0.355362 0.968073 0.108738
H37   H     H_    0.516181 0.643323 0.032051 0.107333
H38   H     H_    0.391513 0.640623 0.879034 0.101853
H39   H     H_    0.325133 0.527567 0.302166 0.069309
H40   H     H_    0.871504 0.467477 0.697270 0.068019
H41   H     H_    0.306549 0.040138 0.405706 0.098863
H42   H     H_    0.886724 0.954172 0.602654 0.111418
H43   H     H_    0.817879 0.266484 0.541948 0.063967
H44   H     H_    0.231738 0.960340 0.260730 -0.034061
H45   H     H_    0.373688 0.723590 0.452212 0.073310
H46   H     H_    0.978043 0.981897 0.150905 0.097797
H47   H     H_    0.448129 0.820251 0.713900 0.043052
H48   H     H_    0.343630 0.728651 0.614812 0.017105
O1    O     O_2   0.827880 0.435260 0.277750 -0.464033
O2    O     O_3   0.730264 0.784185 0.689533 -0.654020
O3    O     O_3   0.016969 0.855220 0.269981 -0.576787
O4    O     O_2   0.361830 0.564780 0.722310 -0.482650
O5    O     O_3   0.089430 0.561130 0.608830 -0.480127
O6    O     O_3   0.564130 0.365960 0.666760 -0.469147
O7    O     O_3   0.226441 0.736957 0.732356 -0.639163
O8    O     O_3   0.601940 0.368240 0.453770 -0.477460
O9    O     O_3   0.133170 0.309040 0.621000 -0.490418
O10   O     O_2   0.204862 0.116837 0.567735 -0.486619
O11   O     O_3   0.144001 0.142314 0.735466 -0.620237
O12   O     O_3   0.100280 0.438960 0.391170 -0.497987
O13   O     O_3   0.587780 0.631850 0.546230 -0.495973
O14   O     O_2   0.332590 0.233690 0.456160 -0.472372
O15   O     O_3   0.467236 0.198070 0.305871 -0.651897
O16   O     O_2   0.496903 0.450267 0.825996 -0.494779
O17   O     O_3   0.545007 0.252571 0.820573 -0.617312
O18   O     O_3   0.625580 0.634130 0.333250 -0.474506
O19   O     O_2   0.711435 0.558076 0.176117 -0.472802
O20   O     O_3   0.957735 0.262760 0.271203 -0.644912
O21   O     O_3   0.644228 0.751892 0.183293 -0.591028
O22   O     O_2   0.857130 0.766340 0.543890 -0.462014
O23   O     O_3   0.056550 0.691050 0.379010 -0.451241
O24   O     O_2   0.993436 0.880520 0.440635 -0.488725
P1    P     P_3+3 0.998730 0.403530 0.291970 0.974231
P2    P     P_3+3 0.687380 0.751030 0.571310 0.957678
P3    P     P_3+3 0.102888 0.829383 0.377396 0.962121
P4    P     P_3+3 0.190990 0.596560 0.708040 0.973728
P5    P     P_3+3 0.086593 0.169986 0.624158 0.931290
P6    P     P_3+3 0.586674 0.624154 0.214721 0.972760
P7    P     P_3+3 0.506840 0.233544 0.424194 0.929252
P8    P     P_3+3 0.610755 0.377085 0.785511 0.928334
C43   C     C_3   0.703496 0.121463 0.873963 -0.212233
C44   C     C_3   0.786068 0.023416 0.849623 -0.470611
H49   H     H_    0.857299 0.003117 0.912086 0.128024
H50   H     H_    0.690092 0.952535 0.820745 0.154664
H51   H     H_    0.872386 0.039931 0.799701 0.159704
H52   H     H_    0.796187 0.181936 0.921051 0.093722
H53   H     H_    0.598689 0.096464 0.911349 0.116398
C45   C     C_3   0.983623 0.835330 0.062268 -0.191418
C46   C     C_3   0.108575 0.789114 0.008641 -0.447364
H54   H     H_    0.164181 0.849348 0.967825 0.140045
H55   H     H_    0.209047 0.764688 0.054871 0.133079
H56   H     H_    0.044409 0.716990 0.962117 0.131359
H57   H     H_    0.915587 0.770588 0.094381 0.186379
H58   H     H_    0.890484 0.864760 0.014460 0.103416

loop_
_geom_bond_atom_site_label_1
_geom_bond_atom_site_label_2
_ccdc_geom_bond_type
C38   H3    S    
C19   C24   A    
C44   H49   S    
C29   H41   S    
C26   H40   S    
C39   C40   S    
C12   O3    S    
C17   C18   A    
C22   C25   A    
O15   P7    S    
C5    H26   S    
C8    H34   S    
C5    C6    S    
O6    P8    S    
C23   H46   S    
C20   H38   S    
C33   C35   A    
C22   C24   A    
C32   C33   A    
C40   H9    S    
O20   P1    S    
C42   H15   S    
C45   H58   S    
C13   C14   A    
C41   O2    S    
C3    H19   S    
Ba1   Ba2   S    
C1    H12   S    
C12   H33   S    
C4    H20   S    
O7    P4    S    
C35   P7    S    
C8    H32   S    
C43   H52   S    
C4    H21   S    
C13   H35   S    
O21   P6    S    
C10   C14   A    
Ba2   O5    S    
C42   H14   S    
C45   C46   S    
C39   O20   S    
C27   C36   A    
C46   H56   S    
C21   C22   A    
O10   P5    D    
C7    C8    S    
C15   P1    S    
C40   H7    S    
C34   H48   S    
C43   C44   S    
Ba2   O8    S    
C31   P2    S    
C5    O11   S    
O19   P6    D    
C23   H24   S    
O1    P1    D    
O16   P8    D    
C28   H45   S    
Ba1   O8    S    
C39   H5    S    
C25   P6    S    
C16   H39   S    
C2    H1    S    
C1    H17   S    
C7    O17   S    
C36   C37   A    
C6    H28   S    
C32   C37   A    
C2    O21   S    
C34   C38   S    
Ba1   O5    S    
Ba2   P4    S    
C44   H51   S    
O3    P3    S    
C45   H57   S    
C10   C19   A    
Ba2   O14   S    
O9    P5    S    
C14   H36   S    
C40   H8    S    
O14   P7    D    
C38   H2    S    
C41   C42   S    
C9    P8    S    
Ba1   O18   S    
C8    H31   S    
C43   H53   S    
C41   H10   S    
C29   C30   A    
Ba2   O12   S    
C42   H13   S    
C2    H16   S    
C15   C16   A    
Ba1   P1    S    
C17   C26   A    
Ba1   O12   S    
O22   P2    D    
C34   H47   S    
C41   H11   S    
C18   C20   A    
C17   P4    S    
O23   P3    S    
C11   C13   A    
C46   H54   S    
C29   C33   A    
O13   P2    S    
Ba1   O22   S    
C30   P3    S    
C1    C2    S    
O11   P5    S    
C39   H6    S    
O12   P1    S    
C3    O15   S    
C38   H4    S    
C6    H27   S    
C44   H50   S    
C21   H37   S    
C28   C31   A    
O4    P4    D    
C1    H23   S    
C16   C25   A    
C5    H25   S    
C9    C10   A    
O17   P8    S    
Ba2   O13   S    
Ba2   O9    S    
O24   P3    D    
C11   C15   A    
O8    P7    S    
O5    P4    S    
Ba2   O4    S    
C12   H44   S    
O18   P6    S    
C28   C30   A    
O2    P2    S    
C3    C4    S    
C9    C26   A    
C6    H29   S    
C31   C32   A    
C3    H18   S    
C34   O7    S    
Ba1   P2    S    
C12   C23   S    
C11   C24   A    
C7    C43   S    
C27   H43   S    
C36   P5    S    
C4    H22   S    
C18   C19   A    
Ba2   O6    S    
Ba1   O1    S    
C7    H30   S    
C27   C35   A    
C46   H55   S    
C20   C21   A    
Ba1   O23   S    
C37   H42   S    
C23   C45   S    
Ba1   O13   S    
