data_mof_unit_62581.cif
_audit_creation_date              2012-12-10T19:36:08-0500
_audit_creation_method            fapswitch 2.2
_symmetry_space_group_name_H-M    P1
_symmetry_Int_Tables_number       1
_space_group_crystal_system       triclinic
_cell_length_a                    16.32995
_cell_length_b                    16.881591
_cell_length_c                    23.423826
_cell_angle_alpha                 90.577026
_cell_angle_beta                  92.505314
_cell_angle_gamma                 86.539411
_cell_volume                      6439.26140171

loop_
_atom_site_label
_atom_site_type_symbol
_atom_type_description
_atom_site_fract_x
_atom_site_fract_y
_atom_site_fract_z
_atom_type_partial_charge
C1    C     C_R   0.487532 0.652019 0.500230 0.873426
C2    C     C_R   0.512486 0.348098 0.499662 0.876301
C3    C     C_R   0.453435 0.423220 0.755669 -0.000604
C4    C     C_R   0.559124 0.531663 0.236327 -0.008476
C5    C     C_R   0.456210 0.427648 0.696019 -0.070963
C6    C     C_R   0.562793 0.534796 0.296366 -0.078834
C7    C     C_R   0.500157 0.487627 0.671762 -0.084854
C8    C     C_R   0.499357 0.502730 0.326734 -0.100393
C9    C     C_R   0.544485 0.538970 0.706610 -0.209541
C10   C     C_R   0.432557 0.471000 0.296636 -0.204586
C11   C     C_R   0.542147 0.533987 0.765469 -0.089282
C12   C     C_R   0.429647 0.467770 0.237621 -0.093636
C13   C     C_R   0.495899 0.477348 0.789985 0.264966
C14   C     C_R   0.492727 0.497210 0.207545 0.267918
C15   C     C_R   0.476809 0.737873 0.504059 -0.121159
C16   C     C_R   0.523625 0.262736 0.493349 -0.128620
C17   C     C_R   0.520698 0.778477 0.547233 -0.027001
C18   C     C_R   0.487041 0.225487 0.445416 -0.025405
C19   C     C_R   0.511902 0.860390 0.550176 -0.138516
C20   C     C_R   0.498501 0.144138 0.438742 -0.201686
C21   C     C_R   0.461225 0.902245 0.510095 0.184648
C22   C     C_R   0.544510 0.099505 0.479774 -0.037249
C23   C     C_R   0.500050 0.497476 0.610239 0.880044
C24   C     C_R   0.500027 0.501540 0.389347 0.880322
C25   C     C_R   0.413652 0.862883 0.468621 0.020415
C26   C     C_R   0.584731 0.135907 0.526441 -0.012834
C27   C     C_R   0.421439 0.779858 0.465447 -0.069577
C28   C     C_R   0.574441 0.218412 0.533277 -0.064995
C29   C     C_2   0.469853 0.987245 0.506712 -0.097703
C30   C     C_2   0.534493 0.014607 0.479515 -0.133754
C31   C     C_R   0.763968 0.448047 0.529353 0.029725
C32   C     C_R   0.245658 0.454956 0.535468 0.038612
C33   C     C_R   0.849313 0.451058 0.532830 -0.260165
C34   C     C_R   0.160488 0.450480 0.532637 -0.263392
C35   C     C_R   0.885107 0.518695 0.513525 0.173905
C36   C     C_R   0.114817 0.482310 0.485336 0.175993
C37   C     C_R   0.834683 0.582177 0.491546 -0.202217
C38   C     C_R   0.155492 0.517368 0.441592 -0.203439
C39   C     C_R   0.749744 0.576601 0.488667 0.040713
C40   C     C_R   0.240669 0.520763 0.446216 0.019240
C41   C     C_2   0.975497 0.523649 0.516586 -0.157201
C42   C     C_2   0.024256 0.478823 0.481300 -0.155365
C43   C     C_R   0.531048 0.430473 0.121177 0.520811
C44   C     C_R   0.441537 0.534193 0.875488 0.515846
C45   C     C_R   0.442139 0.547713 0.116669 0.504896
C46   C     C_R   0.534790 0.420214 0.881284 0.507384
C47   C     C_R   0.442029 0.547986 0.056420 -0.089315
C48   C     C_R   0.527061 0.415758 0.940805 -0.096023
C49   C     C_R   0.483900 0.483122 0.028640 -0.010995
C50   C     C_R   0.483441 0.479591 0.968400 -0.009242
C51   C     C_R   0.526681 0.421899 0.061230 -0.077398
C52   C     C_R   0.440363 0.540329 0.935573 -0.073905
C53   C     C_R   0.401041 0.609979 0.023543 -0.070008
C54   C     C_R   0.562773 0.350893 0.973174 -0.067598
C55   C     C_R   0.399483 0.605507 0.963427 -0.067406
C56   C     C_R   0.562609 0.354197 0.033268 -0.060525
H1    H     H_    0.467302 0.114548 0.403434 0.166971
H2    H     H_    0.548121 0.892308 0.581731 0.152023
H3    H     H_    0.735677 0.396219 0.544229 0.146813
H4    H     H_    0.281420 0.430762 0.571793 0.150249
H5    H     H_    0.272529 0.548191 0.412817 0.149238
H6    H     H_    0.710547 0.625267 0.471448 0.157190
H7    H     H_    0.860941 0.635114 0.476463 0.159107
H8    H     H_    0.121521 0.542310 0.404596 0.159117
H9    H     H_    0.130404 0.422766 0.566872 0.160249
H10   H     H_    0.887089 0.401405 0.550298 0.159649
H11   H     H_    0.579300 0.584144 0.688211 0.179376
H12   H     H_    0.382542 0.447621 0.318762 0.187759
H13   H     H_    0.575090 0.575114 0.792292 0.155140
H14   H     H_    0.378340 0.441985 0.214983 0.158259
N1    N     N_R   0.488699 0.491784 0.146719 -0.346025
N2    N     N_R   0.490404 0.476947 0.850585 -0.345785
N3    N     N_R   0.716290 0.510230 0.507380 -0.105079
N4    N     N_R   0.283710 0.489770 0.492620 -0.103414
O1    O     O_R   0.422340 0.612130 0.497340 -0.611325
O2    O     O_R   0.577660 0.387870 0.502660 -0.624136
O3    O     O_R   0.561240 0.618700 0.502080 -0.617999
O4    O     O_R   0.438760 0.381300 0.497920 -0.601850
O5    O     O_R   0.430530 0.496740 0.581480 -0.622426
O6    O     O_R   0.569470 0.503260 0.418520 -0.610493
O7    O     O_R   0.569440 0.503310 0.586210 -0.601882
O8    O     O_R   0.430560 0.496690 0.413790 -0.624260
O9    O     O_2   0.577634 0.378921 0.154322 -0.547080
O10   O     O_2   0.394863 0.584634 0.841547 -0.546232
O11   O     O_2   0.395925 0.601909 0.145745 -0.554965
O12   O     O_2   0.587625 0.370116 0.853887 -0.546025
Zn1   Zn    Zn3+2 0.407250 0.495610 0.496840 0.979367
Zn2   Zn    Zn3+2 0.592750 0.504390 0.503160 0.983075
C57   C     C_2   0.364620 0.683025 0.051147 0.509251
H15   H     H_    0.401046 0.715703 0.082102 0.101994
O13   O     O_2   0.293669 0.706594 0.039762 -0.525192
C58   C     C_2   0.594039 0.276498 0.944459 0.509657
H16   H     H_    0.558592 0.251689 0.909065 0.100281
O14   O     O_2   0.659932 0.243374 0.959397 -0.525934
C59   C     C_1   0.361084 0.908006 0.427602 0.211971
N5    N     N_1   0.319204 0.944099 0.394895 -0.160107
C60   C     C_1   0.632300 0.088014 0.568556 0.169872
N6    N     N_1   0.670185 0.049698 0.602135 -0.163084
C61   C     C_2   0.988922 0.426706 0.435993 0.455426
H17   H     H_    0.923165 0.426636 0.427275 0.073733
O15   O     O_2   0.033652 0.382967 0.407510 -0.529002
C62   C     C_2   0.010164 0.581656 0.558045 0.457885
H18   H     H_    0.074655 0.593799 0.558883 0.073756
O16   O     O_2   0.966247 0.617090 0.591953 -0.524576
C63   C     C_1   0.360882 0.672043 0.931261 0.361799
N7    N     N_1   0.330141 0.725216 0.905917 -0.115521
C64   C     C_1   0.593808 0.284613 0.065311 0.368302
N8    N     N_1   0.618585 0.229018 0.090622 -0.119264
C65   C     C_1   0.406419 0.364533 0.782049 0.211142
N9    N     N_1   0.368911 0.317672 0.803194 -0.167602
C66   C     C_1   0.622595 0.563890 0.203715 0.210105
N10   N     N_1   0.673230 0.589593 0.177596 -0.158925
C67   C     C_1   0.417294 0.368887 0.660180 0.184967
N11   N     N_1   0.386598 0.321706 0.631680 -0.190348
C68   C     C_1   0.629755 0.573287 0.325746 0.231205
N12   N     N_1   0.683291 0.604152 0.348966 -0.190668
C69   C     C_1   0.576327 0.737839 0.588472 0.203593
N13   N     N_1   0.621165 0.705534 0.621382 -0.180378
C70   C     C_1   0.436410 0.269015 0.402828 0.210726
N14   N     N_1   0.395586 0.303491 0.368705 -0.188147
C71   C     C_1   0.611807 0.256829 0.582771 0.181136
N15   N     N_1   0.641448 0.287557 0.622238 -0.170361
C72   C     C_1   0.376834 0.738508 0.420448 0.203563
N16   N     N_1   0.341367 0.705523 0.384548 -0.183235
C73   C     C_2   0.597160 0.964859 0.448493 0.452954
H19   H     H_    0.650362 0.992525 0.433316 0.083258
O17   O     O_2   0.590221 0.894488 0.438318 -0.565302
C74   C     C_2   0.408042 0.040381 0.535922 0.423155
H20   H     H_    0.411258 0.104335 0.535990 0.097503
O18   O     O_2   0.352099 0.012575 0.560571 -0.535495

loop_
_geom_bond_atom_site_label_1
_geom_bond_atom_site_label_2
_ccdc_geom_bond_type
O4    Zn1   S    
C16   C28   A    
C45   N1    A    
C1    O3    A    
C41   C42   D    
C36   C42   S    
C59   N5    T    
C74   H20   S    
O5    Zn1   S    
C60   N6    T    
C72   N16   T    
C47   C49   A    
C48   C54   A    
C55   C63   S    
C35   C37   A    
C32   N4    A    
C33   C35   A    
C31   N3    A    
O8    Zn1   S    
C43   O9    S    
C41   C62   S    
C18   C20   A    
C15   C17   A    
C51   C56   A    
C14   N1    S    
C45   C47   A    
C31   H3    S    
C24   O8    A    
C21   C25   A    
C8    C24   S    
C56   C64   S    
C24   O6    A    
C66   N10   T    
O3    Zn2   S    
C49   C51   A    
C50   C52   A    
C64   N8    T    
C31   C33   A    
C1    C15   S    
N4    Zn1   S    
C57   O13   D    
C2    C16   S    
O2    Zn2   S    
C46   N2    A    
C3    C13   A    
C52   C55   A    
C17   C69   S    
C47   C53   A    
C5    C67   S    
C44   C52   A    
C48   C50   A    
C30   C73   S    
O6    Zn2   S    
C34   H9    S    
C37   H7    S    
C33   H10   S    
C38   H8    S    
C53   C55   A    
C19   H2    S    
C46   C48   A    
C1    O1    A    
C4    C6    A    
C5    C7    A    
C27   C72   S    
C28   C71   S    
C6    C8    A    
C44   O10   S    
C21   C29   S    
C40   H5    S    
C32   C34   A    
C45   O11   S    
C9    H11   S    
N3    Zn2   S    
C54   C58   S    
C29   C30   D    
C2    O4    A    
C15   C27   A    
C61   H17   S    
C58   O14   D    
C62   O16   D    
C9    C11   A    
C71   N15   T    
C10   C12   A    
O1    Zn1   S    
C61   O15   D    
C4    C66   S    
C12   C14   A    
C25   C59   S    
C53   C57   S    
C73   H19   S    
C32   H4    S    
C2    O2    A    
C67   N11   T    
C7    C9    A    
C39   H6    S    
C12   H14   S    
C43   N1    A    
C23   O7    A    
C19   C21   A    
C8    C10   A    
C20   C22   A    
C3    C5    A    
C74   O18   D    
C70   N14   T    
C11   H13   S    
C54   C56   A    
C13   N2    S    
C10   H12   S    
C25   C27   A    
C63   N7    T    
C26   C28   A    
C36   C38   A    
C20   H1    S    
C37   C39   A    
C22   C30   S    
C69   N13   T    
C42   C61   S    
C38   C40   A    
C11   C13   A    
C43   C51   A    
C3    C65   S    
C7    C23   S    
C58   H16   S    
C17   C19   A    
C40   N4    A    
C44   N2    A    
C34   C36   A    
C39   N3    A    
C4    C14   A    
C62   H18   S    
C35   C41   S    
C6    C68   S    
O7    Zn2   S    
C26   C60   S    
C16   C18   A    
C49   C50   A    
C22   C26   A    
C29   C74   S    
C73   O17   D    
C23   O5    A    
C57   H15   S    
C65   N9    T    
C18   C70   S    
C68   N12   T    
C46   O12   S    
