data_mof_unit_63037.cif
_audit_creation_date              2012-12-10T19:25:06-0500
_audit_creation_method            fapswitch 2.2
_symmetry_space_group_name_H-M    P1
_symmetry_Int_Tables_number       1
_space_group_crystal_system       triclinic
_cell_length_a                    13.450568
_cell_length_b                    16.46986
_cell_length_c                    17.724358
_cell_angle_alpha                 89.74344
_cell_angle_beta                  90.710351
_cell_angle_gamma                 71.77622
_cell_volume                      3729.08589293

loop_
_atom_site_label
_atom_site_type_symbol
_atom_type_description
_atom_site_fract_x
_atom_site_fract_y
_atom_site_fract_z
_atom_type_partial_charge
C1    C     C_R   0.497895 0.500496 0.644640 0.844733
C2    C     C_R   0.981092 0.460941 0.491038 0.041636
C3    C     C_R   0.873123 0.480552 0.473916 0.008128
C4    C     C_R   0.030739 0.524675 0.480152 0.085400
C5    C     C_R   0.974861 0.604156 0.445432 0.090148
C6    C     C_R   0.871991 0.617610 0.419200 0.123117
C7    C     C_R   0.823738 0.555520 0.431627 -0.182212
C8    C     C_R   0.134323 0.511997 0.504347 -0.210114
C9    C     C_R   0.128572 0.651382 0.458319 -0.139930
C10   C     C_R   0.817823 0.424438 0.498899 -0.213184
C11   C     C_R   0.499546 0.426540 0.154215 -0.157523
C12   C     C_R   0.701388 0.453906 0.498898 0.837228
C13   C     C_R   0.497384 0.427248 0.232730 -0.171887
C14   C     C_R   0.502311 0.499592 0.272363 -0.098092
C15   C     C_R   0.509779 0.571099 0.232129 -0.168015
C16   C     C_R   0.511902 0.570573 0.153414 0.292917
C17   C     C_R   0.506704 0.497914 0.114475 0.045508
C18   C     C_1   0.507210 0.495984 0.033848 0.060259
C19   C     C_1   0.506616 0.494998 0.966211 0.080446
C20   C     C_R   0.551080 0.420638 0.844891 0.304810
C21   C     C_R   0.547206 0.423421 0.766227 -0.217014
C22   C     C_R   0.497480 0.500356 0.727497 -0.152172
C23   C     C_R   0.500479 0.500019 0.355262 0.827310
C24   C     C_R   0.449302 0.575229 0.768975 0.158872
C25   C     C_R   0.453673 0.571935 0.847623 -0.177532
C26   C     C_R   0.504447 0.495404 0.885539 0.005532
C27   C     C_R   0.454058 0.180848 0.445314 -0.269717
C28   C     C_R   0.451683 0.267211 0.444356 0.066579
C29   C     C_R   0.550531 0.246144 0.557813 0.086417
C30   C     C_R   0.555069 0.159486 0.560977 0.205448
C31   C     C_R   0.506449 0.125478 0.503931 0.038898
C32   C     C_1   0.509248 0.035255 0.505201 0.107955
C33   C     C_1   0.510381 0.960517 0.505763 0.176266
C34   C     C_R   0.299189 0.545729 0.499183 0.829922
C35   C     C_R   0.439451 0.848484 0.454097 0.152699
C36   C     C_R   0.436617 0.763019 0.452628 0.400978
C37   C     C_R   0.566983 0.723018 0.548652 -0.000216
C38   C     C_R   0.572559 0.807186 0.551637 0.180551
C39   C     C_R   0.507934 0.871473 0.504085 -0.064952
C40   C     C_R   0.024194 0.667449 0.436598 -0.117628
C41   C     C_R   0.184961 0.572275 0.489836 -0.071013
C42   C     C_R   0.875360 0.343218 0.530114 0.223304
C43   C     C_R   0.984591 0.319615 0.535455 0.306036
C44   C     C_R   0.036099 0.377796 0.517249 -0.265940
Cu1   Cu    Cu3+1 0.500000 0.419580 0.500020 0.986290
Cu2   Cu    Cu3+1 0.500000 0.580420 0.499980 1.009848
H1    H     H_    0.165748 0.699704 0.448074 0.206961
H2    H     H_    0.491647 0.371233 0.262305 0.167906
H3    H     H_    0.514229 0.627333 0.261622 0.208889
H4    H     H_    0.584466 0.365489 0.735301 0.197888
H5    H     H_    0.416470 0.629272 0.879379 0.194584
H6    H     H_    0.415149 0.157500 0.400422 0.187288
H7    H     H_    0.410884 0.308832 0.398875 0.136634
H8    H     H_    0.588183 0.271255 0.602064 0.173429
H9    H     H_    0.617144 0.674588 0.585670 0.183796
H10   H     H_    0.983841 0.728937 0.411295 0.191864
H11   H     H_    0.178575 0.455121 0.534602 0.157296
H12   H     H_    0.120112 0.354806 0.522745 0.172562
H13   H     H_    0.747429 0.566624 0.405946 0.183944
H14   H     H_    0.495355 0.370339 0.124439 0.177889
N1    N     N_R   0.500030 0.298780 0.500030 -0.195585
N2    N     N_R   0.500020 0.701210 0.500010 -0.233333
O1    O     O_R   0.500010 0.432060 0.608760 -0.591762
O2    O     O_R   0.500000 0.567880 0.608730 -0.558782
O3    O     O_R   0.650990 0.398950 0.500000 -0.536120
O4    O     O_R   0.650980 0.534770 0.499970 -0.597713
O5    O     O_R   0.500000 0.432120 0.391270 -0.593990
O6    O     O_R   0.499990 0.567940 0.391240 -0.555562
O7    O     O_R   0.349020 0.465230 0.500030 -0.591175
O8    O     O_R   0.349010 0.601050 0.500000 -0.540406
Br1   Br    Br    0.521704 0.670119 0.101329 -0.392601
Br2   Br    Br    0.620948 0.313870 0.894543 -0.392826
I1    I     I_    0.361879 0.694570 0.719394 -0.216546
I2    I     I_    0.781157 0.730226 0.360973 -0.270202
Br3   Br    Br    0.628317 0.090334 0.643885 -0.322809
Br4   Br    Br    0.349765 0.934388 0.387557 -0.360287
Br5   Br    Br    0.342260 0.735995 0.382183 -0.414104
Br6   Br    Br    0.669739 0.831257 0.621131 -0.359586
Br7   Br    Br    0.810152 0.263376 0.570228 -0.381073
Br8   Br    Br    0.068698 0.208678 0.571195 -0.336566

loop_
_geom_bond_atom_site_label_1
_geom_bond_atom_site_label_2
_ccdc_geom_bond_type
C23   O6    A    
C10   C42   A    
C2    C4    A    
C35   C36   A    
C4    C8    A    
C37   N2    A    
Cu1   Cu2   S    
C16   Br1   S    
C33   C39   S    
Cu2   N2    S    
C37   C38   A    
Cu2   O4    S    
C3    C7    A    
C36   Br5   S    
C5    C6    A    
C24   I1    S    
C29   H8    S    
C15   C16   A    
C18   C19   T    
C23   O5    A    
C19   C26   S    
C2    C44   A    
C16   C17   A    
C40   H10   S    
Cu1   O5    S    
C34   O8    A    
C28   N1    A    
C1    C22   S    
C13   C14   A    
C34   C41   S    
C36   N2    A    
C1    O1    A    
C7    H13   S    
C21   H4    S    
C6    I2    S    
C38   C39   A    
C29   N1    A    
C35   Br4   S    
Cu1   O7    S    
C8    C41   A    
C44   H12   S    
C38   Br6   S    
C25   C26   A    
C12   O4    A    
Cu1   O1    S    
C9    C40   A    
Cu2   O2    S    
C14   C23   S    
C35   C39   A    
C43   C44   A    
C25   H5    S    
Cu2   O6    S    
C29   C30   A    
C8    H11   S    
C31   C32   S    
C17   C18   S    
C24   C25   A    
C34   O7    A    
C10   C12   S    
C9    H1    S    
C27   C31   A    
Cu1   O3    S    
C22   C24   A    
C42   C43   A    
C11   H14   S    
C1    O2    A    
C27   H6    S    
C11   C17   A    
C4    C5    A    
C13   H2    S    
C28   H7    S    
C6    C7    A    
C12   O3    A    
C9    C41   A    
C32   C33   T    
C2    C3    A    
C43   Br8   S    
C3    C10   A    
C30   Br3   S    
C11   C13   A    
C30   C31   A    
C20   C26   A    
Cu1   N1    S    
C15   H3    S    
Cu2   O8    S    
C37   H9    S    
C42   Br7   S    
C20   C21   A    
C5    C40   A    
C27   C28   A    
C14   C15   A    
C20   Br2   S    
C21   C22   A    
