data_mof_unit_52657.cif
_audit_creation_date              2012-10-26T19:35:46-0400
_audit_creation_method            fapswitch 2.2
_symmetry_space_group_name_H-M    P1
_symmetry_Int_Tables_number       1
_space_group_crystal_system       triclinic
_cell_length_a                    15.990382
_cell_length_b                    9.111697
_cell_length_c                    7.807991
_cell_angle_alpha                 90.000987
_cell_angle_beta                  91.319037
_cell_angle_gamma                 90.001533
_cell_volume                      1137.31905555

loop_
_atom_site_label
_atom_site_type_symbol
_atom_type_description
_atom_site_fract_x
_atom_site_fract_y
_atom_site_fract_z
_atom_type_partial_charge
C1    C     C_R   0.500000 0.220070 0.499999 0.546866
C2    C     C_R   0.087623 0.469397 0.495740 -0.087398
C3    C     C_1   0.823038 0.482490 0.508198 -0.029270
C4    C     C_1   0.176960 0.482543 0.491814 -0.029253
C5    C     C_1   0.251871 0.492201 0.493086 -0.039906
C6    C     C_1   0.748127 0.492169 0.506915 -0.039927
C7    C     C_1   0.500000 0.065353 0.499999 -0.055977
C8    C     C_1   0.500000 0.934651 0.500001 -0.055329
C9    C     C_3   0.140726 0.320210 0.826102 0.050032
C10   C     C_3   0.095235 0.175758 0.780623 -0.283403
C11   C     C_3   0.156529 0.047211 0.782448 -0.491231
C12   C     C_R   0.500000 0.779931 0.500001 0.548277
C13   C     C_3   0.859276 0.319983 0.174060 0.049967
C14   C     C_3   0.904756 0.175568 0.219739 -0.283451
C15   C     C_3   0.843433 0.047065 0.218405 -0.491214
C16   C     C_3   0.892436 0.647475 0.828939 0.050435
C17   C     C_3   0.947363 0.769409 0.751826 -0.294788
C18   C     C_3   0.913758 0.921441 0.792697 -0.496517
C19   C     C_3   0.107508 0.647566 0.171136 0.050397
C20   C     C_3   0.052587 0.769428 0.248440 -0.294857
C21   C     C_3   0.086092 0.921516 0.207509 -0.496466
C22   C     C_R   0.340870 0.499747 0.498001 0.535582
C23   C     C_R   0.659129 0.499741 0.501999 0.535579
C24   C     C_R   0.960367 0.476307 0.658056 0.255078
C25   C     C_R   0.039629 0.476291 0.341978 0.255099
C26   C     C_R   0.047323 0.458102 0.654275 0.242838
C27   C     C_R   0.952676 0.458020 0.345762 0.242863
C28   C     C_R   0.912375 0.469346 0.504290 -0.087393
Cu1   Cu    Cu3+1 0.500000 0.500000 0.669080 1.015124
Cu2   Cu    Cu3+1 0.500000 0.500000 0.330920 1.015125
H1    H     H_    0.161646 0.312382 0.962464 0.181392
H2    H     H_    0.954346 0.155894 0.125380 0.169610
H3    H     H_    0.934298 0.180492 0.349701 0.142915
H4    H     H_    0.810184 0.038780 0.092334 0.149914
H5    H     H_    0.796646 0.062046 0.319956 0.156752
H6    H     H_    0.877738 0.943221 0.243947 0.145591
H7    H     H_    0.886045 0.671281 0.967447 0.187408
H8    H     H_    0.828090 0.653290 0.773472 0.126537
H9    H     H_    0.012511 0.759514 0.802786 0.176651
H10   H     H_    0.947735 0.758784 0.610227 0.137517
H11   H     H_    0.845490 0.927893 0.764026 0.152986
H12   H     H_    0.199263 0.330394 0.754705 0.130686
H13   H     H_    0.945534 0.004482 0.713297 0.148819
H14   H     H_    0.926284 0.946491 0.929547 0.149589
H15   H     H_    0.113837 0.671442 0.032630 0.187407
H16   H     H_    0.171874 0.653402 0.226503 0.126550
H17   H     H_    0.987409 0.759453 0.197682 0.176624
H18   H     H_    0.052325 0.758780 0.390043 0.137529
H19   H     H_    0.154408 0.927982 0.235623 0.152954
H20   H     H_    0.054464 0.004452 0.287314 0.148825
H21   H     H_    0.073289 0.946702 0.070783 0.149598
H22   H     H_    0.045566 0.156271 0.874877 0.169793
H23   H     H_    0.065794 0.180514 0.650550 0.142831
H24   H     H_    0.189663 0.039097 0.908653 0.149923
H25   H     H_    0.203415 0.062003 0.681045 0.156766
H26   H     H_    0.122220 0.943352 0.757004 0.145568
H27   H     H_    0.838375 0.312028 0.037700 0.181282
H28   H     H_    0.800725 0.330237 0.245397 0.130744
N1    N     N_1   0.500000 0.500000 0.076820 -0.081335
N2    N     N_1   0.500000 0.500000 0.923180 -0.081335
O1    O     O_R   0.500000 0.288390 0.642760 -0.496154
O2    O     O_3   0.909392 0.448608 0.189567 -0.511006
O3    O     O_3   0.924649 0.502059 0.815563 -0.494790
O4    O     O_3   0.075338 0.502110 0.184476 -0.494830
O5    O     O_R   0.500000 0.711610 0.357240 -0.495020
O6    O     O_R   0.500000 0.711610 0.642760 -0.495021
O7    O     O_R   0.500000 0.288390 0.357240 -0.496154
O8    O     O_R   0.380310 0.500000 0.642750 -0.498496
O9    O     O_R   0.619690 0.500000 0.357250 -0.498492
O10   O     O_R   0.619690 0.500000 0.642750 -0.497978
O11   O     O_R   0.380310 0.500000 0.357250 -0.497978
O12   O     O_3   0.090612 0.448823 0.810473 -0.511061

loop_
_geom_bond_atom_site_label_1
_geom_bond_atom_site_label_2
_ccdc_geom_bond_type
C19   C20   S    
C2    C4    S    
C9    O12   S    
Cu1   Cu2   S    
C5    C22   S    
C16   O3    S    
C18   H14   S    
C25   C27   A    
Cu1   O8    S    
C26   O12   S    
C12   O5    A    
C23   O9    A    
C15   H4    S    
Cu2   O7    S    
Cu1   N2    S    
C21   H21   S    
C19   O4    S    
C8    C12   S    
C3    C6    T    
C10   H22   S    
Cu2   N1    S    
C14   H3    S    
C19   H15   S    
C17   C18   S    
C19   H16   S    
C7    C8    T    
C2    C26   A    
C1    C7    S    
C18   H13   S    
C23   O10   A    
C22   O8    A    
C9    H12   S    
C20   H18   S    
C11   H24   S    
C6    C23   S    
C21   H19   S    
C21   H20   S    
C27   O2    S    
C24   C26   A    
Cu2   O11   S    
C2    C25   A    
C14   H2    S    
C17   H9    S    
Cu1   O1    S    
C24   O3    S    
C20   H17   S    
C13   H27   S    
C10   C11   S    
C13   O2    S    
Cu1   O6    S    
Cu2   O5    S    
C16   C17   S    
C22   O11   A    
N1    N2    T    
Cu2   O9    S    
C11   H25   S    
C20   C21   S    
Cu1   O10   S    
C9    C10   S    
C18   H11   S    
C15   H5    S    
C27   C28   A    
C10   H23   S    
C9    H1    S    
C14   C15   S    
C3    C28   S    
C13   H28   S    
C1    O7    A    
C15   H6    S    
C13   C14   S    
C12   O6    A    
C17   H10   S    
C11   H26   S    
C24   C28   A    
C16   H7    S    
C16   H8    S    
C4    C5    T    
C25   O4    S    
C1    O1    A    
