data_mof_unit_33628.cif
_audit_creation_date              2012-12-11T14:05:38-0500
_audit_creation_method            fapswitch 2.2
_symmetry_space_group_name_H-M    P1
_symmetry_Int_Tables_number       1
_space_group_crystal_system       triclinic
_cell_length_a                    17.728526
_cell_length_b                    17.545341
_cell_length_c                    17.738842
_cell_angle_alpha                 90.854713
_cell_angle_beta                  90.784588
_cell_angle_gamma                 90.518196
_cell_volume                      5516.35340863

loop_
_atom_site_label
_atom_site_type_symbol
_atom_type_description
_atom_site_fract_x
_atom_site_fract_y
_atom_site_fract_z
_atom_type_partial_charge
C1    C     C_R   0.707238 0.806277 0.211116 -0.163840
C2    C     C_R   0.302698 0.781866 0.198960 -0.189905
C3    C     C_R   0.909095 0.815814 0.617088 0.508361
C4    C     C_R   0.071873 0.349049 0.840081 0.496381
C5    C     C_R   0.913707 0.632694 0.176931 0.459552
C6    C     C_R   0.089993 0.822788 0.630509 0.538336
C7    C     C_R   0.919983 0.162006 0.351634 0.514876
C8    C     C_R   0.822313 0.902304 0.624966 0.524488
C9    C     C_R   0.185607 0.103127 0.394790 0.451172
C10   C     C_R   0.632313 0.917943 0.177550 0.540152
C11   C     C_R   0.362474 0.085082 0.827415 0.533884
C12   C     C_R   0.176236 0.906800 0.369881 0.517052
C13   C     C_R   0.149042 0.225215 0.851979 0.001105
C14   C     C_R   0.817745 0.100733 0.614779 0.525107
C15   C     C_R   0.391797 0.898959 0.814551 0.493914
C16   C     C_R   0.601325 0.104538 0.186450 0.492917
C17   C     C_R   0.178243 0.092100 0.628531 0.468104
C18   C     C_R   0.813766 0.899257 0.392190 0.508978
C19   C     C_R   0.376398 0.094419 0.180366 0.482301
C20   C     C_R   0.623609 0.902189 0.821061 0.511707
C21   C     C_R   0.822444 0.087336 0.369486 0.465315
C22   C     C_R   0.184972 0.896588 0.604982 0.476027
C23   C     C_R   0.614482 0.100985 0.818164 0.477586
C24   C     C_R   0.803691 0.714588 0.207642 -0.196779
C25   C     C_R   0.392470 0.895299 0.183203 0.528848
C26   C     C_R   0.313756 0.777223 0.779530 -0.150323
C27   C     C_R   0.672354 0.228298 0.227942 -0.074533
C28   C     C_R   0.771800 0.668030 0.771436 -0.047615
C29   C     C_R   0.220119 0.320567 0.223650 -0.172832
C30   C     C_R   0.182192 0.194081 0.725504 -0.208865
C31   C     C_R   0.770275 0.772627 0.327082 -0.008826
C32   C     C_R   0.199377 0.788254 0.286105 -0.179936
C33   C     C_R   0.276221 0.195702 0.821313 -0.171661
C34   C     C_R   0.795438 0.217020 0.701619 -0.167920
C35   C     C_R   0.795183 0.193152 0.275305 -0.153139
C36   C     C_R   0.217170 0.776470 0.683631 -0.140926
C37   C     C_R   0.804361 0.783914 0.707175 -0.184471
C38   C     C_R   0.223322 0.229270 0.326194 -0.132008
C39   C     C_R   0.657487 0.834944 0.844220 -0.078487
C40   C     C_R   0.353775 0.168608 0.168137 -0.121807
C41   C     C_R   0.174349 0.619366 0.824177 -0.115962
C42   C     C_R   0.821368 0.371916 0.166626 -0.086584
C43   C     C_R   0.347456 0.161406 0.839159 -0.078703
C44   C     C_R   0.231394 0.668436 0.228123 -0.053125
C45   C     C_R   0.648529 0.844065 0.169589 -0.084417
C46   C     C_R   0.823780 0.370927 0.827009 -0.194052
C47   C     C_R   0.174202 0.637391 0.171330 -0.264932
C48   C     C_R   0.627985 0.177314 0.173576 -0.172177
C49   C     C_R   0.362362 0.827525 0.829210 -0.112157
C50   C     C_R   0.169965 0.366145 0.173314 -0.141257
C51   C     C_R   0.828713 0.638041 0.828320 -0.247468
C52   C     C_R   0.365488 0.823021 0.163305 -0.066550
C53   C     C_R   0.641283 0.173662 0.837288 -0.088248
C54   C     C_R   0.844240 0.659719 0.161777 -0.079966
C55   C     C_R   0.769639 0.333058 0.771080 -0.090974
C56   C     C_R   0.126052 0.303409 0.874087 -0.232635
C57   C     C_R   0.838420 0.170673 0.646527 -0.081912
C58   C     C_R   0.155568 0.836327 0.339359 -0.085575
C59   C     C_R   0.827398 0.828962 0.360196 -0.262654
C60   C     C_R   0.162940 0.164642 0.651784 -0.040729
C61   C     C_R   0.171464 0.177340 0.370641 -0.138642
C62   C     C_R   0.841039 0.829246 0.648611 -0.086510
C63   C     C_R   0.167677 0.827084 0.636687 -0.108087
C64   C     C_R   0.844767 0.148851 0.328089 -0.072091
C65   C     C_R   0.765082 0.772136 0.171431 0.447182
C66   C     C_R   0.310391 0.220376 0.220541 -0.182656
C67   C     C_R   0.219069 0.200212 0.875799 0.448389
C68   C     C_R   0.298279 0.701361 0.201749 0.510597
C69   C     C_R   0.703595 0.299333 0.798203 0.489428
C70   C     C_R   0.288811 0.292945 0.197806 0.491893
C71   C     C_R   0.708915 0.706225 0.800704 0.479046
C72   C     C_R   0.701577 0.298110 0.203265 0.500764
C73   C     C_R   0.288371 0.706317 0.805520 0.467276
C74   C     C_R   0.189095 0.706467 0.710298 0.463687
C75   C     C_R   0.824905 0.243831 0.222091 0.479853
C76   C     C_R   0.126742 0.197792 0.781797 0.420022
C77   C     C_R   0.711979 0.786972 0.803772 -0.177549
C78   C     C_R   0.800035 0.710111 0.286974 0.479062
C79   C     C_R   0.196440 0.297945 0.295425 0.513047
C80   C     C_R   0.799629 0.703213 0.706625 0.495576
C81   C     C_R   0.203021 0.707752 0.290799 0.483385
C82   C     C_R   0.798420 0.297573 0.706151 0.481869
C83   C     C_R   0.753555 0.178849 0.756040 0.443383
C84   C     C_R   0.242756 0.823458 0.230187 0.429385
C85   C     C_R   0.715789 0.195344 0.285018 0.471622
C86   C     C_R   0.288640 0.800852 0.708854 0.471954
C87   C     C_R   0.289815 0.199237 0.294205 0.476347
C88   C     C_R   0.781408 0.307118 0.201447 -0.185983
C89   C     C_R   0.771433 0.822743 0.767548 0.433028
C90   C     C_R   0.257735 0.205834 0.745682 0.532150
C91   C     C_R   0.707685 0.804725 0.290398 0.444890
C92   C     C_R   0.628942 0.821012 0.912992 0.453728
C93   C     C_R   0.382064 0.183493 0.096677 0.457591
C94   C     C_R   0.187051 0.598361 0.898117 0.517219
C95   C     C_R   0.813510 0.389278 0.092470 0.525234
C96   C     C_R   0.385997 0.183218 0.902125 0.516361
C97   C     C_R   0.614219 0.818691 0.104017 0.525790
C98   C     C_R   0.818635 0.376031 0.904808 0.549493
C99   C     C_R   0.220479 0.673174 0.776457 -0.145771
C100  C     C_R   0.182636 0.621145 0.095487 0.483227
C101  C     C_R   0.625659 0.180731 0.095313 0.520721
C102  C     C_R   0.370378 0.821516 0.907133 0.536547
C103  C     C_R   0.185526 0.395197 0.102983 0.454249
C104  C     C_R   0.814363 0.608496 0.899048 0.469824
C105  C     C_R   0.385997 0.813916 0.090469 0.497561
C106  C     C_R   0.617908 0.184963 0.909627 0.528933
C107  C     C_R   0.821465 0.625691 0.094669 0.485552
C108  C     C_R   0.160639 0.350771 0.927510 0.474118
C109  C     C_R   0.904148 0.620266 0.818186 0.483152
C110  C     C_R   0.697410 0.218693 0.795189 -0.136580
C111  C     C_R   0.093883 0.378466 0.181337 0.550062
C112  C     C_R   0.909400 0.183627 0.621159 0.468963
C113  C     C_R   0.089959 0.818142 0.375265 0.406362
C114  C     C_R   0.895815 0.393694 0.183706 0.496368
C115  C     C_R   0.100551 0.597277 0.812565 0.508413
C116  C     C_R   0.899743 0.814553 0.385812 0.460267
C117  C     C_R   0.097888 0.183935 0.616802 0.505974
C118  C     C_R   0.104206 0.605458 0.185831 0.491547
C119  C     C_R   0.895492 0.397792 0.813537 0.468077
C120  C     C_R   0.096574 0.186820 0.390868 0.533662
Cl1   Cl    Cl    0.785842 0.798306 0.077502 -0.547731
Cl2   Cl    Cl    0.890282 0.212289 0.154550 -0.385643
Cl3   Cl    Cl    0.035048 0.157825 0.772683 -0.536696
Cl4   Cl    Cl    0.800129 0.619818 0.329452 -0.280445
Cl5   Cl    Cl    0.174886 0.374057 0.357138 -0.255458
Cl6   Cl    Cl    0.792400 0.650702 0.621499 -0.261002
Cl7   Cl    Cl    0.232004 0.669733 0.377834 -0.283818
Cl8   Cl    Cl    0.786659 0.349079 0.622395 -0.276889
Cl9   Cl    Cl    0.778194 0.085447 0.781321 -0.468103
Cl10  Cl    Cl    0.220216 0.915555 0.197343 -0.541574
Cl11  Cl    Cl    0.682956 0.216920 0.376378 -0.319040
Cl12  Cl    Cl    0.227929 0.165909 0.968711 -0.543753
Cl13  Cl    Cl    0.359193 0.790417 0.640557 -0.278526
Cl14  Cl    Cl    0.367828 0.197982 0.357003 -0.253151
Cl15  Cl    Cl    0.808240 0.910194 0.802004 -0.456202
Cl16  Cl    Cl    0.328609 0.220168 0.677942 -0.316563
Cl17  Cl    Cl    0.624973 0.825797 0.340272 -0.277170
Cl18  Cl    Cl    0.632174 0.732122 0.954871 -0.386596
Cl19  Cl    Cl    0.403664 0.274739 0.065803 -0.353714
Cl20  Cl    Cl    0.254942 0.526592 0.908924 -0.320212
Cl21  Cl    Cl    0.728056 0.416554 0.050082 -0.339795
Cl22  Cl    Cl    0.432897 0.271355 0.899249 -0.316841
Cl23  Cl    Cl    0.379337 0.644205 0.200331 -0.240559
Cl24  Cl    Cl    0.572011 0.728174 0.109638 -0.322755
Cl25  Cl    Cl    0.797948 0.288957 0.945949 -0.499436
Cl26  Cl    Cl    0.266799 0.629323 0.048143 -0.385741
Cl27  Cl    Cl    0.716766 0.190042 0.059791 -0.481566
Cl28  Cl    Cl    0.284004 0.804371 0.953457 -0.554430
Cl29  Cl    Cl    0.268798 0.447919 0.089998 -0.306122
Cl30  Cl    Cl    0.729699 0.557907 0.911055 -0.352913
Cl31  Cl    Cl    0.410781 0.727226 0.047534 -0.325795
Cl32  Cl    Cl    0.604705 0.273693 0.954947 -0.349069
Cl33  Cl    Cl    0.725970 0.608958 0.074641 -0.322721
Cl34  Cl    Cl    0.625665 0.359454 0.809422 -0.270513
Cl35  Cl    Cl    0.256834 0.346376 0.951462 -0.399669
Cl36  Cl    Cl    0.949928 0.625687 0.733031 -0.377666
Cl37  Cl    Cl    0.038021 0.315831 0.231429 -0.476026
Cl38  Cl    Cl    0.940896 0.274692 0.599476 -0.346867
Cl39  Cl    Cl    0.071758 0.725481 0.404345 -0.334903
Cl40  Cl    Cl    0.916957 0.434902 0.272607 -0.336384
Cl41  Cl    Cl    0.088579 0.523455 0.744922 -0.322796
Cl42  Cl    Cl    0.909767 0.726241 0.428146 -0.315141
Cl43  Cl    Cl    0.105122 0.271320 0.570944 -0.318817
Cl44  Cl    Cl    0.094669 0.550351 0.267710 -0.350948
Cl45  Cl    Cl    0.362213 0.360474 0.212225 -0.269067
Cl46  Cl    Cl    0.912464 0.446138 0.729483 -0.314135
Cl47  Cl    Cl    0.046983 0.272076 0.404409 -0.346178
Cl48  Cl    Cl    0.948649 0.727279 0.595552 -0.317376
Cl49  Cl    Cl    0.043834 0.338999 0.745631 -0.415241
Cl50  Cl    Cl    0.965985 0.660603 0.256793 -0.488790
Cl51  Cl    Cl    0.045623 0.812036 0.718801 -0.566266
Cl52  Cl    Cl    0.983542 0.147730 0.277578 -0.503988
Cl53  Cl    Cl    0.731384 0.937345 0.630229 -0.333052
Cl54  Cl    Cl    0.267032 0.089311 0.449695 -0.314986
Cl55  Cl    Cl    0.707303 0.979185 0.205371 -0.549362
Cl56  Cl    Cl    0.620799 0.659271 0.792780 -0.286317
Cl57  Cl    Cl    0.282836 0.024967 0.811528 -0.561280
Cl58  Cl    Cl    0.270880 0.935166 0.373779 -0.323896
Cl59  Cl    Cl    0.729151 0.095892 0.569149 -0.310703
Cl60  Cl    Cl    0.411995 0.937833 0.726182 -0.333380
Cl61  Cl    Cl    0.565555 0.075151 0.273320 -0.332586
Cl62  Cl    Cl    0.268179 0.053233 0.634417 -0.358751
Cl63  Cl    Cl    0.736998 0.903480 0.453509 -0.351865
Cl64  Cl    Cl    0.364473 0.046966 0.264464 -0.387364
Cl65  Cl    Cl    0.591047 0.906895 0.728203 -0.327080
Cl66  Cl    Cl    0.730993 0.050102 0.373009 -0.361509
Cl67  Cl    Cl    0.637274 0.372089 0.188300 -0.283555
Cl68  Cl    Cl    0.265252 0.904672 0.549328 -0.321670
Cl69  Cl    Cl    0.585006 0.080794 0.725357 -0.333889
Cl70  Cl    Cl    0.447770 0.899082 0.266387 -0.340674
Cl71  Cl    Cl    0.353945 0.654510 0.859520 -0.305485
Cl72  Cl    Cl    0.128420 0.655480 0.647805 -0.294493
N1    N     N_R   0.584840 0.879720 0.932190 -0.145996
N2    N     N_R   0.415160 0.879720 0.932190 -0.135934
N3    N     N_R   0.120280 0.415160 0.067810 -0.153291
N4    N     N_R   0.879720 0.584840 0.932190 -0.145058
N5    N     N_R   0.415160 0.879720 0.067810 -0.144132
N6    N     N_R   0.584840 0.120280 0.932190 -0.145825
N7    N     N_R   0.879720 0.584840 0.067810 -0.151657
N8    N     N_R   0.120280 0.415160 0.932190 -0.114604
N9    N     N_R   0.932190 0.584840 0.879720 -0.136892
N10   N     N_R   0.067810 0.415160 0.120280 -0.140320
N11   N     N_R   0.932190 0.120280 0.584840 -0.140577
N12   N     N_R   0.415160 0.120280 0.067810 -0.137556
N13   N     N_R   0.067810 0.879720 0.415160 -0.144174
N14   N     N_R   0.932190 0.415160 0.120280 -0.125608
N15   N     N_R   0.067810 0.584840 0.879720 -0.147753
N16   N     N_R   0.932190 0.879720 0.415160 -0.143112
N17   N     N_R   0.067810 0.120280 0.584840 -0.148663
N18   N     N_R   0.067810 0.584840 0.120280 -0.143791
N19   N     N_R   0.932190 0.415160 0.879720 -0.146363
N20   N     N_R   0.067810 0.120280 0.415160 -0.136938
N21   N     N_R   0.932190 0.879720 0.584840 -0.145883
N22   N     N_R   0.067810 0.415160 0.879720 -0.114564
N23   N     N_R   0.120280 0.584840 0.932190 -0.146661
N24   N     N_R   0.932190 0.584840 0.120280 -0.144605
N25   N     N_R   0.067810 0.879720 0.584840 -0.136220
N26   N     N_R   0.932190 0.120280 0.415160 -0.135311
N27   N     N_R   0.879720 0.932190 0.584840 -0.139039
N28   N     N_R   0.120280 0.067810 0.415160 -0.136956
N29   N     N_R   0.584840 0.932190 0.120280 -0.147177
N30   N     N_R   0.415160 0.067810 0.879720 -0.139101
N31   N     N_R   0.120280 0.932190 0.415160 -0.140038
N32   N     N_R   0.879720 0.067810 0.584840 -0.137045
N33   N     N_R   0.415160 0.932190 0.879720 -0.129476
N34   N     N_R   0.879720 0.415160 0.067810 -0.142220
N35   N     N_R   0.584840 0.067810 0.120280 -0.126296
N36   N     N_R   0.120280 0.067810 0.584840 -0.141609
N37   N     N_R   0.879720 0.932190 0.415160 -0.144666
N38   N     N_R   0.415160 0.067810 0.120280 -0.137481
N39   N     N_R   0.584840 0.932190 0.879720 -0.144246
N40   N     N_R   0.879720 0.067810 0.415160 -0.141187
N41   N     N_R   0.120280 0.932190 0.584840 -0.135952
N42   N     N_R   0.584840 0.067810 0.879720 -0.139413
N43   N     N_R   0.415160 0.932190 0.120280 -0.137118
N44   N     N_R   0.415160 0.120280 0.932190 -0.141902
N45   N     N_R   0.584840 0.879720 0.067810 -0.142779
N46   N     N_R   0.879720 0.415160 0.932190 -0.137070
N47   N     N_R   0.120280 0.584840 0.067810 -0.138060
N48   N     N_R   0.584840 0.120280 0.067810 -0.133422
Ni1   Ni    Ni4+2 0.500000 0.880920 0.000000 0.332808
Ni2   Ni    Ni4+2 0.119080 0.000000 0.500000 0.347751
Ni3   Ni    Ni4+2 0.500000 1.000000 0.119080 0.334001
Ni4   Ni    Ni4+2 0.500000 0.000000 0.880920 0.336431
Ni5   Ni    Ni4+2 0.500000 0.119080 0.000000 0.327698
Ni6   Ni    Ni4+2 0.119080 0.500000 0.000000 0.349901
Ni7   Ni    Ni4+2 0.880920 0.500000 0.000000 0.318649
Ni8   Ni    Ni4+2 0.000000 0.500000 0.880920 0.348457
Ni9   Ni    Ni4+2 1.000000 0.500000 0.119080 0.328417
Ni10  Ni    Ni4+2 0.000000 0.119080 0.500000 0.335488
Ni11  Ni    Ni4+2 1.000000 0.880920 0.500000 0.337461
Ni12  Ni    Ni4+2 0.880920 0.000000 0.500000 0.348204

loop_
_geom_bond_atom_site_label_1
_geom_bond_atom_site_label_2
_ccdc_geom_bond_type
C53   C110  S    
C120  N20   A    
C12   Cl58  S    
C16   N35   A    
C108  N8    A    
C89   Cl15  S    
N2    Ni1   S    
C115  N15   A    
C75   Cl2   S    
C94   Cl20  S    
C2    C84   A    
C67   Cl12  S    
C35   C85   A    
C32   C58   S    
C40   C93   A    
C30   C90   A    
C92   Cl18  S    
N15   Ni8   S    
C16   C48   A    
C37   C62   S    
N5    N43   A    
N34   Ni7   S    
C12   N31   A    
N3    N10   A    
C117  Cl43  S    
N33   Ni4   S    
C32   C81   A    
N5    Ni1   S    
C94   N23   A    
C112  Cl38  S    
C54   C107  A    
C100  N47   A    
N47   Ni6   S    
C9    C61   A    
C39   C77   S    
N2    N33   A    
C14   N32   A    
C83   Cl9   S    
C2    C68   A    
C25   Cl70  S    
N8    Ni6   S    
N35   Ni3   S    
C28   C51   S    
C57   C112  A    
N32   Ni12  S    
C38   C79   A    
C48   C101  A    
N31   Ni2   S    
C24   C54   S    
N11   Ni10  S    
C102  N2    A    
C26   C73   A    
C90   Cl16  S    
C71   Cl56  S    
C11   N30   A    
C68   Cl23  S    
C27   C85   A    
C104  Cl30  S    
C109  Cl36  S    
N14   Ni9   S    
C56   C108  A    
C21   C64   A    
N38   Ni3   S    
C10   N29   A    
C102  Cl28  S    
C20   Cl65  S    
C91   Cl17  S    
C23   N42   A    
C17   Cl62  S    
C42   C114  A    
C47   C118  A    
C8    C62   A    
C100  Cl26  S    
N24   Ni9   S    
C30   C60   S    
C46   C55   S    
N14   N34   A    
C34   C57   S    
N8    N22   A    
C5    Cl50  S    
C41   C99   S    
C11   C43   A    
C35   C64   S    
N40   Ni12  S    
N46   Ni7   S    
C65   Cl1   S    
C80   Cl6   S    
C36   C63   S    
C78   Cl4   S    
N43   Ni3   S    
N18   Ni9   S    
N12   Ni5   S    
C44   C47   S    
N7    Ni7   S    
N16   N37   A    
C106  N6    A    
C38   C61   S    
C12   C58   A    
C105  N5    A    
C22   C63   A    
C50   C103  A    
C51   C109  A    
C20   N39   A    
C40   C66   S    
C7    Cl52  S    
C81   Cl7   S    
C101  N48   A    
N12   N38   A    
C7    N26   A    
C87   Cl14  S    
C103  N3    A    
C41   C115  A    
C32   C84   A    
C79   Cl5   S    
C111  N10   A    
C72   C88   A    
N29   Ni3   S    
C3    Cl48  S    
C23   C53   A    
C29   C50   S    
N21   N27   A    
C105  Cl31  S    
C37   C80   A    
C83   C110  A    
C106  Cl32  S    
C4    Cl49  S    
C14   Cl59  S    
N7    N24   A    
C33   C43   S    
C5    C54   A    
C21   Cl66  S    
C4    N22   A    
C44   C81   A    
N6    N42   A    
C70   Cl45  S    
N25   N41   A    
C49   C102  A    
N9    Ni8   S    
C20   C39   A    
N30   Ni4   S    
C16   Cl61  S    
C59   C116  A    
C84   Cl10  S    
N20   N28   A    
C36   C86   A    
C51   C104  A    
C5    N24   A    
N28   Ni2   S    
N13   N31   A    
C47   C100  A    
C42   C95   A    
N29   N45   A    
N16   Ni11  S    
C113  N13   A    
C6    C63   A    
C115  Cl41  S    
C97   Cl24  S    
N13   Ni11  S    
C58   C113  A    
C6    N25   A    
C30   C76   A    
C69   C110  A    
C18   C59   A    
C86   Cl13  S    
C1    C65   A    
C41   C94   A    
C29   C79   A    
C13   C76   A    
C26   C86   A    
C22   N41   A    
N30   N44   A    
C10   C45   A    
N15   N23   A    
C43   C96   A    
C104  N4    A    
N19   N46   A    
C60   C117  A    
C55   C69   A    
N3    Ni6   S    
C113  Cl39  S    
C55   C82   A    
C93   N12   A    
C53   C106  A    
N26   N40   A    
C116  N16   A    
C2    C52   S    
N6    Ni5   S    
C11   Cl57  S    
C24   C65   A    
C9    N28   A    
C24   C78   A    
N17   N36   A    
C15   N33   A    
C52   C105  A    
C92   N1    A    
C31   C91   A    
N27   Ni12  S    
N11   N32   A    
N4    Ni7   S    
C61   C120  A    
N48   Ni5   S    
C74   Cl72  S    
C26   C49   S    
C28   C71   A    
C42   C88   S    
C34   C83   A    
N26   Ni10  S    
N20   Ni10  S    
C39   C92   A    
C71   C77   A    
C31   C59   S    
C93   Cl19  S    
C96   N44   A    
C31   C78   A    
C29   C70   A    
C13   C67   A    
C3    C62   A    
C119  Cl46  S    
C10   Cl55  S    
C73   C99   A    
C14   C57   A    
C101  Cl27  S    
C34   C82   A    
C8    Cl53  S    
C76   Cl3   S    
N1    Ni1   S    
N44   Ni5   S    
C114  Cl40  S    
C35   C75   A    
N19   Ni8   S    
C19   Cl64  S    
C95   Cl21  S    
C74   C99   A    
C77   C89   A    
C98   Cl25  S    
C37   C89   A    
C3    N21   A    
C97   N45   A    
N17   Ni10  S    
C119  N19   A    
C69   Cl34  S    
C112  N11   A    
N45   Ni1   S    
C38   C87   A    
C118  N18   A    
N18   N47   A    
C13   C56   S    
C109  N9    A    
N39   Ni4   S    
C116  Cl42  S    
C95   N34   A    
C82   Cl8   S    
C33   C67   A    
C45   C97   A    
C33   C90   A    
C85   Cl11  S    
C107  N7    A    
C21   N40   A    
C1    C45   S    
C66   C70   A    
C108  Cl35  S    
C111  Cl37  S    
C18   Cl63  S    
C66   C87   A    
C9    Cl54  S    
N35   N48   A    
C117  N17   A    
C50   C111  A    
C17   N36   A    
C46   C119  A    
N21   Ni11  S    
C15   C49   A    
C27   C48   S    
C46   C98   A    
C28   C80   A    
C19   N38   A    
C7    C64   A    
C25   C52   A    
N37   Ni12  S    
C44   C68   A    
C19   C40   A    
C103  Cl29  S    
C17   C60   A    
C96   Cl22  S    
C18   N37   A    
C107  Cl33  S    
C114  N14   A    
N41   Ni2   S    
C22   Cl68  S    
N10   Ni9   S    
N36   Ni2   S    
C25   N43   A    
N23   Ni6   S    
C1    C91   A    
C118  Cl44  S    
C72   Cl67  S    
C8    N27   A    
N1    N39   A    
C6    Cl51  S    
C98   N46   A    
N22   Ni8   S    
C75   C88   A    
N25   Ni11  S    
C23   Cl69  S    
N4    N9    A    
C15   Cl60  S    
C36   C74   A    
C4    C56   A    
C27   C72   A    
C120  Cl47  S    
N42   Ni4   S    
C73   Cl71  S    
