data_mof_unit_42664.cif
_audit_creation_date              2012-12-11T15:52:29-0500
_audit_creation_method            fapswitch 2.2
_symmetry_space_group_name_H-M    P1
_symmetry_Int_Tables_number       1
_space_group_crystal_system       triclinic
_cell_length_a                    6.925259
_cell_length_b                    14.552675
_cell_length_c                    16.032804
_cell_angle_alpha                 90.256712
_cell_angle_beta                  89.777668
_cell_angle_gamma                 89.948762
_cell_volume                      1615.77366289

loop_
_atom_site_label
_atom_site_type_symbol
_atom_type_description
_atom_site_fract_x
_atom_site_fract_y
_atom_site_fract_z
_atom_type_partial_charge
O1    O     O_R   0.494400 0.415640 0.412830 -0.540389
O2    O     O_R   0.823920 0.405510 0.586560 -0.544153
O3    O     O_R   0.994250 0.584360 0.587170 -0.541174
C1    C     C_R   0.654727 0.383120 0.615328 0.682754
O4    O     O_R   0.824110 0.404610 0.413450 -0.538548
O5    O     O_R   0.994440 0.583460 0.412820 -0.538875
C2    C     C_R   0.655902 0.380703 0.385362 0.697450
O6    O     O_R   0.494210 0.416540 0.587180 -0.540194
O7    O     O_3   0.660810 0.558680 0.500000 -0.368774
V1    V     V_3+5 0.935650 0.489110 0.500000 1.386746
O8    O     O_R   0.324150 0.594490 0.413440 -0.544429
C3    C     C_R   0.155357 0.616377 0.384251 0.704492
O9    O     O_R   0.323970 0.595390 0.586550 -0.544131
C4    C     C_R   0.154493 0.617632 0.615603 0.670408
V2    V     V_3+5 0.435660 0.510890 0.500000 1.387358
O10   O     O_3   0.160630 0.441320 0.500000 -0.367757
C5    C     C_3   0.929442 0.704412 0.713938 -0.325667
H1    H     H_    0.842745 0.729521 0.660314 0.150874
H2    H     H_    0.863614 0.638670 0.734985 0.146935
C6    C     C_3   0.917905 0.775508 0.785615 -0.397986
H3    H     H_    0.846024 0.743494 0.840486 0.164894
H4    H     H_    0.826215 0.834312 0.765801 0.169601
H5    H     H_    0.146772 0.807513 0.603630 0.092442
H6    H     H_    0.123664 0.912213 0.710431 0.042920
C7    C     C_3   0.227633 0.781449 0.658521 -0.350195
C8    C     C_3   0.256924 0.654306 0.763353 -0.327966
C9    C     C_3   0.142376 0.687795 0.686129 0.075538
H7    H     H_    0.411275 0.643518 0.746297 0.146643
H8    H     H_    0.199066 0.586986 0.784535 0.125172
C10   C     C_3   0.122541 0.810362 0.810132 0.088863
C11   C     C_3   0.216258 0.853625 0.730682 0.243815
C12   C     C_3   0.243706 0.725181 0.835928 -0.294610
H9    H     H_    0.176733 0.692125 0.891394 0.116508
H10   H     H_    0.391882 0.746573 0.854226 0.175983
H11   H     H_    0.380230 0.771835 0.638155 0.158222
C13   C     C_R   0.957089 0.756858 0.203344 0.358068
C14   C     C_R   0.971164 0.694384 0.270141 -0.242911
H12   H     H_    0.846483 0.653297 0.286657 0.116326
C15   C     C_R   0.144138 0.683496 0.314615 -0.076845
C16   C     C_R   0.304785 0.736363 0.291320 -0.174728
H13   H     H_    0.440383 0.729696 0.324192 0.131013
C17   C     C_R   0.292000 0.799536 0.225962 -0.229987
H14   H     H_    0.418230 0.840151 0.210905 0.163831
C18   C     C_R   0.119018 0.811112 0.181213 -0.078345
C19   C     C_R   0.812230 0.274239 0.715957 -0.161116
H15   H     H_    0.953045 0.292941 0.691900 0.116499
C20   C     C_R   0.801442 0.209547 0.780146 -0.158376
H16   H     H_    0.934398 0.180325 0.803514 0.116542
C21   C     C_R   0.621793 0.183003 0.813584 -0.046729
C22   C     C_R   0.453203 0.222776 0.780934 -0.158852
H17   H     H_    0.312382 0.204039 0.804961 0.115775
C23   C     C_R   0.463992 0.287483 0.716758 -0.157432
H18   H     H_    0.331034 0.316691 0.693377 0.117991
C24   C     C_R   0.643656 0.314114 0.683392 -0.046219
C25   C     C_R   0.801591 0.247431 0.300416 0.155282
C26   C     C_R   0.786376 0.185246 0.233306 -0.145558
H19   H     H_    0.904085 0.137964 0.220772 0.119205
C27   C     C_R   0.620786 0.181830 0.183182 -0.083949
C28   C     C_R   0.467681 0.241933 0.201197 -0.163147
H20   H     H_    0.337835 0.240910 0.163764 0.129076
C29   C     C_R   0.481918 0.305651 0.266578 -0.191380
H21   H     H_    0.362885 0.352652 0.276861 0.126223
C30   C     C_R   0.647890 0.310230 0.317057 -0.060963
O11   O     O_R   0.771300 0.080930 0.910090 -0.545559
O12   O     O_R   0.441270 0.092800 0.083770 -0.546817
O13   O     O_R   0.271080 0.913920 0.084380 -0.547229
C31   C     C_R   0.609853 0.114795 0.113077 0.687847
O14   O     O_R   0.441580 0.091910 0.910670 -0.542572
O15   O     O_R   0.271390 0.913020 0.910040 -0.514098
C32   C     C_R   0.610756 0.114184 0.881806 0.694743
O16   O     O_R   0.770990 0.081830 0.084440 -0.544182
O17   O     O_3   0.604750 0.938760 0.997250 -0.352327
V3    V     V_3+5 0.329850 0.008280 0.997210 1.434778
O18   O     O_R   0.941680 0.901940 0.910610 -0.548186
C33   C     C_R   0.110867 0.879990 0.881305 0.676430
O19   O     O_R   0.941370 0.902830 0.083720 -0.507681
C34   C     C_R   0.109912 0.880039 0.112421 0.715844
V4    V     V_3+5 0.829860 0.986420 0.997150 1.459236
O20   O     O_3   0.104830 0.056030 0.997180 -0.380685
O21   O     O_3   0.402230 0.886719 0.748851 -0.650029
H22   H     H_    0.438540 0.928931 0.702917 0.271279
O22   O     O_3   0.787774 0.764422 0.158570 -0.647228
H23   H     H_    0.691640 0.720248 0.180682 0.275873
C35   C     C_3   0.980510 0.242617 0.353699 -0.755108
H24   H     H_    0.075063 0.183998 0.335778 0.191797
H25   H     H_    0.066899 0.306159 0.346291 0.218854
H26   H     H_    0.939524 0.233348 0.420160 0.202959

loop_
_geom_bond_atom_site_label_1
_geom_bond_atom_site_label_2
_ccdc_geom_bond_type
C7    C11   S    
C25   C26   A    
C8    C12   S    
C35   H26   S    
C1    O6    A    
C11   O21   S    
C20   C21   A    
C6    C10   S    
C19   H15   S    
C8    C9    S    
C13   C14   A    
O19   V4    S    
O5    C3    A    
C10   C11   S    
V2    O10   S    
C5    C6    S    
O12   V3    S    
C26   H19   S    
C29   C30   A    
O17   V4    S    
O8    V2    S    
C13   O22   S    
O12   C31   A    
C25   C30   A    
C22   C23   A    
O15   V3    S    
O1    V2    S    
O11   C32   A    
C4    C9    S    
O7    V1    S    
C16   C17   A    
C28   H20   S    
O9    C4    A    
C17   C18   A    
C23   C24   A    
C5    H1    S    
C19   C20   A    
C28   C29   A    
O18   C33   A    
C5    C9    S    
O19   C34   A    
C15   C16   A    
O4    C2    A    
V4    O20   S    
O17   V3    S    
O14   V3    S    
O13   V3    S    
C12   H10   S    
O2    C1    A    
C14   H12   S    
C20   H16   S    
C22   H17   S    
V3    O20   S    
C35   H24   S    
C2    C30   S    
O3    C4    A    
C7    H11   S    
C16   H13   S    
C6    H4    S    
C19   C24   A    
O22   H23   S    
O6    V2    S    
C21   C32   S    
O9    V2    S    
C13   C18   A    
C17   H14   S    
O2    V1    S    
C23   H18   S    
O13   C34   A    
C18   C34   S    
C1    C24   S    
O1    C2    A    
O11   V4    S    
C35   H25   S    
O21   H22   S    
O5    V1    S    
O8    C3    A    
C7    C9    S    
C8    H7    S    
C12   H9    S    
C3    C15   S    
O7    V2    S    
H6    C11   S    
O4    V1    S    
C14   C15   A    
O3    V1    S    
V1    O10   S    
C10   C12   S    
C10   C33   S    
C5    H2    S    
C26   C27   A    
O15   C33   A    
C31   O16   A    
H5    C7    S    
C29   H21   S    
C27   C28   A    
C27   C31   S    
C6    H3    S    
C8    H8    S    
O14   C32   A    
C21   C22   A    
O18   V4    S    
C25   C35   S    
O16   V4    S    
