data_mof_unit_21757.cif
_audit_creation_date              2012-12-11T14:44:22-0500
_audit_creation_method            fapswitch 2.2
_symmetry_space_group_name_H-M    P1
_symmetry_Int_Tables_number       1
_space_group_crystal_system       triclinic
_cell_length_a                    24.916832
_cell_length_b                    16.677018
_cell_length_c                    15.619499
_cell_angle_alpha                 90.004116
_cell_angle_beta                  49.408831
_cell_angle_gamma                 90.005491
_cell_volume                      4928.70325493

loop_
_atom_site_label
_atom_site_type_symbol
_atom_type_description
_atom_site_fract_x
_atom_site_fract_y
_atom_site_fract_z
_atom_type_partial_charge
C1    C     C_R   0.333387 0.113748 0.801535 -0.095617
C2    C     C_3   0.789408 0.832567 0.564303 -0.226377
C3    C     C_2   0.701104 0.152927 0.612873 0.422992
C4    C     C_2   0.247482 0.439186 0.620906 0.524210
C5    C     C_2   0.714195 0.645669 0.592580 0.520306
C6    C     C_2   0.747990 0.441538 0.384088 0.568794
C7    C     C_2   0.287979 0.647330 0.407534 0.546705
C8    C     C_3   0.315904 0.623831 0.708824 0.174928
C9    C     C_3   0.394835 0.609891 0.610314 -0.289358
C10   C     C_3   0.407644 0.535466 0.542493 -1.004705
C11   C     C_3   0.814150 0.005999 0.910669 0.178539
C12   C     C_3   0.750478 0.951907 0.957459 -0.284723
C13   C     C_3   0.692018 0.312915 0.608379 -0.129970
C14   C     C_3   0.773608 0.869241 0.902190 -1.011577
C15   C     C_3   0.662726 0.648873 0.321649 0.186561
C16   C     C_3   0.597379 0.693469 0.422572 -0.291123
C17   C     C_3   0.564966 0.651545 0.533493 -1.000233
C18   C     C_3   0.183015 0.007679 0.092505 0.183831
C19   C     C_3   0.244645 0.950844 0.048504 -0.285869
C20   C     C_3   0.218522 0.869985 0.108740 -1.018484
C21   C     C_3   0.874377 0.165685 0.656323 0.199552
C22   C     C_3   0.862842 0.163568 0.571539 -0.212534
C23   C     C_3   0.931952 0.147901 0.452203 -1.093643
C24   C     C_3   0.209848 0.832628 0.436552 -0.224599
C25   C     C_3   0.324408 0.510214 0.909005 0.167787
C26   C     C_3   0.266335 0.449402 0.946953 -0.291047
C27   C     C_3   0.297508 0.370374 0.882932 -1.018716
C28   C     C_3   0.140677 0.149466 0.331790 0.203547
C29   C     C_3   0.123349 0.193604 0.432904 -0.229631
C30   C     C_3   0.074062 0.144551 0.540869 -1.069366
C31   C     C_3   0.677596 0.509990 0.091081 0.170965
C32   C     C_3   0.737244 0.451587 0.052877 -0.293457
C33   C     C_3   0.708229 0.370315 0.111017 -1.016550
C34   C     C_3   0.766538 0.760311 0.435752 -0.127153
C35   C     C_3   0.245631 0.279573 0.608093 -0.236753
C36   C     C_3   0.233958 0.761791 0.564164 -0.120134
C37   C     C_3   0.752948 0.281832 0.392375 -0.233256
C38   C     C_2   0.699357 0.155105 0.013564 -0.341124
C39   C     C_2   0.359853 0.730575 0.843452 -0.346394
C40   C     C_2   0.301183 0.154737 0.986100 -0.334684
C41   C     C_R   0.647901 0.852529 0.245238 -0.125921
C42   C     C_2   0.638335 0.728674 0.161464 -0.346719
C43   C     C_2   0.199734 0.650800 0.011635 -0.358690
C44   C     C_2   0.858540 0.232801 0.848526 -0.389628
C45   C     C_2   0.800790 0.651502 0.987945 -0.345537
C46   C     C_2   0.141321 0.232394 0.152308 -0.360965
C47   C     C_2   0.767759 0.131802 0.942722 0.482748
C48   C     C_2   0.317936 0.680941 0.841134 0.437941
C49   C     C_2   0.232734 0.131883 0.057019 0.465084
C50   C     C_2   0.683025 0.681100 0.159780 0.427477
C51   C     C_2   0.268762 0.630131 0.941583 0.432939
C52   C     C_R   0.666655 0.113826 0.198520 -0.096275
C53   C     C_2   0.818795 0.181552 0.842778 0.421785
C54   C     C_2   0.731692 0.630948 0.058833 0.458115
C55   C     C_2   0.182418 0.182437 0.156121 0.412246
C56   C     C_R   0.586414 0.149626 0.593028 -0.145907
C57   C     C_R   0.385463 0.893467 0.407094 -0.152916
C58   C     C_R   0.413538 0.149667 0.407128 -0.150126
C59   C     C_R   0.614157 0.892272 0.593020 -0.148290
C60   C     C_R   0.087114 0.648433 0.594084 -0.062438
C61   C     C_R   0.884972 0.393537 0.407734 -0.095145
C62   C     C_R   0.913416 0.648877 0.406033 -0.060017
C63   C     C_R   0.352432 0.852120 0.754190 -0.088971
C64   C     C_R   0.114677 0.392604 0.592372 -0.103880
C65   C     C_R   0.664073 0.147273 0.405260 -0.085985
C66   C     C_R   0.309540 0.894937 0.594142 -0.100684
C67   C     C_R   0.335871 0.147180 0.594907 -0.086879
C68   C     C_R   0.690234 0.894011 0.405899 -0.128386
C69   C     C_R   0.162123 0.648799 0.406376 -0.164158
C70   C     C_R   0.809485 0.395034 0.594818 -0.162564
C71   C     C_R   0.838619 0.649265 0.593593 -0.161654
C72   C     C_R   0.190299 0.394274 0.405155 -0.170095
C73   C     C_R   0.579043 0.109314 0.195546 -0.167148
C74   C     C_R   0.833063 0.612615 0.802299 -0.087072
C75   C     C_R   0.441344 0.854137 0.755816 -0.177611
C76   C     C_R   0.421105 0.109240 0.804311 -0.168416
C77   C     C_R   0.558314 0.853624 0.245305 -0.168891
C78   C     C_R   0.079362 0.607993 0.194829 -0.189726
C79   C     C_R   0.940510 0.355545 0.758631 -0.162818
C80   C     C_R   0.920798 0.608190 0.804950 -0.184712
C81   C     C_R   0.059044 0.354985 0.242590 -0.175524
C82   C     C_R   0.350916 0.131041 0.866817 0.166710
C83   C     C_R   0.614923 0.807677 0.216866 0.179791
C84   C     C_R   0.649290 0.131247 0.133040 0.165595
C85   C     C_R   0.148096 0.352663 0.243982 -0.122854
C86   C     C_R   0.384883 0.808027 0.784141 0.185651
C87   C     C_R   0.850346 0.629015 0.868125 0.172461
C88   C     C_R   0.115865 0.309195 0.213021 0.187144
C89   C     C_R   0.149838 0.628827 0.131711 0.186210
C90   C     C_R   0.883488 0.309945 0.788782 0.170007
C91   C     C_R   0.638655 0.192641 0.498466 0.019773
C92   C     C_R   0.317370 0.877946 0.500799 0.096716
C93   C     C_R   0.361153 0.192532 0.501834 0.023414
C94   C     C_R   0.682071 0.875936 0.499321 0.099706
C95   C     C_R   0.137412 0.693060 0.500315 0.024525
C96   C     C_R   0.166932 0.612700 0.197851 -0.085300
C97   C     C_R   0.816852 0.378388 0.501967 0.100031
C98   C     C_R   0.863492 0.693830 0.499787 0.022882
C99   C     C_R   0.182603 0.376890 0.498096 0.105434
C100  C     C_3   0.338112 0.336147 0.450154 -0.245015
C101  C     C_3   0.716310 0.804123 0.606552 -0.274888
C102  C     C_3   0.660478 0.336199 0.552476 -0.251431
C103  C     C_3   0.283383 0.805511 0.393715 -0.268252
C104  C     C_3   0.839310 0.789105 0.393175 -0.262263
C105  C     C_3   0.216190 0.256165 0.550022 -0.247889
C106  C     C_3   0.160802 0.789161 0.607242 -0.269852
C107  C     C_R   0.851601 0.352833 0.756811 -0.119598
C108  C     C_3   0.783739 0.258200 0.448351 -0.246063
C109  C     C_3   0.805913 0.868616 0.457845 0.044074
C110  C     C_3   0.289281 0.229186 0.444721 0.038950
C111  C     C_3   0.193167 0.868990 0.543013 0.044448
C112  C     C_3   0.711353 0.229728 0.553853 0.047691
C113  C     C_3   0.263457 0.363942 0.555833 0.020180
C114  C     C_3   0.748995 0.725337 0.541871 0.026958
C115  C     C_3   0.734386 0.365608 0.446532 0.006207
C116  C     C_3   0.251764 0.726427 0.458054 0.017549
C117  C     C_3   0.734206 0.839565 0.499764 0.151471
C118  C     C_3   0.307944 0.312996 0.392031 -0.133822
C119  C     C_3   0.319039 0.251782 0.501926 0.118175
C120  C     C_3   0.265309 0.841298 0.500475 0.150229
C121  C     C_3   0.680329 0.252471 0.498682 0.118374
C122  C     C_3   0.234568 0.340215 0.498104 0.138342
C123  C     C_3   0.821208 0.753136 0.500066 0.119743
C124  C     C_3   0.764705 0.341721 0.502086 0.139139
C125  C     C_3   0.179177 0.752862 0.500314 0.118541
C126  C     C_2   0.838179 0.949439 0.410014 0.445312
C127  C     C_2   0.300491 0.152881 0.384058 0.440858
C128  C     C_2   0.159917 0.949249 0.591839 0.446447
H1    H     H_    0.281088 0.113926 0.828303 0.147986
H2    H     H_    0.407320 0.894959 0.320465 0.099801
H3    H     H_    0.360222 0.482546 0.919817 0.139355
H4    H     H_    0.357782 0.523852 0.817533 0.075452
H5    H     H_    0.233736 0.437785 0.038543 0.217537
H6    H     H_    0.231368 0.474350 0.932699 0.187375
H7    H     H_    0.329415 0.380490 0.791087 0.263876
H8    H     H_    0.254115 0.327879 0.912646 0.270937
H9    H     H_    0.331380 0.343048 0.898005 0.270083
H10   H     H_    0.162557 0.089226 0.324303 0.112615
H11   H     H_    0.090189 0.141406 0.348032 0.080866
H12   H     H_    0.172946 0.206295 0.416934 0.220842
H13   H     H_    0.441679 0.165479 0.320134 0.122600
H14   H     H_    0.097449 0.251602 0.444252 0.199792
H15   H     H_    0.025176 0.128512 0.556273 0.261394
H16   H     H_    0.059216 0.180240 0.613536 0.275399
H17   H     H_    0.100926 0.088851 0.534315 0.276005
H18   H     H_    0.642839 0.480515 0.079242 0.141406
H19   H     H_    0.643591 0.523174 0.182789 0.065305
H20   H     H_    0.772280 0.442962 0.960250 0.219756
H21   H     H_    0.769311 0.477145 0.072589 0.190152
H22   H     H_    0.673512 0.377437 0.203902 0.263868
H23   H     H_    0.752700 0.329920 0.081968 0.271097
H24   H     H_    0.592355 0.893609 0.679618 0.099375
H25   H     H_    0.677723 0.342224 0.089829 0.269511
H26   H     H_    0.059511 0.662617 0.681336 0.092633
H27   H     H_    0.906435 0.394024 0.321269 0.115047
H28   H     H_    0.941030 0.663159 0.318804 0.092873
H29   H     H_    0.093263 0.392962 0.678810 0.113591
H30   H     H_    0.707825 0.161066 0.318147 0.092188
H31   H     H_    0.260859 0.896315 0.680958 0.109903
H32   H     H_    0.292085 0.160826 0.682056 0.091927
H33   H     H_    0.695450 0.839192 0.231068 0.160928
H34   H     H_    0.738992 0.895351 0.319164 0.120866
H35   H     H_    0.204936 0.664417 0.319471 0.095218
H36   H     H_    0.761163 0.396630 0.681897 0.105105
H37   H     H_    0.795875 0.664937 0.680503 0.094794
H38   H     H_    0.238681 0.395792 0.318131 0.108228
H39   H     H_    0.551628 0.104818 0.163429 0.118176
H40   H     H_    0.477585 0.837572 0.768599 0.111490
H41   H     H_    0.448567 0.104676 0.836343 0.118185
H42   H     H_    0.521518 0.836411 0.233934 0.110230
H43   H     H_    0.051952 0.602912 0.162753 0.110245
H44   H     H_    0.718926 0.113994 0.171863 0.148446
H45   H     H_    0.976655 0.339583 0.771849 0.105986
H46   H     H_    0.948306 0.603286 0.836872 0.110007
H47   H     H_    0.022831 0.338889 0.229550 0.109718
H48   H     H_    0.388535 0.367931 0.410808 0.138439
H49   H     H_    0.665453 0.809725 0.694252 0.125248
H50   H     H_    0.609426 0.367098 0.593762 0.134380
H51   H     H_    0.334016 0.811734 0.305891 0.124470
H52   H     H_    0.890414 0.783673 0.305719 0.123816
H53   H     H_    0.165906 0.223603 0.590664 0.149052
H54   H     H_    0.109884 0.783085 0.694786 0.124403
H55   H     H_    0.305053 0.838077 0.768030 0.151963
H56   H     H_    0.834584 0.226485 0.405974 0.143234
H57   H     H_    0.332799 0.326934 0.303604 0.140564
H58   H     H_    0.800244 0.861211 0.615862 0.127558
H59   H     H_    0.667641 0.325869 0.696826 0.140252
H60   H     H_    0.198493 0.860661 0.385357 0.125614
H61   H     H_    0.756308 0.731217 0.383635 0.146202
H62   H     H_    0.220304 0.266640 0.696974 0.124724
H63   H     H_    0.244508 0.733322 0.616180 0.142544
H64   H     H_    0.777693 0.269826 0.303546 0.124743
H65   H     H_    0.369160 0.718727 0.901301 0.138552
H66   H     H_    0.780900 0.612588 0.828589 0.148462
H67   H     H_    0.680883 0.197866 0.985230 0.150786
H68   H     H_    0.625866 0.714108 0.108269 0.141105
H69   H     H_    0.319980 0.197304 0.014133 0.153326
H70   H     H_    0.864463 0.223111 0.910832 0.148134
H71   H     H_    0.180167 0.690304 0.981919 0.139611
H72   H     H_    0.133801 0.221631 0.092078 0.141815
H73   H     H_    0.820879 0.691120 0.016710 0.147861
H74   H     H_    0.888400 0.963994 0.387528 0.013218
H75   H     H_    0.286584 0.095906 0.427282 0.086896
H76   H     H_    0.108397 0.961904 0.618107 0.004093
H77   H     H_    0.195593 0.338304 0.229688 0.159202
H78   H     H_    0.715759 0.096403 0.568446 0.088325
H79   H     H_    0.269462 0.447658 0.661512 -0.014686
H80   H     H_    0.698774 0.628024 0.672725 -0.014368
H81   H     H_    0.718869 0.453710 0.355925 -0.031704
H82   H     H_    0.300099 0.626679 0.330804 -0.020844
H83   H     H_    0.289104 0.631838 0.673987 0.167489
H84   H     H_    0.290974 0.570326 0.764730 0.070656
H85   H     H_    0.417491 0.663111 0.553873 0.220117
H86   H     H_    0.422459 0.601971 0.643623 0.190333
H87   H     H_    0.387978 0.481207 0.596565 0.252678
H88   H     H_    0.218995 0.612871 0.171907 0.148650
H89   H     H_    0.465234 0.528348 0.471276 0.264812
H90   H     H_    0.380646 0.541252 0.507737 0.304814
H91   H     H_    0.850607 0.973342 0.916329 0.137287
H92   H     H_    0.844614 0.018570 0.819479 0.068830
H93   H     H_    0.718346 0.944876 0.049736 0.218982
H94   H     H_    0.716850 0.980300 0.942540 0.199016
H95   H     H_    0.805783 0.874830 0.809601 0.263433
H96   H     H_    0.726262 0.832266 0.936956 0.272791
H97   H     H_    0.805066 0.838269 0.919668 0.268153
H98   H     H_    0.697910 0.635205 0.340166 0.164435
H99   H     H_    0.804569 0.337528 0.770077 0.153865
H100  H     H_    0.647258 0.589813 0.309990 0.058395
H101  H     H_    0.612385 0.755153 0.426362 0.220921
H102  H     H_    0.557307 0.697486 0.412345 0.196511
H103  H     H_    0.550954 0.588666 0.531878 0.266269
H104  H     H_    0.516645 0.684168 0.603976 0.266830
H105  H     H_    0.602731 0.651859 0.548543 0.302523
H106  H     H_    0.145724 0.976520 0.087487 0.136567
H107  H     H_    0.152575 0.021806 0.183350 0.054929
H108  H     H_    0.276159 0.941112 0.956771 0.215888
H109  H     H_    0.279602 0.978451 0.061212 0.197477
H110  H     H_    0.558250 0.165385 0.680044 0.123002
H111  H     H_    0.187207 0.878205 0.200763 0.262900
H112  H     H_    0.264472 0.830816 0.075455 0.273029
H113  H     H_    0.185339 0.839873 0.094089 0.268308
H114  H     H_    0.891251 0.104801 0.659982 0.068201
H115  H     H_    0.917330 0.209277 0.625809 0.124960
H116  H     H_    0.824426 0.115392 0.595600 0.210996
H117  H     H_    0.840634 0.221804 0.573008 0.211812
H118  H     H_    0.969623 0.197983 0.424070 0.280156
H119  H     H_    0.921487 0.143202 0.393337 0.281268
H120  H     H_    0.956151 0.090831 0.449131 0.265019
N1    N     N_R   0.389620 0.081040 0.705440 -0.057716
N2    N     N_R   0.417680 0.920160 0.443370 -0.040856
N3    N     N_R   0.417680 0.079840 0.443370 -0.038160
N4    N     N_R   0.582320 0.920160 0.556630 -0.040585
N5    N     N_R   0.082320 0.579840 0.556630 -0.033007
N6    N     N_R   0.917680 0.420160 0.443370 -0.046714
N7    N     N_R   0.917680 0.579840 0.443370 -0.033735
N8    N     N_R   0.082320 0.420160 0.556630 -0.047840
N9    N     N_R   0.627920 0.078930 0.443400 -0.036101
N10   N     N_R   0.372080 0.921070 0.556600 -0.047874
N11   N     N_R   0.372080 0.078930 0.556600 -0.038291
N12   N     N_R   0.610380 0.918960 0.294560 -0.061134
N13   N     N_R   0.627920 0.921070 0.443400 -0.052094
N14   N     N_R   0.127920 0.578930 0.443400 -0.035304
N15   N     N_R   0.872080 0.421070 0.556600 -0.043960
N16   N     N_R   0.872080 0.578930 0.556600 -0.036326
N17   N     N_R   0.127920 0.421070 0.443400 -0.048052
N18   N     N_R   0.555090 0.077730 0.294590 -0.042609
N19   N     N_R   0.444910 0.922270 0.705410 -0.042876
N20   N     N_R   0.444910 0.077730 0.705410 -0.042674
N21   N     N_R   0.555090 0.922270 0.294590 -0.042749
N22   N     N_R   0.055090 0.577730 0.294590 -0.043915
N23   N     N_R   0.610380 0.081040 0.294560 -0.057054
N24   N     N_R   0.944910 0.422270 0.705410 -0.044161
N25   N     N_R   0.944910 0.577730 0.705410 -0.043792
N26   N     N_R   0.055090 0.422270 0.294590 -0.042982
N27   N     N_R   0.389620 0.918960 0.705440 -0.063993
N28   N     N_R   0.889620 0.581040 0.705440 -0.056662
N29   N     N_R   0.110380 0.418960 0.294560 -0.059504
N30   N     N_R   0.110380 0.581040 0.294560 -0.056867
N31   N     N_R   0.889620 0.418960 0.705440 -0.058051
N32   N     N_R   0.582320 0.079840 0.556630 -0.037410
Ni1   Ni    Ni4+2 0.382970 1.000000 0.629840 0.223404
Ni2   Ni    Ni4+2 0.617030 1.000000 0.370160 0.222141
Ni3   Ni    Ni4+2 0.882970 0.500000 0.629840 0.213209
Ni4   Ni    Ni4+2 0.117030 0.500000 0.370160 0.211144
Ni5   Ni    Ni4+2 0.514540 1.000000 0.629840 0.216948
Ni6   Ni    Ni4+2 0.485460 1.000000 0.370160 0.215907
Ni7   Ni    Ni4+2 0.014540 0.500000 0.629840 0.223194
Ni8   Ni    Ni4+2 0.985460 0.500000 0.370160 0.224726
O1    O     O_2   0.808607 0.998981 0.395798 -0.610050
O2    O     O_3   0.792468 0.076466 0.976111 -0.693292
O3    O     O_3   0.701321 0.698225 0.224760 -0.696991
O4    O     O_3   0.207544 0.076891 0.024030 -0.691374
O5    O     O_3   0.810799 0.188827 0.763039 -0.665386
O6    O     O_3   0.295049 0.579640 0.977277 -0.688468
O7    O     O_3   0.192328 0.193574 0.232825 -0.668119
O8    O     O_3   0.705012 0.580101 0.024134 -0.693087
O9    O     O_2   0.325271 0.154487 0.286247 -0.582179
O10   O     O_2   0.190032 0.000318 0.602962 -0.609162
O11   O     O_2   0.676135 0.153612 0.710804 -0.581874
O12   O     O_2   0.209160 0.490529 0.630060 -0.569056
O13   O     O_2   0.702530 0.600710 0.544821 -0.581639
O14   O     O_2   0.792001 0.489476 0.363639 -0.568657
O15   O     O_2   0.305030 0.606504 0.451212 -0.581929
O16   O     O_3   0.305694 0.694869 0.767334 -0.691563

loop_
_geom_bond_atom_site_label_1
_geom_bond_atom_site_label_2
_ccdc_geom_bond_type
C105  C110  S    
C74   H66   S    
C56   N32   A    
C36   H63   S    
C79   H45   S    
C19   C20   S    
C110  C118  S    
C8    O16   S    
C104  C123  S    
C75   N19   A    
C2    C123  S    
C126  H74   S    
N19   N27   A    
C43   C89   S    
C27   H8    S    
N1    N20   A    
C56   H110  S    
C45   C87   S    
C90   C107  A    
C97   C124  S    
C1    H1    S    
C94   C117  S    
C10   H87   S    
C40   H69   S    
N25   N28   A    
C38   H67   S    
N12   N21   A    
C52   C84   A    
N32   Ni5   S    
C79   C90   A    
C44   C53   D    
C113  C122  S    
C64   H29   S    
N31   Ni3   S    
C8    H83   S    
C47   C53   S    
C31   H19   S    
C21   C22   S    
C98   C123  S    
C108  C124  S    
C61   H27   S    
C78   C89   A    
C20   H113  S    
C63   H55   S    
C108  H56   S    
C36   C106  S    
C4    C113  S    
N11   Ni1   S    
C37   C108  S    
C13   C124  S    
N23   Ni2   S    
C9    H85   S    
C1    C82   A    
C18   O4    S    
N7    Ni8   S    
C30   H15   S    
N8    Ni7   S    
C41   N12   A    
C65   N9    A    
C126  O1    D    
C57   H2    S    
C75   C86   A    
C3    C112  S    
N2    Ni6   S    
C27   H9    S    
C3    O11   D    
C37   C121  S    
C63   N27   A    
C35   H62   S    
N25   Ni7   S    
C85   N29   A    
N26   Ni8   S    
C7    H82   S    
C31   O8    S    
C71   N16   A    
C65   C91   A    
C72   H38   S    
C42   C83   S    
C65   H30   S    
C69   C95   A    
C18   H106  S    
C13   C112  S    
C96   H88   S    
C23   H118  S    
C103  C116  S    
C20   H112  S    
C58   H13   S    
C89   C96   A    
C35   C113  S    
N10   Ni1   S    
C81   C88   A    
C73   N18   A    
C60   C95   A    
N16   Ni3   S    
C22   C23   S    
C4    O12   D    
C50   O3    S    
C5    O13   D    
C54   O8    S    
C7    O15   D    
C2    C109  S    
C44   H70   S    
C13   H59   S    
C57   C92   A    
C19   H108  S    
C52   H44   S    
C85   H77   S    
C39   H65   S    
C106  C125  S    
C26   H6    S    
N18   N23   A    
C1    N1    A    
C40   C49   D    
C16   H101  S    
C23   H120  S    
C81   N26   A    
C118  C122  S    
C72   N17   A    
C11   O2    S    
C107  H99   S    
C74   C87   A    
C102  C121  S    
C9    C10   S    
C55   O7    S    
C21   H115  S    
C58   N3    A    
C28   H11   S    
C66   H31   S    
C17   H104  S    
C106  C111  S    
C62   N7    A    
C40   C82   S    
N21   Ni6   S    
C21   O5    S    
C33   H23   S    
C76   C82   A    
C16   C17   S    
C66   C92   A    
C25   C26   S    
C49   C55   S    
C68   C94   A    
C7    C116  S    
C46   C55   D    
C29   C30   S    
C35   C105  S    
C31   C32   S    
C100  C119  S    
C12   H94   S    
C42   C50   D    
C114  C123  S    
N29   Ni4   S    
C116  C125  S    
C76   N20   A    
C102  H50   S    
C77   N21   A    
C36   C116  S    
C11   H91   S    
C30   H17   S    
C85   C88   A    
C29   H12   S    
C38   C84   S    
C66   N10   A    
C110  C119  S    
C45   C54   D    
C24   C103  S    
C27   H7    S    
C92   C120  S    
C33   H25   S    
C112  C121  S    
N9    Ni2   S    
C15   O3    S    
C80   N25   A    
C105  C122  S    
C23   H119  S    
N27   Ni1   S    
C60   H26   S    
C109  C126  S    
C37   H64   S    
N19   Ni5   S    
C91   C121  S    
C111  C128  S    
C67   C93   A    
C39   C48   D    
C49   O4    S    
C93   C119  S    
C105  H53   S    
C13   C102  S    
C8    H84   S    
C25   H4    S    
C67   N11   A    
C10   H89   S    
C72   C99   A    
N8    N17   A    
C41   H33   S    
N20   Ni5   S    
N26   N29   A    
C103  C120  S    
C73   H39   S    
N4    Ni5   S    
C22   H116  S    
C109  C117  S    
C6    H81   S    
C59   H24   S    
N24   Ni7   S    
C26   C27   S    
C50   C54   S    
N1    Ni1   S    
C81   H47   S    
C28   C29   S    
C58   C93   A    
C19   H109  S    
C5    C114  S    
C30   H16   S    
C18   C19   S    
C128  H76   S    
C51   O6    S    
C102  C115  S    
C6    O14   D    
N3    N11   A    
C56   C91   A    
N14   Ni4   S    
C77   H42   S    
C100  H48   S    
C75   H40   S    
C59   C94   A    
C70   C97   A    
C101  C114  S    
C118  H57   S    
C28   H10   S    
C18   H107  S    
C108  C112  S    
C127  O9    D    
N18   Ni6   S    
C42   H68   S    
C14   H97   S    
C99   C122  S    
C68   H34   S    
C63   C86   A    
C100  C118  S    
C4    H79   S    
C115  C124  S    
C61   C97   A    
C60   N5    A    
C69   N14   A    
C32   H20   S    
C17   H105  S    
C9    H86   S    
C79   N24   A    
C15   H100  S    
C24   H60   S    
C101  C117  S    
C32   C33   S    
N22   N30   A    
C80   H46   S    
C5    H80   S    
C14   H95   S    
C43   C51   D    
C16   H102  S    
C78   H43   S    
C62   H28   S    
C103  H51   S    
C78   N22   A    
C76   H41   S    
C36   C120  S    
C6    C115  S    
C101  H49   S    
N7    N16   A    
C39   C86   S    
C57   N2    A    
C47   O2    S    
C127  H75   S    
N17   Ni4   S    
C21   H114  S    
N5    N14   A    
C61   N6    A    
C25   O6    S    
C35   C119  S    
C107  N31   A    
C17   H103  S    
C14   H96   S    
C80   C87   A    
C33   H22   S    
C104  C109  S    
C52   N23   A    
C77   C83   A    
C15   C16   S    
C41   C83   A    
N15   Ni3   S    
C106  H54   S    
C62   C98   A    
C31   H18   S    
C48   C51   S    
C32   H21   S    
C8    C9    S    
C67   H32   S    
N3    Ni6   S    
C73   C84   A    
C110  C127  S    
C34   C117  S    
N30   Ni4   S    
C24   C111  S    
C53   O5    S    
C68   N13   A    
C46   C88   S    
C64   C99   A    
C70   N15   A    
C71   C98   A    
C15   H98   S    
C2    C101  S    
C34   C104  S    
C111  C120  S    
C2    H58   S    
C95   C125  S    
C46   H72   S    
C38   C47   D    
N4    N13   A    
C12   C14   S    
N6    N15   A    
N24   N31   A    
C71   H37   S    
C24   C125  S    
C25   H3    S    
C44   C90   S    
C10   H90   S    
C3    H78   S    
C34   H61   S    
C100  C113  S    
C69   H35   S    
N22   Ni8   S    
C48   O16   S    
C70   H36   S    
C22   H117  S    
N12   Ni2   S    
C11   C12   S    
N5    Ni7   S    
C128  O10   D    
N28   Ni3   S    
N6    Ni8   S    
C34   C114  S    
C20   H111  S    
C96   N30   A    
C26   H5    S    
C37   C115  S    
C104  H52   S    
C29   H14   S    
C74   N28   A    
C12   H93   S    
N13   Ni2   S    
N9    N32   A    
C45   H73   S    
C59   N4    A    
C43   H71   S    
C28   O7    S    
C11   H92   S    
N2    N10   A    
C64   N8    A    
