data_mof_unit_32146.cif
_audit_creation_date              2013-03-05T16:00:03-0500
_audit_creation_method            fapswitch 2.2
_symmetry_space_group_name_H-M    P1
_symmetry_Int_Tables_number       1
_space_group_crystal_system       triclinic
_cell_length_a                    20.835438
_cell_length_b                    21.527085
_cell_length_c                    14.822702
_cell_angle_alpha                 89.99974
_cell_angle_beta                  129.361089
_cell_angle_gamma                 90.000561
_cell_volume                      5140.28404841

loop_
_atom_site_label
_atom_site_type_symbol
_atom_site_description
_atom_site_fract_x
_atom_site_fract_y
_atom_site_fract_z
_atom_type_partial_charge
O1    O     O_R   0.600040 0.935040 0.546740 -0.604247
O2    O     O_R   0.399960 0.064960 0.453260 -0.602361
O3    O     O_R   0.399960 0.935040 0.453260 -0.604245
O4    O     O_R   0.600040 0.064960 0.546740 -0.602363
O5    O     O_R   0.100040 0.435040 0.546740 -0.604248
O6    O     O_R   0.899960 0.564960 0.453260 -0.602365
O7    O     O_R   0.899960 0.435040 0.453260 -0.604245
O8    O     O_R   0.100040 0.564960 0.546740 -0.602363
O9    O     O_R   0.555010 0.935070 0.653220 -0.546758
O10   O     O_R   0.444990 0.064930 0.346780 -0.527741
O11   O     O_R   0.444990 0.935070 0.346780 -0.546753
O12   O     O_R   0.555010 0.064930 0.653220 -0.527725
O13   O     O_R   0.055010 0.435070 0.653220 -0.546774
O14   O     O_R   0.944990 0.564930 0.346780 -0.527712
O15   O     O_R   0.944990 0.435070 0.346780 -0.546769
O16   O     O_R   0.055010 0.564930 0.653220 -0.527707
C1    C     C_R   0.604280 0.915003 0.633549 0.813260
C2    C     C_R   0.398307 0.087013 0.369883 0.812793
C3    C     C_R   0.395720 0.915003 0.366451 0.813267
C4    C     C_R   0.601696 0.087010 0.630121 0.812787
C5    C     C_R   0.104279 0.415001 0.633547 0.813269
C6    C     C_R   0.898303 0.587009 0.369877 0.812784
C7    C     C_R   0.895720 0.415002 0.366451 0.813266
C8    C     C_R   0.101698 0.587009 0.630123 0.812786
Cu1   Cu    Cu3+1 0.526640 1.000000 0.436960 0.987136
Cu2   Cu    Cu3+1 0.473360 0.000000 0.563040 0.987140
Cu3   Cu    Cu3+1 0.026640 0.500000 0.436960 0.987142
Cu4   Cu    Cu3+1 0.973360 0.500000 0.563040 0.987143
C9    C     C_R   0.655718 0.140257 0.697938 -0.056629
C10   C     C_R   0.329466 0.871693 0.281704 -0.049473
C11   C     C_R   0.344300 0.140268 0.302081 -0.056651
C12   C     C_R   0.670533 0.871693 0.718295 -0.049474
C13   C     C_R   0.155730 0.640250 0.697952 -0.056624
C14   C     C_R   0.829471 0.371688 0.281711 -0.049486
C15   C     C_R   0.844274 0.640251 0.302052 -0.056625
C16   C     C_R   0.170522 0.371682 0.718280 -0.049499
C17   C     C_R   0.765230 0.211544 0.753666 -0.194438
C18   C     C_R   0.198559 0.820560 0.194588 -0.185767
C19   C     C_R   0.234851 0.211600 0.246440 -0.194445
C20   C     C_R   0.801429 0.820549 0.805391 -0.185767
C21   C     C_R   0.265282 0.711507 0.753730 -0.194443
C22   C     C_R   0.698600 0.320511 0.194660 -0.185759
C23   C     C_R   0.734735 0.711516 0.246290 -0.194445
C24   C     C_R   0.301355 0.320460 0.805260 -0.185765
C25   C     C_R   0.714033 0.161491 0.686975 -0.192095
C26   C     C_R   0.264407 0.857289 0.282772 -0.195535
C27   C     C_R   0.286027 0.161535 0.313106 -0.192103
C28   C     C_R   0.735584 0.857281 0.717212 -0.195539
C29   C     C_R   0.214068 0.661464 0.687020 -0.192092
C30   C     C_R   0.764440 0.357252 0.282826 -0.195552
C31   C     C_R   0.785944 0.661471 0.312994 -0.192093
C32   C     C_R   0.235525 0.357215 0.717116 -0.195565
C33   C     C_R   0.647240 0.170885 0.772931 -0.203727
C34   C     C_R   0.328338 0.848613 0.192591 -0.201488
C35   C     C_R   0.352756 0.170876 0.227050 -0.203770
C36   C     C_R   0.671668 0.848618 0.807417 -0.201486
C37   C     C_R   0.147246 0.670887 0.772931 -0.203710
C38   C     C_R   0.828320 0.348628 0.192567 -0.201485
C39   C     C_R   0.852755 0.670885 0.227067 -0.203718
C40   C     C_R   0.171693 0.348641 0.807453 -0.201484
C41   C     C_R   0.698535 0.221080 0.842024 0.078441
C42   C     C_R   0.260912 0.814072 0.099823 0.082981
C43   C     C_R   0.301487 0.221087 0.157990 0.078430
C44   C     C_R   0.739091 0.814073 0.900179 0.082976
C45   C     C_R   0.198556 0.721073 0.842041 0.078445
C46   C     C_R   0.760903 0.314072 0.099821 0.082963
C47   C     C_R   0.801451 0.721074 0.157964 0.078443
C48   C     C_R   0.239103 0.314068 0.900175 0.082945
C49   C     C_R   0.759203 0.240546 0.832776 0.165340
C50   C     C_R   0.196350 0.798833 0.103371 0.153916
C51   C     C_R   0.240858 0.240585 0.167297 0.165354
C52   C     C_R   0.803645 0.798826 0.896616 0.153915
C53   C     C_R   0.259248 0.740517 0.832828 0.165337
C54   C     C_R   0.696371 0.298801 0.103416 0.153916
C55   C     C_R   0.740766 0.740525 0.167189 0.165340
C56   C     C_R   0.303604 0.298766 0.896530 0.153911
C57   C     C_R   0.694160 0.250095 0.924305 0.059376
C58   C     C_R   0.257280 0.792817 0.005784 0.068989
C59   C     C_R   0.305849 0.250088 0.075687 0.059356
C60   C     C_R   0.742729 0.792820 0.994224 0.068987
C61   C     C_R   0.194171 0.750099 0.924304 0.059385
C62   C     C_R   0.757255 0.292828 0.005762 0.068989
C63   C     C_R   0.805833 0.750098 0.075695 0.059381
C64   C     C_R   0.242771 0.292837 0.994258 0.068991
C65   C     C_R   0.314117 0.813250 0.989894 -0.215920
C66   C     C_R   0.629376 0.237597 0.928552 -0.169078
C67   C     C_R   0.685901 0.813260 0.010127 -0.215917
C68   C     C_R   0.370605 0.237561 0.071393 -0.169079
C69   C     C_R   0.814065 0.313282 0.989834 -0.215906
C70   C     C_R   0.129363 0.737628 0.928509 -0.169066
C71   C     C_R   0.185997 0.313320 0.010236 -0.215892
C72   C     C_R   0.870633 0.737620 0.071477 -0.169068
C73   C     C_R   0.314186 0.787998 0.903890 -0.231479
C74   C     C_R   0.630360 0.262030 0.016072 -0.211422
C75   C     C_R   0.685834 0.788010 0.096135 -0.231479
C76   C     C_R   0.369604 0.261979 0.983849 -0.211415
C77   C     C_R   0.814125 0.288039 0.903816 -0.231478
C78   C     C_R   0.130330 0.762076 0.016006 -0.211432
C79   C     C_R   0.185957 0.288092 0.096282 -0.231496
C80   C     C_R   0.869661 0.762064 0.983973 -0.211430
H1    H     H_    0.359345 0.804482 0.895454 0.145749
H2    H     H_    0.579709 0.251129 0.016433 0.144429
H3    H     H_    0.640682 0.804498 0.104581 0.145748
H4    H     H_    0.420233 0.251055 0.983451 0.144448
H5    H     H_    0.859265 0.304540 0.895353 0.145759
H6    H     H_    0.079658 0.751198 0.016331 0.144415
H7    H     H_    0.140847 0.304616 0.104788 0.145761
H8    H     H_    0.920327 0.751180 0.983637 0.144418
H9    H     H_    0.381688 0.857531 0.198422 0.154645
H10   H     H_    0.601477 0.153475 0.778186 0.196079
H11   H     H_    0.618323 0.857544 0.801599 0.154654
H12   H     H_    0.398483 0.153440 0.221740 0.196143
H13   H     H_    0.881649 0.357575 0.198356 0.154680
H14   H     H_    0.101466 0.653491 0.778162 0.196062
H15   H     H_    0.118385 0.357613 0.801705 0.154712
H16   H     H_    0.898529 0.653485 0.221826 0.196069
H17   H     H_    0.263855 0.874971 0.350683 0.151057
H18   H     H_    0.720829 0.139002 0.628093 0.159021
H19   H     H_    0.736131 0.874957 0.649294 0.151059
H20   H     H_    0.279251 0.139064 0.372021 0.159029
H21   H     H_    0.763905 0.374915 0.350763 0.151067
H22   H     H_    0.220869 0.638968 0.628151 0.159021
H23   H     H_    0.236042 0.374862 0.649155 0.151075
H24   H     H_    0.779145 0.638977 0.371868 0.159021
H25   H     H_    0.310957 0.726639 0.745456 0.136917
H26   H     H_    0.649015 0.309478 0.197222 0.135380
H27   H     H_    0.689066 0.726653 0.254574 0.136914
H28   H     H_    0.350916 0.309402 0.802659 0.135371
H29   H     H_    0.810888 0.226692 0.745365 0.136915
H30   H     H_    0.148951 0.809554 0.197112 0.135373
H31   H     H_    0.189226 0.226774 0.254790 0.136907
H32   H     H_    0.851031 0.809535 0.802856 0.135369
H33   H     H_    0.358615 0.849697 0.041295 0.142727
H34   H     H_    0.575622 0.210245 0.863644 0.163894
H35   H     H_    0.641409 0.849710 0.958734 0.142730
H36   H     H_    0.424351 0.210197 0.136283 0.163936
H37   H     H_    0.858550 0.349739 0.041217 0.142724
H38   H     H_    0.075601 0.710287 0.863582 0.163865
H39   H     H_    0.141528 0.349787 0.958874 0.142724
H40   H     H_    0.924393 0.710275 0.136397 0.163877
N1    N     N_R   0.433280 0.000000 0.657760 -0.227606
N2    N     N_R   0.566720 0.000000 0.342240 -0.227606
N3    N     N_R   0.933280 0.500000 0.657760 -0.227601
N4    N     N_R   0.066720 0.500000 0.342240 -0.227602
C81   C     C_R   0.321274 0.979643 0.659084 -0.306544
C82   C     C_R   0.678729 0.979651 0.340920 -0.306545
C83   C     C_R   0.821273 0.479648 0.659084 -0.306547
C84   C     C_R   0.178729 0.479652 0.340919 -0.306555
C85   C     C_R   0.351449 0.988830 0.599039 -0.002685
C86   C     C_R   0.648552 0.988834 0.400963 -0.002684
C87   C     C_R   0.851449 0.488830 0.599039 -0.002682
C88   C     C_R   0.148551 0.488832 0.400962 -0.002690
C89   C     C_R   0.488686 0.002439 0.778476 0.458451
C90   C     C_R   0.511315 0.002437 0.221523 0.458451
C91   C     C_R   0.988686 0.502443 0.778475 0.458444
C92   C     C_R   0.011315 0.502442 0.221525 0.458442
C93   C     C_R   0.462106 0.987822 0.844576 -0.108242
C94   C     C_R   0.537898 0.987823 0.155427 -0.108232
C95   C     C_R   0.962105 0.487831 0.844576 -0.108237
C96   C     C_R   0.037897 0.487831 0.155426 -0.108235
C97   C     C_R   0.376002 0.979132 0.781330 0.114903
C98   C     C_R   0.624003 0.979138 0.218675 0.114902
C99   C     C_R   0.876000 0.479141 0.781329 0.114915
C100  C     C_R   0.124002 0.479145 0.218674 0.114921
C101  C     C_R   0.516772 0.982612 0.970330 0.085826
C102  C     C_R   0.483233 0.982610 0.029674 0.085842
C103  C     C_R   0.016771 0.482624 0.970329 0.085851
C104  C     C_R   0.983232 0.482622 0.029673 0.085843
C105  C     C_R   0.397383 0.971268 0.961808 -0.143507
C106  C     C_R   0.602624 0.971278 0.038198 -0.143531
C107  C     C_R   0.897380 0.471284 0.961807 -0.143548
C108  C     C_R   0.102623 0.471291 0.038197 -0.143559
C109  C     C_R   0.345155 0.969080 0.840570 -0.185135
C110  C     C_R   0.654852 0.969090 0.159435 -0.185142
C111  C     C_R   0.845153 0.469094 0.840570 -0.185154
C112  C     C_R   0.154851 0.469101 0.159434 -0.185188
H41   H     H_    0.279689 0.959887 0.792682 0.150969
H42   H     H_    0.720319 0.959902 0.207325 0.150970
H43   H     H_    0.779686 0.459902 0.792682 0.150972
H44   H     H_    0.220318 0.459912 0.207323 0.150976
H45   H     H_    0.690667 0.986606 0.495249 0.143498
H46   H     H_    0.309333 0.986600 0.504754 0.143501
H47   H     H_    0.190667 0.486601 0.495248 0.143507
H48   H     H_    0.809334 0.486598 0.504754 0.143499
H49   H     H_    0.255414 0.971769 0.609972 0.149887
H50   H     H_    0.744591 0.971781 0.390035 0.149887
H51   H     H_    0.755413 0.471774 0.609971 0.149887
H52   H     H_    0.244590 0.471781 0.390033 0.149887
H53   H     H_    0.369661 0.959661 0.000722 0.189432
H54   H     H_    0.630348 0.959674 0.999286 0.189438
H55   H     H_    0.869657 0.459679 0.000719 0.189427
H56   H     H_    0.130349 0.459691 0.999287 0.189424
N5    N     N_R   0.430766 0.029003 0.163497 0.105416
O17   O     O_R   0.409993 0.078628 0.100240 -0.406179
O18   O     O_R   0.373518 0.998338 0.155398 -0.382498
N6    N     N_R   0.569234 0.029007 0.836498 0.105435
O19   O     O_R   0.590000 0.078642 0.899728 -0.406133
O20   O     O_R   0.626484 0.998341 0.844605 -0.382510
N7    N     N_R   0.930768 0.529010 0.163505 0.105441
O21   O     O_R   0.910005 0.578649 0.100282 -0.406101
O22   O     O_R   0.873517 0.498344 0.155395 -0.382524
N8    N     N_R   0.069232 0.529013 0.836493 0.105441
O23   O     O_R   0.089994 0.578653 0.899711 -0.406094
O24   O     O_R   0.126483 0.498347 0.844604 -0.382546

loop_
_geom_bond_atom_site_label_1
_geom_bond_atom_site_label_2
_geom_bond_distance
_ccdc_geom_bond_type
C25   H18   1.083007 S    
O16   Cu4   1.936543 S    
C18   C50   1.403597 A    
C47   C63   1.423708 A    
C101  C102  1.428904 A    
C17   C49   1.402634 A    
C35   H12   1.072337 S    
O2    C2    1.303824 A    
C44   C60   1.422778 A    
C54   C74   1.391326 A    
Cu1   N2    2.038570 S    
C53   C73   1.391097 A    
C99   C111  1.395276 A    
C68   C76   1.387907 A    
O4    Cu1   1.945686 S    
C55   C75   1.391097 A    
C87   H48   1.081650 S    
C5    C16   1.467408 S    
C43   C59   1.423706 A    
C108  H56   1.072995 S    
C96   C104  1.446183 A    
C6    C15   1.468376 S    
C82   C98   1.401048 A    
O11   C3    1.305809 A    
C62   C69   1.416032 A    
C19   H31   1.083940 S    
C93   C101  1.446190 A    
C96   C100  1.413887 A    
O12   Cu2   1.936543 S    
O10   C2    1.308356 A    
C90   C94   1.433157 A    
C60   C67   1.416028 A    
C52   C80   1.391328 A    
C59   C64   1.420892 A    
C32   H23   1.083056 S    
O11   Cu1   1.936546 S    
C13   C29   1.400733 A    
O6    C6    1.303817 A    
C42   C58   1.422778 A    
C45   C53   1.418443 A    
C42   C50   1.417608 A    
C15   C39   1.396647 A    
C24   C56   1.403603 A    
C20   C28   1.393317 A    
C66   C74   1.387907 A    
C51   C79   1.391096 A    
C39   C47   1.403696 A    
O5    Cu3   1.945699 S    
C90   N5    1.432658 S    
C65   C73   1.386717 A    
C38   C46   1.402505 A    
C104  C107  1.410233 A    
O6    Cu4   1.945698 S    
C75   H3    1.084486 S    
C39   H16   1.072330 S    
N5    O18   1.300481 A    
C35   C43   1.403681 A    
C38   H13   1.076153 S    
C36   C44   1.402508 A    
O13   Cu4   1.936560 S    
O3    C3    1.305900 A    
C64   C71   1.416036 A    
C105  H53   1.073014 S    
O14   Cu3   1.936559 S    
C86   H45   1.081650 S    
Cu2   N1    2.038571 S    
C110  H42   1.084188 S    
C36   H11   1.076161 S    
C16   C32   1.400428 A    
C77   H5    1.084491 S    
C24   C32   1.393314 A    
O15   C7    1.305812 A    
C20   H32   1.083942 S    
N7    O21   1.301140 A    
O16   C8    1.308358 A    
C82   C86   1.391518 A    
O1    Cu1   1.945699 S    
C31   H24   1.083008 S    
C12   C28   1.400407 A    
C30   H21   1.083047 S    
C33   C41   1.403690 A    
C95   C103  1.446185 A    
C60   C63   1.420896 A    
C21   C29   1.392310 A    
C59   C68   1.416360 A    
C70   H38   1.077013 S    
C66   H34   1.077013 S    
O9    Cu2   1.936560 S    
C28   H19   1.083047 S    
C4    C9    1.468377 S    
C23   C55   1.402632 A    
C80   H8    1.084427 S    
C22   C54   1.403602 A    
N8    O23   1.301139 A    
C91   C95   1.433151 A    
C48   C64   1.422789 A    
C67   H35   1.076877 S    
C92   C96   1.433146 A    
C68   H36   1.077016 S    
N6    O20   1.300482 A    
C73   H1    1.084480 S    
C103  C104  1.428901 A    
C72   C80   1.387911 A    
C94   C98   1.413882 A    
C111  H43   1.084187 S    
C34   C42   1.402501 A    
C83   H51   1.083795 S    
Cu1   Cu2   2.712270 S    
C107  C111  1.391176 A    
O7    Cu4   1.945688 S    
C26   H17   1.083040 S    
C69   C77   1.386720 A    
C12   C36   1.397431 A    
C84   C100  1.401046 A    
N4    C92   1.384581 A    
C81   C97   1.401049 A    
C83   C87   1.391510 A    
C63   C72   1.416351 A    
C21   H25   1.083917 S    
C46   C62   1.422784 A    
C10   C34   1.397428 A    
O15   Cu3   1.936546 S    
C109  H41   1.084187 S    
C7    C14   1.467404 S    
O12   C4    1.308356 A    
Cu3   N4    2.038570 S    
O13   C5    1.305814 A    
O2    Cu2   1.945698 S    
Cu4   N3    2.038571 S    
C48   C56   1.417626 A    
N2    C90   1.384592 A    
C88   H47   1.081650 S    
C14   C38   1.397437 A    
O14   C6    1.308358 A    
C40   C48   1.402510 A    
C103  C108  1.410233 A    
N8    O24   1.300479 A    
C22   C30   1.393315 A    
C71   H39   1.076869 S    
C61   C70   1.416344 A    
C58   C65   1.416025 A    
O9    C1    1.305813 A    
C27   H20   1.083017 S    
C43   C51   1.418447 A    
C57   C66   1.416356 A    
C69   H37   1.076874 S    
C76   H4    1.084446 S    
C15   C31   1.400736 A    
C85   H46   1.081650 S    
C95   C99   1.413886 A    
C92   N7    1.432657 S    
C47   C55   1.418450 A    
C23   H27   1.083921 S    
C72   H40   1.077015 S    
C93   C97   1.413886 A    
C49   C77   1.391096 A    
O10   Cu1   1.936559 S    
C19   C27   1.392318 A    
C106  C110  1.391185 A    
C41   C49   1.418450 A    
C101  C106  1.410234 A    
C1    C12   1.467401 S    
C41   C57   1.423711 A    
C67   C75   1.386721 A    
C24   H28   1.083968 S    
C13   C37   1.396643 A    
C20   C52   1.403600 A    
C82   H50   1.083799 S    
O3    Cu2   1.945688 S    
C84   C88   1.391510 A    
C97   C109  1.395284 A    
C37   C45   1.403694 A    
N6    O19   1.301141 A    
C16   C40   1.397443 A    
C78   H6    1.084414 S    
C14   C30   1.400411 A    
C34   H9    1.076137 S    
C37   H14   1.072328 S    
C98   C110  1.395286 A    
C84   H52   1.083800 S    
C79   H7    1.084502 S    
C106  H54   1.073005 S    
O1    C1    1.305900 A    
C8    C13   1.468374 S    
C18   H30   1.083924 S    
C10   C26   1.400391 A    
N3    C91   1.384582 A    
C11   C35   1.396651 A    
N2    C86   1.356480 A    
N4    C88   1.356478 A    
C83   C99   1.401047 A    
C56   C76   1.391328 A    
C58   C61   1.420893 A    
N1    C89   1.384590 A    
N1    C85   1.356478 A    
C89   N6    1.432657 S    
C9    C33   1.396644 A    
C57   C62   1.420895 A    
C23   C31   1.392312 A    
O7    C7    1.305902 A    
C29   H22   1.083003 S    
N3    C87   1.356476 A    
O8    C8    1.303818 A    
C17   H29   1.083927 S    
C100  C112  1.395277 A    
C44   C52   1.417616 A    
C89   C93   1.433155 A    
C107  H55   1.073005 S    
C81   C85   1.391513 A    
C18   C26   1.393315 A    
C22   H26   1.083949 S    
C33   H10   1.072330 S    
C21   C53   1.402631 A    
O4    C4    1.303820 A    
C94   C102  1.446187 A    
C108  C112  1.391176 A    
C112  H44   1.084188 S    
O5    C5    1.305904 A    
C74   H2    1.084432 S    
C102  C105  1.410232 A    
N5    O17   1.301148 A    
C81   H49   1.083797 S    
Cu3   Cu4   2.712270 S    
N7    O22   1.300487 A    
O8    Cu3   1.945686 S    
C105  C109  1.391181 A    
C45   C61   1.423711 A    
C40   H15   1.076184 S    
C11   C27   1.400754 A    
C2    C11   1.468384 S    
C91   N8    1.432656 S    
C71   C79   1.386729 A    
C3    C10   1.467399 S    
C17   C25   1.392313 A    
C70   C78   1.387911 A    
C9    C25   1.400741 A    
C50   C78   1.391328 A    
C65   H33   1.076877 S    
C19   C51   1.402643 A    
C46   C54   1.417618 A    
