data_mof_unit_49601.cif
_audit_creation_date              2013-03-05T16:41:04-0500
_audit_creation_method            fapswitch 2.2
_symmetry_space_group_name_H-M    P1
_symmetry_Int_Tables_number       1
_space_group_crystal_system       triclinic
_cell_length_a                    8.588704
_cell_length_b                    10.685021
_cell_length_c                    9.877254
_cell_angle_alpha                 89.619203
_cell_angle_beta                  98.561304
_cell_angle_gamma                 90.172164
_cell_volume                      896.318377163

loop_
_atom_site_label
_atom_site_type_symbol
_atom_site_description
_atom_site_fract_x
_atom_site_fract_y
_atom_site_fract_z
_atom_type_partial_charge
O1    O     O_R   0.500020 0.316790 0.614690 -0.615677
O2    O     O_R   0.500000 0.316760 0.385350 -0.623661
C1    C     C_R   0.505203 0.259871 0.500919 0.891294
O3    O     O_R   0.271760 0.500010 0.587850 -0.621389
O4    O     O_R   0.271740 0.499970 0.358500 -0.588906
C2    C     C_R   0.201240 0.500315 0.464171 0.985403
Zn1   Zn    Zn3+2 0.500010 0.500020 0.653130 0.955383
Zn2   Zn    Zn3+2 0.499990 0.499980 0.346870 0.974827
O5    O     O_R   0.500000 0.683240 0.614650 -0.622289
O6    O     O_R   0.499980 0.683210 0.385310 -0.625883
O7    O     O_R   0.728260 0.500030 0.641500 -0.622957
O8    O     O_R   0.728240 0.499990 0.412150 -0.620924
C3    C     C_R   0.505753 0.739983 0.500308 0.871527
C4    C     C_R   0.798747 0.500896 0.535780 0.971933
C5    C     C_2   0.036090 0.500164 0.444883 -0.332035
H1    H     H_    0.974407 0.496239 0.340520 0.219007
C6    C     C_2   0.963825 0.503566 0.554857 -0.406720
H2    H     H_    0.025399 0.508726 0.659073 0.187968
C7    C     C_R   0.542844 0.062634 0.627296 0.142572
C8    C     C_R   0.531997 0.128462 0.504133 -0.104144
C9    C     C_R   0.553547 0.065556 0.383895 -0.196990
H3    H     H_    0.558143 0.115054 0.288469 0.177343
C10   C     C_R   0.554072 0.936116 0.383482 -0.214948
H4    H     H_    0.558844 0.888117 0.287911 0.176561
C11   C     C_R   0.533074 0.871192 0.503299 -0.103846
C12   C     C_R   0.543382 0.934871 0.626792 0.132059
C13   C     C_3   0.443000 0.925551 0.737719 -0.457298
C14   C     C_3   0.442008 0.067273 0.738119 -0.491683
H5    H     H_    0.325263 0.883804 0.702239 0.209772
H6    H     H_    0.507705 0.884030 0.833319 0.208347
H7    H     H_    0.323568 0.107507 0.702441 0.208156
H8    H     H_    0.506231 0.107211 0.834255 0.209058
C15   C     C_R   0.365078 0.474750 0.054209 0.164888
N1    N     N_R   0.498950 0.499140 0.142680 -0.145982
C16   C     C_R   0.629197 0.536670 0.088254 -0.093272
H9    H     H_    0.734413 0.564643 0.155389 0.175945
C17   C     C_R   0.629164 0.536719 0.944461 -0.087288
H10   H     H_    0.734218 0.564689 0.903864 0.184925
N2    N     N_R   0.498950 0.499180 0.857030 -0.116873
C18   C     C_R   0.364986 0.474777 0.911569 0.176581
C19   C     C_3   0.270518 0.357099 0.893956 -0.572078
C20   C     C_3   0.271774 0.356318 0.048113 0.124379
H11   H     H_    0.152517 0.371708 0.832925 0.228765
H12   H     H_    0.338129 0.278972 0.858706 0.187756
H13   H     H_    0.337194 0.276289 0.102186 0.115644
N3    N     N_R   0.115468 0.374565 0.086744 0.237657
O9    O     O_R   0.062078 0.294648 0.168568 -0.407101
O10   O     O_R   0.029109 0.470177 0.041128 -0.445806

loop_
_geom_bond_atom_site_label_1
_geom_bond_atom_site_label_2
_geom_bond_distance
_ccdc_geom_bond_type
O4    Zn2   1.980732 S    
C10   H4    1.083460 S    
C5    C6    1.329599 D    
C17   H10   1.081075 S    
C13   H5    1.112741 S    
C19   C20   1.521043 S    
C16   H9    1.080857 S    
Zn2   O8    1.970396 S    
C13   C14   1.514389 S    
C19   H12   1.105572 S    
C10   C11   1.402229 A    
C15   N1    1.362214 A    
C11   C12   1.391820 A    
C1    C8    1.422909 S    
C17   N2    1.368119 A    
Zn2   N1    2.015606 S    
C9    H3    1.083513 S    
C13   H6    1.112189 S    
Zn1   O7    1.980732 S    
C7    C14   1.494640 S    
C19   H11   1.110258 S    
C4    C6    1.402421 S    
C3    C11   1.420546 S    
C12   C13   1.494312 S    
O3    Zn1   1.970397 S    
C15   C20   1.492553 S    
O3    C2    1.280174 A    
C18   C19   1.491423 S    
C16   C17   1.420243 A    
O8    C4    1.279802 A    
C6    H2    1.086656 S    
O2    C1    1.284631 A    
C9    C10   1.383126 A    
O4    C2    1.282295 A    
O7    C4    1.282593 A    
N3    O10   1.302221 A    
C15   C18   1.408774 A    
C5    H1    1.087598 S    
C14   H8    1.111784 S    
C8    C9    1.404743 A    
Zn2   O6    1.996771 S    
N1    C16   1.369186 A    
C20   N3    1.463184 S    
N2    C18   1.364871 A    
Zn1   O5    1.991780 S    
C7    C12   1.365215 A    
Zn1   N2    2.015307 S    
N3    O9    1.300548 A    
O5    C3    1.285649 A    
C2    C5    1.402769 S    
O1    Zn1   1.996772 S    
O6    C3    1.285628 A    
C14   H7    1.112512 S    
O2    Zn2   1.991779 S    
C7    C8    1.392333 A    
O1    C1    1.287946 A    
C20   H13   1.113398 S    
