data_mof_unit_20536.cif
_audit_creation_date              2012-12-11T16:05:10-0500
_audit_creation_method            fapswitch 2.2
_symmetry_space_group_name_H-M    P1
_symmetry_Int_Tables_number       1
_space_group_crystal_system       triclinic
_cell_length_a                    10.623894
_cell_length_b                    10.689621
_cell_length_c                    16.930236
_cell_angle_alpha                 98.880575
_cell_angle_beta                  98.315463
_cell_angle_gamma                 61.777229
_cell_volume                      1668.12885735

loop_
_atom_site_label
_atom_site_type_symbol
_atom_type_description
_atom_site_fract_x
_atom_site_fract_y
_atom_site_fract_z
_atom_type_partial_charge
Br1   Br    Br    0.035388 0.831730 0.167928 -0.332801
C1    C     C_R   0.357124 0.771029 0.397675 0.557999
C2    C     C_3   0.334252 0.707860 0.246958 -0.122725
C3    C     C_3   0.351193 0.807416 0.318723 0.005172
C4    C     C_R   0.370946 0.346682 0.358868 0.532258
C5    C     C_3   0.463421 0.821527 0.278022 -0.076346
C6    C     C_3   0.339556 0.953902 0.241955 -0.165569
C7    C     C_3   0.228842 0.937646 0.284405 -0.108628
C8    C     C_3   0.211484 0.839101 0.212031 0.225295
C9    C     C_3   0.321285 0.854841 0.169946 0.034392
C10   C     C_3   0.459869 0.249715 0.772141 -0.107847
C11   C     C_3   0.409632 0.390387 0.735292 -0.113536
C12   C     C_3   0.702005 0.428340 0.261354 -0.164891
C13   C     C_3   0.336039 0.335562 0.663434 0.053662
C14   C     C_3   0.386384 0.195694 0.699691 -0.111569
C15   C     C_3   0.245243 0.266119 0.741082 -0.109427
C16   C     C_R   0.781552 0.374135 0.403708 0.554511
C17   C     C_3   0.195200 0.407002 0.703635 -0.118414
C18   C     C_3   0.268586 0.460717 0.777020 -0.126347
C19   C     C_3   0.319628 0.320178 0.812794 0.052894
C20   C     C_1   0.816894 0.342465 0.709701 -0.043932
C21   C     C_1   0.843911 0.314636 0.777997 -0.044964
C22   C     C_1   0.357155 0.765418 0.714239 -0.046909
C23   C     C_3   0.823572 0.344058 0.323061 0.006974
C24   C     C_1   0.326370 0.811720 0.781973 -0.046846
C25   C     C_R   0.890444 0.311534 0.090404 0.551300
C26   C     C_R   0.318926 0.299499 0.120242 0.535393
C27   C     C_R   0.292530 0.893722 0.089220 0.552498
C28   C     C_R   0.378960 0.716199 0.631504 0.548938
C29   C     C_R   0.885447 0.298945 0.860817 0.536705
C30   C     C_R   0.308583 0.293210 0.891753 0.538254
C31   C     C_R   0.282532 0.880239 0.859732 0.541183
C32   C     C_R   0.366471 0.346194 0.585179 0.531110
C33   C     C_R   0.773093 0.380394 0.629790 0.533672
C34   C     C_3   0.865126 0.208646 0.265953 0.404995
C35   C     C_1   0.344143 0.335790 0.275166 -0.041202
C36   C     C_1   0.331451 0.326454 0.203952 -0.033178
C37   C     C_3   0.745535 0.290720 0.203004 -0.142864
C38   C     C_3   0.971737 0.242962 0.232528 -0.159181
C39   C     C_3   0.927974 0.380970 0.290684 -0.146458
C40   C     C_3   0.807885 0.463365 0.228495 0.389880
C41   C     C_3   0.850217 0.327977 0.170780 0.004608
C42   C     C_3   0.444041 0.724267 0.204206 -0.141127
Cr1   Cr    Cr6+3 0.608340 0.611040 0.520430 1.030463
Cr2   Cr    Cr6+3 0.287650 0.601120 0.489350 1.053557
Cr3   Cr    Cr6+3 0.604040 0.287870 0.490280 1.071416
Cr4   Cr    Cr6+3 0.054020 0.052700 0.970850 1.061294
Cr5   Cr    Cr6+3 0.059230 0.375120 0.993390 1.088558
Cr6   Cr    Cr6+3 0.374950 0.061200 0.992340 1.061245
F1    F     F_    0.891216 0.080696 0.290580 -0.579561
F2    F     F_    0.778216 0.595308 0.207784 -0.598442
H1    H     H_    0.593130 0.499034 0.280083 0.116454
H2    H     H_    0.670906 0.255265 0.165990 0.149879
H3    H     H_    0.080708 0.171622 0.214058 0.114699
H4    H     H_    0.002674 0.416384 0.327674 0.142393
H5    H     H_    0.331211 0.606747 0.251006 0.132350
H6    H     H_    0.524878 0.640193 0.165476 0.171497
H7    H     H_    0.566378 0.814507 0.307904 0.197163
H8    H     H_    0.343031 0.054700 0.237661 0.131680
H9    H     H_    0.147790 0.021617 0.323018 0.171749
H10   H     H_    0.477991 0.441459 0.730909 0.102319
H11   H     H_    0.568267 0.187349 0.801815 0.134820
H12   H     H_    0.432676 0.087828 0.666364 0.138061
H13   H     H_    0.177242 0.214788 0.745766 0.118844
H14   H     H_    0.087415 0.469340 0.673343 0.136733
H15   H     H_    0.222424 0.568216 0.810737 0.132948
O1    O     O_R   0.751220 0.499230 0.435170 -0.517591
O2    O     O_R   0.412990 0.180750 0.091610 -0.504020
O3    O     O_R   0.366620 0.943130 0.065760 -0.489598
O4    O     O_R   0.477220 0.727600 0.436870 -0.505410
O5    O     O_R   0.160510 0.906330 0.879210 -0.508644
O6    O     O_R   0.930190 0.179050 0.889450 -0.500140
O7    O     O_R   0.909140 0.398170 0.896710 -0.505737
O8    O     O_R   0.186190 0.363460 0.918830 -0.500112
O9    O     O_R   0.401670 0.173200 0.913310 -0.516117
O10   O     O_R   0.356120 0.936130 0.900470 -0.492020
O11   O     O_3   0.162740 0.163010 0.985530 -0.283432
O12   O     O_R   0.297880 0.469080 0.560050 -0.518219
O13   O     O_R   0.258650 0.745120 0.411470 -0.475703
O14   O     O_R   0.297070 0.467240 0.395960 -0.498435
O15   O     O_R   0.488830 0.252610 0.387790 -0.486663
O16   O     O_R   0.724400 0.302390 0.420980 -0.452341
O17   O     O_R   0.752100 0.501210 0.612190 -0.518112
O18   O     O_R   0.478040 0.729440 0.600970 -0.493654
O19   O     O_R   0.259530 0.747110 0.588490 -0.496009
O20   O     O_R   0.489720 0.254590 0.564810 -0.513508
O21   O     O_R   0.725220 0.304230 0.585080 -0.495993
O22   O     O_3   0.500010 0.500010 0.500020 -0.294100
O23   O     O_R   0.171830 0.913880 0.057510 -0.482593
O24   O     O_R   0.940690 0.186050 0.054730 -0.496909
O25   O     O_R   0.920470 0.405720 0.075010 -0.446384
O26   O     O_R   0.196690 0.370460 0.084120 -0.475608

loop_
_geom_bond_atom_site_label_1
_geom_bond_atom_site_label_2
_ccdc_geom_bond_type
C6    C9    S    
Cr6   O2    S    
C40   C41   S    
C5    H7    S    
C34   C38   S    
C18   C19   S    
C3    C7    S    
Cr1   O17   S    
C13   C32   S    
C12   C40   S    
C6    C7    S    
C17   H14   S    
C2    C42   S    
C22   C28   S    
C35   C36   T    
C37   C41   S    
C32   O12   A    
C38   H3    S    
C14   C15   S    
C12   H1    S    
C4    C35   S    
C18   H15   S    
C16   O16   A    
C13   C17   S    
C26   O2    A    
Cr3   O16   S    
C10   C14   S    
C27   O3    A    
C7    C8    S    
Cr5   O25   S    
Cr6   O9    S    
Cr1   O4    S    
Cr2   O12   S    
C1    O13   A    
C38   C41   S    
C8    C9    S    
C28   O19   A    
C10   H11   S    
C24   C31   S    
Cr6   O3    S    
C20   C21   T    
Cr4   O23   S    
C6    H8    S    
C31   O5    A    
Cr3   O22   S    
C10   C19   S    
C16   O1    A    
C16   C23   S    
C23   C34   S    
Cr5   O8    S    
Cr2   O22   S    
Br1   C8    S    
C28   O18   A    
C3    C5    S    
C38   C39   S    
C29   O7    A    
C17   C18   S    
C30   O8    A    
C20   C33   S    
C25   O25   A    
C12   C23   S    
Cr5   O11   S    
C1    C3    S    
C32   O20   A    
C2    C8    S    
Cr3   O15   S    
C4    O15   A    
C2    H5    S    
C30   O9    A    
C15   C19   S    
C39   H4    S    
C34   C37   S    
C34   F1    S    
Cr6   O10   S    
C26   O26   A    
Cr2   O13   S    
C4    O14   A    
Cr4   O5    S    
C12   C37   S    
C27   O23   A    
C39   C40   S    
C11   C13   S    
C5    C42   S    
Cr4   O24   S    
C33   O17   A    
Cr4   O11   S    
C2    C3    S    
C25   C41   S    
Cr3   O21   S    
C9    C27   S    
C21   C29   S    
C9    C42   S    
Cr5   O7    S    
Cr1   O18   S    
C31   O10   A    
C29   O6    A    
C10   C11   S    
C5    C6    S    
C25   O24   A    
Cr2   O19   S    
Cr1   O22   S    
C7    H9    S    
C11   H10   S    
C37   H2    S    
C26   C36   S    
C11   C18   S    
C23   C39   S    
Cr6   O11   S    
Cr2   O14   S    
C33   O21   A    
C22   C24   T    
Cr4   O6    S    
C42   H6    S    
C15   C17   S    
Cr5   O26   S    
C14   H12   S    
C13   C14   S    
Cr1   O1    S    
C15   H13   S    
C1    O4    A    
C40   F2    S    
Cr3   O20   S    
C19   C30   S    
