data_mof_unit_32810.cif
_audit_creation_date              2013-03-05T15:50:42-0500
_audit_creation_method            fapswitch 2.2
_symmetry_space_group_name_H-M    P1
_symmetry_Int_Tables_number       1
_space_group_crystal_system       triclinic
_cell_length_a                    15.076344
_cell_length_b                    10.863843
_cell_length_c                    9.585437
_cell_angle_alpha                 90.715343
_cell_angle_beta                  89.763511
_cell_angle_gamma                 93.055586
_cell_volume                      1567.606648

loop_
_atom_site_label
_atom_site_type_symbol
_atom_site_description
_atom_site_fract_x
_atom_site_fract_y
_atom_site_fract_z
_atom_type_partial_charge
O1    O     O_R   0.499990 0.319640 0.618810 -0.540454
O2    O     O_R   0.500000 0.319660 0.381240 -0.586922
C1    C     C_R   0.507451 0.263472 0.499501 0.822473
O3    O     O_R   0.370250 0.499960 0.618800 -0.543133
O4    O     O_R   0.370260 0.499980 0.381230 -0.587475
C2    C     C_R   0.328706 0.500887 0.500141 0.844297
Cu1   Cu    Cu3+1 0.499990 0.499990 0.640660 0.972912
Cu2   Cu    Cu3+1 0.500010 0.500010 0.359340 0.935263
O5    O     O_R   0.500000 0.680340 0.618760 -0.621719
O6    O     O_R   0.500010 0.680360 0.381190 -0.598071
O7    O     O_R   0.629740 0.500020 0.618770 -0.614842
O8    O     O_R   0.629750 0.500040 0.381200 -0.603484
C3    C     C_R   0.496788 0.737937 0.502134 0.771514
C4    C     C_R   0.671325 0.501094 0.499767 0.775196
C5    C     C_R   0.814987 0.520869 0.625029 -0.255436
C6    C     C_R   0.768291 0.503540 0.499339 -0.068032
C7    C     C_R   0.814451 0.488928 0.373291 -0.247323
C8    C     C_R   0.906918 0.489883 0.372311 0.106528
C9    C     C_R   0.953650 0.506783 0.498990 0.067536
C10   C     C_R   0.907460 0.522997 0.625689 0.109459
C11   C     C_R   0.953382 0.473652 0.246984 -0.211961
C12   C     C_R   0.045848 0.473048 0.247185 -0.199041
C13   C     C_R   0.092802 0.489255 0.372626 0.106671
C14   C     C_R   0.046655 0.506980 0.499051 0.059548
C15   C     C_R   0.093413 0.524610 0.625585 0.097087
C16   C     C_R   0.046994 0.541822 0.750775 -0.189338
C17   C     C_R   0.954464 0.540674 0.750886 -0.213998
C18   C     C_R   0.185146 0.487395 0.373978 -0.235828
C19   C     C_R   0.231852 0.503954 0.499818 -0.082517
C20   C     C_R   0.185835 0.524278 0.624777 -0.186118
H1    H     H_    0.779543 0.533035 0.722473 0.160580
H2    H     H_    0.778532 0.475713 0.275988 0.161402
H3    H     H_    0.918209 0.460848 0.149037 0.143265
H4    H     H_    0.080610 0.459730 0.149390 0.153926
H5    H     H_    0.220484 0.472365 0.276990 0.166495
H6    H     H_    0.221784 0.540449 0.721428 0.189582
H7    H     H_    0.082204 0.555370 0.848594 0.150573
H8    H     H_    0.919674 0.553421 0.848774 0.143255
C21   C     C_R   0.578822 0.129378 0.739854 -0.110096
H9    H     H_    0.612183 0.219551 0.730788 0.141412
C22   C     C_R   0.578619 0.074116 0.870085 -0.114528
H10   H     H_    0.608333 0.122847 0.958876 0.128805
C23   C     C_R   0.536093 0.958808 0.886988 -0.120033
H11   H     H_    0.530371 0.918971 0.989843 0.141711
C24   C     C_R   0.502566 0.893217 0.770993 -0.153412
H12   H     H_    0.466535 0.807364 0.792755 0.172808
C25   C     C_R   0.511386 0.942390 0.634714 0.091005
C26   C     C_R   0.536740 0.068658 0.624297 0.116495
C27   C     C_R   0.517211 0.130322 0.499800 -0.117832
C28   C     C_R   0.495152 0.062334 0.378881 -0.205432
H13   H     H_    0.475213 0.885207 0.285100 0.168120
C29   C     C_R   0.488459 0.935054 0.382049 -0.204469
C30   C     C_R   0.495600 0.873058 0.508544 -0.111615
H14   H     H_    0.397174 0.363704 0.129983 0.167514
C31   C     C_R   0.621000 0.661198 0.145445 -0.133749
H15   H     H_    0.625263 0.670951 0.255502 0.199236
C32   C     C_R   0.681481 0.737892 0.073720 -0.227209
H16   H     H_    0.727844 0.799248 0.130432 0.155410
C33   C     C_R   0.681722 0.737381 0.929940 -0.212022
H17   H     H_    0.727984 0.798716 0.874135 0.156344
C34   C     C_R   0.621126 0.660703 0.857087 -0.136950
H18   H     H_    0.624305 0.671456 0.747287 0.201379
C35   C     C_R   0.559657 0.578920 0.925775 0.119015
C36   C     C_R   0.559590 0.579018 0.075419 0.192657
N1    N     N_R   0.500860 0.501210 0.147910 -0.225205
C37   C     C_R   0.443420 0.424970 0.074183 -0.130522
C38   C     C_R   0.442986 0.424532 0.926381 0.411888
N2    N     N_R   0.500890 0.501290 0.852040 -0.268196
N3    N     N_R   0.380049 0.343074 0.856336 0.144258
O9    O     O_R   0.297102 0.370153 0.856892 -0.400450
O10   O     O_R   0.398604 0.228490 0.838188 -0.359957
H19   H     H_    0.482274 0.107471 0.281418 0.171748

loop_
_geom_bond_atom_site_label_1
_geom_bond_atom_site_label_2
_geom_bond_distance
_ccdc_geom_bond_type
C31   H15   1.060811 S    
C8    C11   1.402105 A    
C22   H10   1.082563 S    
C9    C10   1.411256 A    
C1    C27   1.461815 S    
Cu1   Cu2   2.696577 S    
C21   C22   1.391849 A    
C24   H12   1.076295 S    
Cu1   O7    1.966497 S    
C16   C17   1.394401 A    
C18   C19   1.404021 A    
O4    C2    1.298551 A    
O7    C4    1.299240 A    
C32   C33   1.378128 A    
C11   H3    1.083978 S    
C17   H8    1.084037 S    
C5    C6    1.403504 A    
N3    O10   1.299782 A    
C8    C9    1.411478 A    
C34   C35   1.415449 A    
C28   H19   1.083518 S    
O5    C3    1.290245 A    
Cu1   N2    2.026138 S    
C18   H5    1.084522 S    
C6    C7    1.403333 A    
C28   C29   1.381752 A    
C13   C14   1.411087 A    
C25   C30   1.430771 A    
C37   C38   1.416739 A    
C33   H17   1.082992 S    
C11   C12   1.394425 A    
C22   C23   1.387485 A    
N3    O9    1.299826 A    
O3    Cu1   1.968040 S    
C3    C30   1.469519 S    
C24   C25   1.420523 A    
C5    C10   1.393152 A    
C12   H4    1.083960 S    
C33   C34   1.387724 A    
H13   C29   1.083585 S    
C14   C15   1.411232 A    
O3    C2    1.301121 A    
C21   H9    1.081403 S    
C15   C16   1.402198 A    
C38   N2    1.377437 A    
C38   N3    1.426592 S    
C23   H11   1.082928 S    
C19   C20   1.402722 A    
C25   C26   1.408895 A    
Cu2   O8    1.968038 S    
C31   C36   1.416631 A    
C7    C8    1.393540 A    
C13   C18   1.393557 A    
C23   C24   1.394981 A    
C26   C27   1.415440 A    
O8    C4    1.299796 A    
N1    C37   1.359902 A    
C31   C32   1.387961 A    
C4    C6    1.460715 S    
C29   C30   1.401641 A    
C15   C20   1.393569 A    
Cu1   O5    1.973103 S    
C35   N2    1.380729 A    
O1    Cu1   1.967855 S    
O2    Cu2   1.973105 S    
O6    C3    1.312354 A    
O4    Cu2   1.966497 S    
C16   H7    1.083950 S    
C5    H1    1.084334 S    
H14   C37   1.082383 S    
C10   C17   1.402126 A    
C20   H6    1.082975 S    
C36   N1    1.382442 A    
O2    C1    1.302261 A    
C32   H16   1.082962 S    
C9    C14   1.402071 A    
C34   H18   1.061004 S    
C35   C36   1.434385 A    
Cu2   N1    2.026838 S    
C2    C19   1.462367 S    
Cu2   O6    1.967855 S    
C27   C28   1.398283 A    
C7    H2    1.084580 S    
C12   C13   1.402262 A    
O1    C1    1.296802 A    
C21   C26   1.416869 A    
