data_mof_unit_66037.cif
_audit_creation_date              2012-12-10T16:59:24-0500
_audit_creation_method            fapswitch 2.2
_symmetry_space_group_name_H-M    P1
_symmetry_Int_Tables_number       1
_space_group_crystal_system       triclinic
_cell_length_a                    13.15853
_cell_length_b                    13.170681
_cell_length_c                    17.923379
_cell_angle_alpha                 110.528213
_cell_angle_beta                  72.783804
_cell_angle_gamma                 91.171691
_cell_volume                      2766.57169775

loop_
_atom_site_label
_atom_site_type_symbol
_atom_type_description
_atom_site_fract_x
_atom_site_fract_y
_atom_site_fract_z
_atom_type_partial_charge
Br1   Br    Br    0.976697 0.335869 0.344860 -0.076697
Br2   Br    Br    0.282039 0.789664 0.847855 -0.054166
C1    C     C_R   0.217018 0.543644 0.531664 0.515684
C2    C     C_R   0.545350 0.373092 0.904539 -0.131854
C3    C     C_R   0.582323 0.302840 0.935203 -0.129690
C4    C     C_R   0.781709 0.456345 0.468346 0.510459
C5    C     C_R   0.576894 0.336973 0.019289 0.040800
C6    C     C_R   0.536400 0.445032 0.073718 0.047886
C7    C     C_R   0.608875 0.263155 0.050101 -0.134920
C8    C     C_R   0.599303 0.295196 0.134627 -0.133664
C9    C     C_R   0.549360 0.482167 0.154876 -0.022992
C10   C     C_2   0.895598 0.437707 0.452948 0.034720
C11   C     C_2   0.939569 0.497292 0.510915 -0.144871
C12   C     C_R   0.352909 0.687479 0.875265 0.016292
C13   C     C_2   0.101668 0.558824 0.546758 -0.111320
C14   C     C_2   0.054828 0.485563 0.497525 -0.146902
C15   C     C_2   0.540132 0.896850 0.537366 0.028224
C16   C     C_R   0.471073 0.217515 0.475342 0.512644
C17   C     C_2   0.502671 0.940647 0.492103 -0.127178
C18   C     C_2   0.461589 0.102079 0.463704 -0.110589
C19   C     C_2   0.509018 0.056048 0.502138 -0.150443
C20   C     C_R   0.528418 0.782415 0.524668 0.520420
C21   C     C_R   0.551675 0.433086 0.276716 0.503433
C22   C     C_R   0.448179 0.567238 0.724081 0.506079
C23   C     C_R   0.471302 0.529358 0.844178 -0.150529
C24   C     C_R   0.423369 0.596246 0.815727 0.014378
C25   C     C_R   0.570602 0.404284 0.186972 0.051521
C26   C     C_R   0.331936 0.708779 0.960404 -0.126494
C27   C     C_3   0.276329 0.756068 0.141245 -0.407337
C28   C     C_3   0.589951 0.961432 0.603207 -0.396857
C29   C     C_3   0.554349 0.601447 0.203463 -0.397509
C30   C     C_R   0.448295 0.548045 0.930133 0.011674
C31   C     C_R   0.378499 0.640819 0.989196 0.047888
C32   C     C_R   0.493841 0.477373 0.958730 0.029402
C33   C     C_R   0.481855 0.509164 0.045385 0.020034
C34   C     C_R   0.406019 0.596352 0.102320 -0.118195
C35   C     C_R   0.355089 0.662674 0.075762 -0.001363
H1    H     H_    0.636276 0.179316 0.009684 0.112427
H2    H     H_    0.278182 0.779676 0.003827 0.118564
H3    H     H_    0.529089 0.464123 0.797783 0.133601
H4    H     H_    0.382001 0.610684 0.168506 0.120941
H5    H     H_    0.550852 0.339817 0.839161 0.107313
H6    H     H_    0.266992 0.759755 0.205830 0.127761
H7    H     H_    0.304365 0.834492 0.136909 0.132356
H8    H     H_    0.196569 0.746549 0.131663 0.138629
H9    H     H_    0.612654 0.909394 0.633997 0.128684
H10   H     H_    0.663393 0.994018 0.574026 0.128532
H11   H     H_    0.532250 0.029567 0.652203 0.133000
H12   H     H_    0.102870 0.415802 0.446150 0.175571
H13   H     H_    0.559555 0.652959 0.165301 0.130346
H14   H     H_    0.484345 0.631868 0.260893 0.120506
H15   H     H_    0.628445 0.611662 0.221889 0.165659
H16   H     H_    0.889255 0.557816 0.568784 0.117948
H17   H     H_    0.054968 0.629423 0.598347 0.109599
H18   H     H_    0.553296 0.105016 0.542152 0.166556
H19   H     H_    0.465077 0.889836 0.447194 0.112064
H20   H     H_    0.416408 0.054768 0.423646 0.106004
H21   H     H_    0.616679 0.235317 0.159039 0.114535
H22   H     H_    0.615097 0.221024 0.892782 0.109239
O1    O     O_3   0.500000 0.500000 0.500000 -0.439965
O2    O     O_R   0.474570 0.394560 0.317400 -0.539171
O3    O     O_R   0.403380 0.624270 0.695980 -0.529135
O4    O     O_R   0.609140 0.497770 0.314440 -0.545392
O5    O     O_R   0.512900 0.483390 0.672170 -0.549787
O6    O     O_R   0.526170 0.271940 0.521690 -0.541011
O7    O     O_R   0.451880 0.756290 0.574830 -0.536490
O8    O     O_R   0.271960 0.460780 0.472050 -0.539006
O9    O     O_R   0.749980 0.510990 0.431420 -0.534377
O10   O     O_R   0.262540 0.611050 0.579000 -0.534912
O11   O     O_R   0.715520 0.417170 0.517520 -0.539311
O12   O     O_R   0.426070 0.262540 0.438550 -0.538730
O13   O     O_R   0.595870 0.709230 0.464930 -0.539019
Zn1   Zn    Zn3+2 0.562560 0.419520 0.551940 0.932119
Zn2   Zn    Zn3+2 0.419550 0.406100 0.433160 0.940366
Zn3   Zn    Zn3+2 0.611810 0.553570 0.428930 0.936208
Zn4   Zn    Zn3+2 0.406080 0.620810 0.585960 0.949811

loop_
_geom_bond_atom_site_label_1
_geom_bond_atom_site_label_2
_ccdc_geom_bond_type
C8    C25   A    
C17   H19   S    
C33   C34   A    
C29   H15   S    
C5    C6    A    
O9    Zn3   S    
C10   C11   D    
C2    H5    S    
C28   H11   S    
C34   C35   A    
C1    O10   A    
C22   C24   S    
C23   H3    S    
C4    C10   S    
C13   C14   D    
O1    Zn1   S    
O6    Zn1   S    
O10   Zn4   S    
C5    C7    A    
C32   C33   A    
O1    Zn2   S    
C20   O7    A    
C8    H21   S    
O5    Zn1   S    
C21   C25   S    
C7    C8    A    
C23   C30   A    
C4    O9    A    
C9    C29   S    
C22   O5    A    
C27   H6    S    
C15   C28   S    
O3    Zn4   S    
C34   H4    S    
Br1   C10   S    
O13   Zn3   S    
C20   O13   A    
C11   H16   S    
C2    C32   A    
C3    H22   S    
C13   H17   S    
C28   H10   S    
C14   H12   S    
C3    C5    A    
C26   H2    S    
C23   C24   A    
O1    Zn4   S    
C31   C35   A    
C27   H8    S    
C16   O6    A    
C6    C33   A    
C30   C32   A    
C9    C25   A    
O7    Zn4   S    
O11   Zn1   S    
O8    Zn2   S    
C12   C24   A    
C26   C31   A    
C27   H7    S    
C29   H13   S    
C1    C13   S    
C19   H18   S    
C16   O12   A    
C4    O11   A    
C22   O3    A    
C17   C19   S    
C28   H9    S    
C1    O8    A    
C29   H14   S    
C2    C3    A    
O12   Zn2   S    
O2    Zn2   S    
O1    Zn3   S    
C15   C20   S    
C30   C31   A    
O4    Zn3   S    
C6    C9    A    
C21   O4    A    
C7    H1    S    
C15   C17   D    
C16   C18   S    
Br2   C12   S    
C21   O2    A    
C18   C19   D    
C11   C14   S    
C27   C35   S    
C12   C26   A    
C18   H20   S    
