data_mof_unit_26468.cif
_audit_creation_date              2012-12-10T17:02:57-0500
_audit_creation_method            fapswitch 2.2
_symmetry_space_group_name_H-M    P1
_symmetry_Int_Tables_number       1
_space_group_crystal_system       triclinic
_cell_length_a                    9.78397
_cell_length_b                    11.074605
_cell_length_c                    13.499938
_cell_angle_alpha                 94.225167
_cell_angle_beta                  81.554623
_cell_angle_gamma                 111.152213
_cell_volume                      1349.08094985

loop_
_atom_site_label
_atom_site_type_symbol
_atom_type_description
_atom_site_fract_x
_atom_site_fract_y
_atom_site_fract_z
_atom_type_partial_charge
C1    C     C_R   0.555891 0.745366 0.507667 0.879781
C2    C     C_R   0.440394 0.487906 0.970462 -0.042354
C3    C     C_R   0.483684 0.529057 0.869797 -0.055200
C4    C     C_R   0.551670 0.517703 0.035302 0.084191
C5    C     C_R   0.703754 0.567008 0.995888 0.125227
C6    C     C_R   0.741860 0.616138 0.899291 -0.222459
C7    C     C_R   0.632901 0.606284 0.840812 -0.115933
C8    C     C_R   0.516232 0.506645 0.138952 -0.168981
C9    C     C_R   0.771230 0.551965 0.159775 -0.212161
C10   C     C_R   0.377538 0.490156 0.800628 -0.239495
C11   C     C_2   0.585884 0.884060 0.512002 -0.459248
C12   C     C_R   0.423791 0.495141 0.690916 0.845536
C13   C     C_2   0.479957 0.930543 0.502403 0.644884
C14   C     C_2   0.410686 0.116469 0.490485 -0.280022
C15   C     C_2   0.513768 0.069469 0.504676 -0.271790
C16   C     C_2   0.922331 0.489857 0.491678 -0.060087
C17   C     C_2   0.076975 0.508905 0.509223 0.032383
C18   C     C_R   0.443461 0.254867 0.493107 0.851487
C19   C     C_R   0.577940 0.512298 0.309652 0.812565
C20   C     C_R   0.813290 0.574696 0.057035 0.095413
C21   C     C_R   0.623905 0.523354 0.201296 -0.114280
C22   C     C_R   0.227170 0.428722 0.836502 0.519418
C23   C     C_R   0.184647 0.391113 0.935268 -0.285377
C24   C     C_R   0.289086 0.413584 0.000471 0.501440
Cu1   Cu    Cu3+1 0.362000 0.479240 0.482530 1.024096
Cu2   Cu    Cu3+1 0.638000 0.520760 0.517470 0.956126
H1    H     H_    0.854217 0.560133 0.207516 0.165844
H2    H     H_    0.300563 0.052687 0.477096 0.208479
H3    H     H_    0.696645 0.949396 0.522608 0.120259
H4    H     H_    0.125450 0.575841 0.568153 0.188085
H5    H     H_    0.873193 0.421701 0.433588 0.154572
H6    H     H_    0.106572 0.385890 0.400173 0.201849
H7    H     H_    0.894658 0.616485 0.598243 0.203711
H8    H     H_    0.855413 0.669091 0.869963 0.148591
H9    H     H_    0.405650 0.493850 0.173216 0.229473
H10   H     H_    0.069609 0.336424 0.960081 0.196401
H11   H     H_    0.668638 0.659933 0.772375 0.164328
H12   H     H_    0.624066 0.133699 0.517598 0.156504
N1    N     N_2   0.845330 0.551960 0.543750 -0.278745
N2    N     N_2   0.154690 0.448120 0.456210 -0.286332
O1    O     O_R   0.426290 0.668220 0.490680 -0.512706
O2    O     O_R   0.659360 0.703290 0.520190 -0.590000
O3    O     O_R   0.326580 0.473880 0.629020 -0.516679
O4    O     O_R   0.559660 0.508940 0.658530 -0.591033
O5    O     O_R   0.340640 0.296710 0.479810 -0.565834
O6    O     O_R   0.573710 0.331780 0.509320 -0.575380
O7    O     O_R   0.440340 0.491060 0.341470 -0.573672
O8    O     O_R   0.673420 0.526120 0.370980 -0.585008
F1    F     F_    0.339756 0.850578 0.490038 -0.658009
C25   C     C_3   0.973039 0.599044 0.015093 -0.426542
C26   C     C_3   0.069299 0.742069 0.025405 -0.341774
C27   C     C_3   0.229950 0.764847 0.983072 -0.801703
H13   H     H_    0.275047 0.707329 0.024157 0.251713
H14   H     H_    0.238281 0.736733 0.902304 0.253078
H15   H     H_    0.297498 0.869032 0.991274 0.253836
H16   H     H_    0.027786 0.802653 0.984632 0.226002
H17   H     H_    0.064291 0.772639 0.105769 0.234078
H18   H     H_    0.016130 0.539703 0.056067 0.212374
H19   H     H_    0.982071 0.565795 0.935535 0.222000
F2    F     F_    0.121140 0.395202 0.774583 -0.651618
F3    F     F_    0.240358 0.351551 0.088792 -0.681301

loop_
_geom_bond_atom_site_label_1
_geom_bond_atom_site_label_2
_ccdc_geom_bond_type
C2    C4    A    
C23   C24   A    
C15   H12   S    
C24   F3    S    
C26   H17   S    
C14   C18   S    
C9    C20   A    
C1    C11   S    
C27   H15   S    
Cu2   O8    S    
C4    C8    A    
C6    H8    S    
Cu1   O3    S    
C13   C15   S    
C2    C3    A    
C7    H11   S    
Cu2   O4    S    
C12   O4    A    
C3    C10   A    
C10   C22   A    
C16   H5    S    
C2    C24   A    
C17   H4    S    
C11   C13   D    
C9    C21   A    
H7    N1    S    
C10   C12   S    
C13   F1    S    
C25   H19   S    
C18   O6    A    
C1    O1    A    
C19   C21   S    
C27   H14   S    
C25   C26   S    
C12   O3    A    
C3    C7    A    
H6    N2    S    
Cu1   N2    S    
C22   F2    S    
C5    C6    A    
C5    C20   A    
C19   O7    A    
Cu2   N1    S    
C11   H3    S    
Cu2   O6    S    
C16   N1    D    
C26   C27   S    
C25   H18   S    
C18   O5    A    
Cu1   O5    S    
C1    O2    A    
C27   H13   S    
C9    H1    S    
C23   H10   S    
Cu1   O1    S    
Cu2   O2    S    
Cu1   O7    S    
C14   C15   D    
C16   C17   S    
C20   C25   S    
C14   H2    S    
Cu1   Cu2   S    
C19   O8    A    
C17   N2    D    
C22   C23   A    
C6    C7    A    
C26   H16   S    
C4    C5    A    
C8    H9    S    
C8    C21   A    
