data_mof_unit_37632.cif
_audit_creation_date              2012-12-11T15:42:55-0500
_audit_creation_method            fapswitch 2.2
_symmetry_space_group_name_H-M    P1
_symmetry_Int_Tables_number       1
_space_group_crystal_system       triclinic
_cell_length_a                    18.996749
_cell_length_b                    10.915795
_cell_length_c                    18.789595
_cell_angle_alpha                 89.978872
_cell_angle_beta                  89.77479
_cell_angle_gamma                 90.603162
_cell_volume                      3896.05086576

loop_
_atom_site_label
_atom_site_type_symbol
_atom_type_description
_atom_site_fract_x
_atom_site_fract_y
_atom_site_fract_z
_atom_type_partial_charge
C1    C     C_R   0.730116 0.375741 0.145689 0.551186
C2    C     C_R   0.288563 0.328857 0.861419 0.566914
C3    C     C_R   0.230116 0.875741 0.145689 0.551186
C4    C     C_R   0.788563 0.828858 0.861419 0.566914
C5    C     C_R   0.528596 0.381790 0.920587 -0.095906
C6    C     C_R   0.510809 0.397719 0.067497 -0.087779
C7    C     C_R   0.028596 0.881790 0.920587 -0.095906
C8    C     C_R   0.010809 0.897719 0.067497 -0.087779
C9    C     C_R   0.033284 0.995108 0.954298 -0.129714
C10   C     C_R   0.022782 0.003417 0.027321 -0.139228
C11   C     C_R   0.533284 0.495108 0.954298 -0.129714
C12   C     C_R   0.522782 0.503417 0.027321 -0.139228
C13   C     C_R   0.778606 0.842830 0.938143 0.014473
C14   C     C_R   0.247331 0.906815 0.073216 0.018193
C15   C     C_R   0.278606 0.342830 0.938143 0.014473
C16   C     C_R   0.747331 0.406815 0.073216 0.018193
C17   C     C_R   0.714008 0.818377 0.971313 0.007288
C18   C     C_R   0.277224 0.816968 0.029330 0.037941
C19   C     C_R   0.214008 0.318377 0.971313 0.007288
C20   C     C_R   0.777224 0.316968 0.029330 0.037941
C21   C     C_R   0.703649 0.845329 0.042610 0.004039
C22   C     C_R   0.277366 0.829494 0.956169 0.006809
C23   C     C_R   0.203649 0.345329 0.042610 0.004039
C24   C     C_R   0.777366 0.329494 0.956169 0.006809
C25   C     C_R   0.825491 0.903995 0.053190 -0.157205
C26   C     C_R   0.206958 0.010533 0.968568 -0.137264
C27   C     C_R   0.325491 0.403995 0.053190 -0.157205
C28   C     C_R   0.706958 0.510533 0.968568 -0.137264
C29   C     C_R   0.835706 0.877433 0.981091 -0.157660
C30   C     C_R   0.209556 0.001277 0.041650 -0.143904
C31   C     C_R   0.335706 0.377433 0.981091 -0.157660
C32   C     C_R   0.709556 0.501277 0.041650 -0.143904
C33   C     C_3   0.642022 0.859573 0.951520 -0.268238
C34   C     C_3   0.349782 0.765089 0.028664 -0.270305
C35   C     C_3   0.142022 0.359573 0.951520 -0.268238
C36   C     C_3   0.849782 0.265089 0.028664 -0.270305
C37   C     C_3   0.630813 0.889325 0.029522 -0.261836
C38   C     C_3   0.348710 0.776265 0.948008 -0.280257
C39   C     C_3   0.130813 0.389325 0.029522 -0.261836
C40   C     C_3   0.848710 0.276265 0.948008 -0.280257
C41   C     C_R   0.757547 0.898377 0.083079 0.014359
C42   C     C_R   0.245673 0.930483 0.924885 0.023346
C43   C     C_R   0.257547 0.398377 0.083079 0.014359
C44   C     C_R   0.745673 0.430483 0.924885 0.023346
C45   C     C_R   0.531257 0.156295 0.146762 0.547904
C46   C     C_R   0.469083 0.155392 0.853010 0.531118
C47   C     C_R   0.031257 0.656295 0.146762 0.547904
C48   C     C_R   0.969083 0.655392 0.853010 0.531118
C49   C     C_R   0.508438 0.162966 0.580713 0.016204
C50   C     C_R   0.545987 0.161040 0.436156 0.013392
C51   C     C_R   0.008438 0.662967 0.580713 0.016204
C52   C     C_R   0.045987 0.661040 0.436156 0.013392
C53   C     C_R   0.518990 0.052930 0.544250 0.033269
C54   C     C_R   0.535785 0.052542 0.473451 0.016672
C55   C     C_R   0.018990 0.552930 0.544250 0.033269
C56   C     C_R   0.035785 0.552542 0.473451 0.016672
C57   C     C_R   0.545080 0.272579 0.474007 -0.157369
C58   C     C_R   0.526100 0.273723 0.546436 -0.167446
C59   C     C_R   0.045080 0.772579 0.474007 -0.157369
C60   C     C_R   0.026100 0.773723 0.546436 -0.167446
C61   C     C_3   0.469641 0.946079 0.535449 -0.268285
C62   C     C_3   0.487753 0.946802 0.457351 -0.271796
C63   C     C_3   0.969641 0.446079 0.535449 -0.268285
C64   C     C_3   0.987753 0.446802 0.457351 -0.271796
C65   C     C_R   0.748606 0.939841 0.582530 0.014770
C66   C     C_R   0.241652 0.903390 0.427540 0.015595
C67   C     C_R   0.248606 0.439841 0.582530 0.014770
C68   C     C_R   0.741652 0.403390 0.427540 0.015595
C69   C     C_R   0.797514 0.014982 0.546683 0.031024
C70   C     C_R   0.186867 0.957090 0.464915 0.026456
C71   C     C_R   0.297514 0.514983 0.546683 0.031024
C72   C     C_R   0.686867 0.457090 0.464915 0.026456
C73   C     C_R   0.789932 0.041066 0.475564 0.025405
C74   C     C_R   0.187430 0.964417 0.537472 0.026940
C75   C     C_R   0.289932 0.541066 0.475564 0.025405
C76   C     C_R   0.687430 0.464417 0.537472 0.026940
C77   C     C_R   0.680127 0.928868 0.474244 -0.164894
C78   C     C_R   0.294479 0.848034 0.540795 -0.167043
C79   C     C_R   0.180127 0.428868 0.474244 -0.164894
C80   C     C_R   0.794479 0.348034 0.540795 -0.167043
C81   C     C_R   0.686407 0.906085 0.547316 -0.168307
C82   C     C_R   0.294010 0.842485 0.466250 -0.165543
C83   C     C_R   0.186407 0.406085 0.547316 -0.168307
C84   C     C_R   0.794010 0.342486 0.466250 -0.165543
C85   C     C_3   0.875683 0.001468 0.539280 -0.267591
C86   C     C_3   0.155247 0.080148 0.455201 -0.282084
C87   C     C_3   0.375683 0.501468 0.539280 -0.267591
C88   C     C_3   0.655247 0.580148 0.455201 -0.282084
C89   C     C_R   0.742004 0.967055 0.147992 0.555003
C90   C     C_R   0.257975 0.969816 0.852453 0.539967
C91   C     C_R   0.242004 0.467055 0.147992 0.555003
C92   C     C_R   0.757975 0.469816 0.852453 0.539967
C93   C     C_3   0.867112 0.028041 0.461092 -0.268082
C94   C     C_3   0.156139 0.089986 0.535345 -0.266278
C95   C     C_3   0.367112 0.528041 0.461092 -0.268082
C96   C     C_3   0.656139 0.589986 0.535345 -0.266278
C97   C     C_R   0.733418 0.992970 0.437306 0.011340
C98   C     C_R   0.244104 0.918915 0.576408 0.018467
C99   C     C_R   0.233418 0.492971 0.437306 0.011340
C100  C     C_R   0.744104 0.418915 0.576408 0.018467
C101  C     C_R   0.729015 0.376539 0.353314 0.533383
C102  C     C_R   0.269988 0.381110 0.648382 0.552488
C103  C     C_R   0.229015 0.876539 0.353314 0.533383
C104  C     C_R   0.769988 0.881110 0.648382 0.552488
C105  C     C_R   0.563048 0.153526 0.360918 0.546482
C106  C     C_R   0.468994 0.157222 0.647113 0.544905
C107  C     C_R   0.063048 0.653526 0.360918 0.546482
C108  C     C_R   0.968994 0.657222 0.647113 0.544905
C109  C     C_R   0.728423 0.019627 0.361758 0.548023
C110  C     C_R   0.257939 0.970578 0.646014 0.545278
C111  C     C_R   0.228423 0.519627 0.361758 0.548023
C112  C     C_R   0.757939 0.470578 0.646014 0.545278
C113  C     C_R   0.496812 0.162003 0.925615 -0.001311
C114  C     C_R   0.502470 0.168986 0.074740 -0.002972
C115  C     C_R   0.996812 0.662003 0.925615 -0.001311
C116  C     C_R   0.002470 0.668986 0.074740 -0.002972
C117  C     C_R   0.511867 0.274621 0.959657 0.011455
C118  C     C_R   0.508667 0.280516 0.035051 0.029014
C119  C     C_R   0.011867 0.774621 0.959657 0.011455
C120  C     C_R   0.008667 0.780516 0.035051 0.029014
C121  C     C_R   0.488718 0.059491 0.039250 -0.169088
C122  C     C_R   0.488650 0.055346 0.966401 -0.155160
C123  C     C_R   0.988718 0.559491 0.039250 -0.169088
C124  C     C_R   0.988649 0.555346 0.966401 -0.155160
Cr1   Cr    Cr6+3 0.772010 0.169670 0.250090 1.000259
Cr2   Cr    Cr6+3 0.227990 0.169670 0.749910 0.999433
Cr3   Cr    Cr6+3 0.272010 0.669670 0.250090 1.000259
Cr4   Cr    Cr6+3 0.727990 0.669670 0.749910 0.999433
Cr5   Cr    Cr6+3 0.615000 0.323260 0.249260 1.000506
Cr6   Cr    Cr6+3 0.385000 0.323260 0.750740 0.997698
Cr7   Cr    Cr6+3 0.115000 0.823260 0.249260 1.000506
Cr8   Cr    Cr6+3 0.885000 0.823260 0.750740 0.997698
Cr9   Cr    Cr6+3 0.616710 0.010760 0.250840 1.003121
Cr10  Cr    Cr6+3 0.383290 0.010760 0.749160 1.001064
Cr11  Cr    Cr6+3 0.116710 0.510760 0.250840 1.003121
Cr12  Cr    Cr6+3 0.883290 0.510760 0.749160 1.001064
H1    H     H_    0.483142 0.973732 0.067802 0.129991
H2    H     H_    0.480186 0.966877 0.942066 0.136602
H3    H     H_    0.983142 0.473732 0.067802 0.129991
H4    H     H_    0.980186 0.466877 0.942066 0.136602
H5    H     H_    0.554538 0.358509 0.446856 0.141490
H6    H     H_    0.520341 0.360511 0.573613 0.122946
H7    H     H_    0.054538 0.858509 0.446856 0.141490
H8    H     H_    0.020341 0.860511 0.573613 0.122946
H9    H     H_    0.487987 0.862927 0.563781 0.129902
H10   H     H_    0.442612 0.972675 0.423132 0.157014
H11   H     H_    0.987987 0.362927 0.563781 0.129902
H12   H     H_    0.942612 0.472675 0.423132 0.157014
H13   H     H_    0.646026 0.852572 0.574168 0.125113
H14   H     H_    0.334921 0.793190 0.438885 0.131764
H15   H     H_    0.146026 0.352572 0.574168 0.125113
H16   H     H_    0.834921 0.293190 0.438885 0.131764
H17   H     H_    0.893677 0.906522 0.549416 0.159593
H18   H     H_    0.101198 0.074887 0.432902 0.134775
H19   H     H_    0.393677 0.406522 0.549416 0.159593
H20   H     H_    0.601198 0.574887 0.432902 0.134775
H21   H     H_    0.905204 0.074474 0.568111 0.128336
H22   H     H_    0.191511 0.146242 0.428282 0.147468
H23   H     H_    0.405204 0.574474 0.568111 0.128336
H24   H     H_    0.691511 0.646242 0.428282 0.147468
H25   H     H_    0.893374 0.114687 0.444451 0.124957
H26   H     H_    0.193815 0.160793 0.554324 0.168396
H27   H     H_    0.393374 0.614687 0.444451 0.124957
H28   H     H_    0.693815 0.660793 0.554324 0.168396
H29   H     H_    0.879250 0.947784 0.426852 0.159511
H30   H     H_    0.102677 0.092583 0.559563 0.127435
H31   H     H_    0.379250 0.447784 0.426852 0.159511
H32   H     H_    0.602677 0.592583 0.559563 0.127435
H33   H     H_    0.538359 0.378978 0.863880 0.134068
H34   H     H_    0.499423 0.410721 0.123281 0.134889
H35   H     H_    0.038359 0.878978 0.863880 0.134068
H36   H     H_    0.999423 0.910721 0.123281 0.134889
H37   H     H_    0.886869 0.893275 0.957662 0.153428
H38   H     H_    0.180509 0.066614 0.073420 0.139510
H39   H     H_    0.386869 0.393275 0.957662 0.153428
H40   H     H_    0.680509 0.566614 0.073420 0.139510
H41   H     H_    0.642772 0.942054 0.916731 0.156116
H42   H     H_    0.388973 0.826523 0.054538 0.123861
H43   H     H_    0.142772 0.442054 0.916731 0.156116
H44   H     H_    0.888973 0.326523 0.054538 0.123861
H45   H     H_    0.626044 0.989118 0.039830 0.165691
H46   H     H_    0.387752 0.842467 0.926408 0.152774
H47   H     H_    0.126044 0.489118 0.039830 0.165691
H48   H     H_    0.887752 0.342467 0.926408 0.152774
H49   H     H_    0.590374 0.829965 0.055558 0.129229
H50   H     H_    0.347046 0.686034 0.920591 0.152429
H51   H     H_    0.090374 0.329965 0.055558 0.129229
H52   H     H_    0.847046 0.186034 0.920591 0.152429
O1    O     O_R   0.787520 0.042810 0.170440 -0.524262
O2    O     O_R   0.212480 0.042810 0.829560 -0.539139
O3    O     O_R   0.287520 0.542810 0.170440 -0.524262
O4    O     O_R   0.712480 0.542810 0.829560 -0.539139
O5    O     O_R   0.556610 0.252880 0.323980 -0.504103
O6    O     O_R   0.443390 0.252880 0.676020 -0.509887
O7    O     O_R   0.056610 0.752880 0.323980 -0.504103
O8    O     O_R   0.943390 0.752880 0.676020 -0.509887
O9    O     O_R   0.545950 0.051210 0.330860 -0.522204
O10   O     O_R   0.454050 0.051210 0.669140 -0.518396
O11   O     O_R   0.045950 0.551210 0.330860 -0.522204
O12   O     O_R   0.954050 0.551210 0.669140 -0.518396
O13   O     O_R   0.681390 0.959480 0.325510 -0.518196
O14   O     O_R   0.318610 0.959480 0.674490 -0.506796
O15   O     O_R   0.181390 0.459480 0.325510 -0.518196
O16   O     O_R   0.818610 0.459480 0.674490 -0.506796
O17   O     O_3   0.667900 0.167900 0.250060 -0.277833
O18   O     O_3   0.332100 0.167900 0.749940 -0.260064
O19   O     O_3   0.167900 0.667900 0.250060 -0.277833
O20   O     O_3   0.832100 0.667900 0.749940 -0.260064
O21   O     O_R   0.765640 0.292100 0.175020 -0.496928
O22   O     O_R   0.234360 0.292100 0.824980 -0.500394
O23   O     O_R   0.265640 0.792100 0.175020 -0.496928
O24   O     O_R   0.734360 0.792100 0.824980 -0.500394
O25   O     O_R   0.670190 0.408840 0.168540 -0.518555
O26   O     O_R   0.329810 0.408840 0.831460 -0.520984
O27   O     O_R   0.170190 0.908840 0.168540 -0.518555
O28   O     O_R   0.829810 0.908840 0.831460 -0.520984
O29   O     O_R   0.556620 0.251410 0.175160 -0.502990
O30   O     O_R   0.443380 0.251410 0.824840 -0.526327
O31   O     O_R   0.056620 0.751410 0.175160 -0.502990
O32   O     O_R   0.943380 0.751410 0.824840 -0.526327
O33   O     O_R   0.545960 0.049620 0.170320 -0.521503
O34   O     O_R   0.454040 0.049620 0.829680 -0.524747
O35   O     O_R   0.045960 0.549620 0.170320 -0.521503
O36   O     O_R   0.954040 0.549620 0.829680 -0.524747
O37   O     O_R   0.681390 0.958010 0.176690 -0.493225
O38   O     O_R   0.318610 0.958010 0.823310 -0.500823
O39   O     O_R   0.181390 0.458010 0.176690 -0.493225
O40   O     O_R   0.818610 0.458010 0.823310 -0.500823
O41   O     O_R   0.787510 0.044390 0.330970 -0.514600
O42   O     O_R   0.212490 0.044390 0.669030 -0.522256
O43   O     O_R   0.287510 0.544390 0.330970 -0.514600
O44   O     O_R   0.712490 0.544390 0.669030 -0.522256
O45   O     O_R   0.765630 0.293570 0.323840 -0.522762
O46   O     O_R   0.234370 0.293570 0.676160 -0.506646
O47   O     O_R   0.265630 0.793570 0.323840 -0.522763
O48   O     O_R   0.734370 0.793570 0.676160 -0.506646
O49   O     O_R   0.670190 0.410420 0.329080 -0.523954
O50   O     O_R   0.329810 0.410420 0.670920 -0.516976
O51   O     O_R   0.170190 0.910420 0.329080 -0.523954
O52   O     O_R   0.829810 0.910420 0.670920 -0.516976
H53   H     H_    0.914376 0.472329 0.545867 0.162641
H54   H     H_    0.015949 0.363226 0.440154 0.126475
H55   H     H_    0.414376 0.972329 0.545867 0.162641
H56   H     H_    0.515949 0.863226 0.440154 0.126475
H57   H     H_    0.635890 0.890396 0.445912 0.137205
H58   H     H_    0.337208 0.806188 0.569640 0.126557
H59   H     H_    0.135890 0.390396 0.445912 0.137205
H60   H     H_    0.837208 0.306188 0.569640 0.126557
H61   H     H_    0.044175 0.076928 0.923469 0.104922
H62   H     H_    0.024185 0.092142 0.053043 0.101226
H63   H     H_    0.544175 0.576928 0.923469 0.104922
H64   H     H_    0.524185 0.592142 0.053043 0.101226
H65   H     H_    0.869101 0.941149 0.083338 0.131078
H66   H     H_    0.178090 0.086413 0.946795 0.147097
H67   H     H_    0.369101 0.441149 0.083338 0.131078
H68   H     H_    0.678090 0.586413 0.946795 0.147097
H69   H     H_    0.108119 0.282839 0.932562 0.123864
H70   H     H_    0.850415 0.168601 0.047336 0.157563
H71   H     H_    0.608119 0.782839 0.932562 0.123864
H72   H     H_    0.350415 0.668601 0.047336 0.157563

loop_
_geom_bond_atom_site_label_1
_geom_bond_atom_site_label_2
_ccdc_geom_bond_type
C10   H62   S    
Cr4   O48   S    
C25   C41   A    
C79   C83   A    
C55   C56   A    
C88   C96   S    
C29   H37   S    
C67   C83   A    
C98   C110  S    
C116  C123  A    
C7    H35   S    
C78   C82   A    
C111  O43   A    
C5    C117  A    
C14   C18   A    
C85   C93   S    
C36   H44   S    
C101  O49   A    
C73   C93   S    
C72   C76   A    
Cr7   O19   S    
C94   H30   S    
C107  O7    A    
C96   H28   S    
C57   C58   A    
C75   C95   S    
C123  C124  A    
C74   C98   A    
C31   H39   S    
C53   C54   A    
C65   C69   A    
C105  O5    A    
C32   H40   S    
C26   C42   A    
C50   C54   A    
C17   C33   S    
C4    O28   A    
Cr10  O38   S    
C13   C29   A    
Cr2   O42   S    
C63   H53   S    
Cr9   O37   S    
C5    C11   A    
Cr1   O41   S    
C90   O2    A    
C81   H13   S    
Cr10  O18   S    
C64   H54   S    
Cr9   O17   S    
C22   C38   S    
C123  H3    S    
C97   C109  S    
Cr7   O31   S    
C51   C55   A    
C121  H1    S    
C4    C13   S    
Cr2   O2    S    
Cr3   O19   S    
C61   H9    S    
C110  O42   A    
C24   C40   S    
C15   C19   A    
C114  C121  A    
C109  O41   A    
C45   C114  S    
C37   H49   S    
C113  C122  A    
C20   C24   A    
C52   C107  S    
Cr7   O51   S    
C51   C108  S    
Cr10  O34   S    
C55   C63   S    
C61   H55   S    
C70   C74   A    
C50   C105  S    
Cr9   O33   S    
C112  O44   A    
C96   H32   S    
C69   C73   A    
Cr8   O28   S    
C36   H70   S    
C108  O8    A    
C86   C94   S    
C9    C10   A    
C94   H26   S    
Cr3   O43   S    
C77   H57   S    
C44   C92   S    
C68   C72   A    
C106  O10   A    
C39   H51   S    
C105  O9    A    
Cr12  O40   S    
C59   H7    S    
C59   C60   A    
Cr4   O44   S    
C18   C22   A    
C64   H12   S    
C25   C29   A    
Cr6   O30   S    
C85   H21   S    
C14   C30   A    
C73   C97   A    
Cr5   O25   S    
C6    C12   A    
C63   H11   S    
C72   C88   S    
C124  H4    S    
C80   H60   S    
Cr10  O14   S    
C1    O25   A    
C83   H15   S    
C67   C102  S    
C35   H43   S    
C47   C116  S    
C102  O50   A    
C2    O22   A    
C1    O21   A    
C80   C84   A    
C68   C84   A    
C7    C119  A    
C36   C40   S    
Cr2   O22   S    
C68   C101  S    
C122  H2    S    
Cr1   O1    S    
C106  O6    A    
Cr5   O29   S    
C111  O15   A    
Cr12  O20   S    
C95   H31   S    
Cr1   O21   S    
C19   C23   A    
Cr11  O15   S    
C48   O36   A    
C3    O23   A    
C38   H50   S    
C47   O31   A    
C15   C31   A    
C28   C44   A    
C43   C91   S    
C49   C58   A    
C116  C120  A    
C48   O32   A    
C87   C95   S    
Cr4   O4    S    
C79   H59   S    
C108  O12   A    
C35   C39   S    
Cr7   O27   S    
C78   C98   A    
Cr6   O18   S    
C52   C59   A    
C95   H27   S    
C76   C96   S    
C66   C82   A    
Cr5   O17   S    
C58   H6    S    
C65   C81   A    
C49   C53   A    
Cr12  O36   S    
C28   C32   A    
C16   C20   A    
C99   C111  S    
C7    C9    A    
C33   H71   S    
C103  O51   A    
C75   C99   A    
C27   H67   S    
C34   H72   S    
C1    C16   S    
C85   H17   S    
C62   H56   S    
C2    C15   S    
C18   C34   S    
C25   H65   S    
C121  C122  A    
C82   H14   S    
C3    C14   S    
Cr11  O39   S    
Cr8   O32   S    
C71   C87   S    
C84   H16   S    
Cr3   O23   S    
C71   C75   A    
C93   H25   S    
C102  O46   A    
C115  C119  A    
C35   H69   S    
C48   C115  S    
C27   C31   A    
C101  O45   A    
C24   C44   A    
C21   C41   A    
C8    H36   S    
C34   H42   S    
C76   C100  A    
C112  O16   A    
C53   C61   S    
C70   C86   S    
C33   H41   S    
C88   H20   S    
Cr12  O16   S    
Cr11  O11   S    
C26   H66   S    
C69   C85   S    
C8    C120  A    
Cr8   O20   S    
Cr11  O19   S    
C6    H34   S    
C113  C117  A    
C79   C99   A    
C104  O52   A    
C27   C43   A    
C47   O35   A    
C12   H64   S    
C114  C118  A    
Cr9   O9    S    
C115  C124  A    
Cr10  O10   S    
C46   C113  S    
C91   O39   A    
C41   C89   S    
C34   C38   S    
C50   C57   A    
C66   C103  S    
C90   O38   A    
Cr7   O7    S    
C28   H68   S    
C89   O37   A    
Cr6   O6    S    
C46   O34   A    
Cr5   O5    S    
C119  C120  A    
C86   H22   S    
C100  C112  S    
C49   C106  S    
C40   H52   S    
C87   H19   S    
C57   H5    S    
C16   C32   A    
Cr11  O35   S    
Cr3   O47   S    
C38   H46   S    
C13   C17   A    
C9    H61   S    
C110  O14   A    
C45   O33   A    
C51   C60   A    
C109  O13   A    
C37   H45   S    
C86   H18   S    
C19   C35   S    
C117  C118  A    
C60   H8    S    
C107  O11   A    
C56   C64   S    
C66   C70   A    
C91   O3    A    
Cr2   O18   S    
C23   C39   S    
C4    O24   A    
Cr1   O17   S    
C78   H58   S    
C87   H23   S    
Cr6   O26   S    
Cr6   O50   S    
C67   C71   A    
C88   H24   S    
Cr8   O52   S    
C61   C62   S    
Cr2   O46   S    
C33   C37   S    
Cr4   O24   S    
Cr12  O12   S    
Cr5   O49   S    
Cr1   O45   S    
C11   H63   S    
C39   H47   S    
C93   H29   S    
C63   C64   S    
C20   C36   S    
C52   C56   A    
C104  O48   A    
C21   C37   S    
C89   O1    A    
C92   O40   A    
C2    O26   A    
C8    C10   A    
C77   C81   A    
C62   H10   S    
C22   C42   A    
C74   C94   S    
Cr8   O8    S    
C5    H33   S    
C54   C62   S    
Cr3   O3    S    
C103  O47   A    
C77   C97   A    
Cr4   O20   S    
C65   C104  S    
C42   C90   S    
Cr9   O13   S    
C23   C43   A    
C3    O27   A    
C46   O30   A    
C30   H38   S    
C80   C100  A    
C45   O29   A    
C92   O4    A    
C11   C12   A    
C6    C118  A    
C40   H48   S    
C26   C30   A    
C17   C21   A    
