data_mof_unit_6142.cif
_audit_creation_date              2012-12-10T16:49:27-0500
_audit_creation_method            fapswitch 2.2
_symmetry_space_group_name_H-M    P1
_symmetry_Int_Tables_number       1
_space_group_crystal_system       triclinic
_cell_length_a                    7.750141
_cell_length_b                    8.620923
_cell_length_c                    12.743053
_cell_angle_alpha                 90.201201
_cell_angle_beta                  86.594245
_cell_angle_gamma                 93.119584
_cell_volume                      848.643121657

loop_
_atom_site_label
_atom_site_type_symbol
_atom_type_description
_atom_site_fract_x
_atom_site_fract_y
_atom_site_fract_z
_atom_type_partial_charge
C1    C     C_R   0.455657 0.205665 0.497851 0.953756
C2    C     C_R   0.617494 0.342506 0.144535 0.275692
C3    C     C_R   0.489276 0.398588 0.871896 0.384705
C4    C     C_R   0.510577 0.601312 0.128099 0.384630
C5    C     C_R   0.524930 0.427842 0.976834 -0.197334
C6    C     C_R   0.474919 0.572047 0.023166 -0.197345
C7    C     C_2   0.440198 0.044944 0.480853 0.140713
C8    C     C_2   0.559794 0.955055 0.519156 0.140788
C9    C     C_R   0.544341 0.794335 0.502152 0.953757
C10   C     C_R   0.464115 0.506389 0.699631 1.008223
C11   C     C_R   0.535885 0.493607 0.300366 1.008212
C12   C     C_R   0.561718 0.480611 0.188914 -0.309245
C13   C     C_R   0.438266 0.519370 0.811078 -0.309455
C14   C     C_R   0.389075 0.679801 0.963197 0.457237
C15   C     C_R   0.610823 0.320132 0.036791 0.457198
C16   C     C_R   0.382558 0.657532 0.855452 0.275725
Cl1   Cl    Cl    0.519143 0.789964 0.184618 -0.390129
Cl2   Cl    Cl    0.480644 0.209931 0.815355 -0.389998
Cl3   Cl    Cl    0.693994 0.196023 0.224350 -0.409706
Cl4   Cl    Cl    0.306483 0.804301 0.775637 -0.409531
Cl5   Cl    Cl    0.271123 0.833512 0.018815 -0.310497
Cl6   Cl    Cl    0.728636 0.166335 0.981145 -0.310429
Cl7   Cl    Cl    0.283623 0.984614 0.389956 -0.424004
Cl8   Cl    Cl    0.716361 0.015384 0.610059 -0.423955
H1    H     H_    0.999178 0.615605 0.421873 0.232066
H2    H     H_    0.000822 0.384395 0.578126 0.232050
N1    N     N_2   0.054030 0.541640 0.471970 -0.138588
N2    N     N_2   0.945970 0.458360 0.528030 -0.138595
O1    O     O_R   0.609680 0.261530 0.506880 -0.577240
O2    O     O_R   0.390320 0.738470 0.493120 -0.577240
O3    O     O_R   0.323330 0.288220 0.488910 -0.601445
O4    O     O_R   0.676670 0.711780 0.511090 -0.601456
O5    O     O_R   0.619510 0.488830 0.661140 -0.586535
O6    O     O_R   0.380490 0.511170 0.338860 -0.586527
O7    O     O_R   0.333160 0.515520 0.643180 -0.604987
O8    O     O_R   0.666840 0.484480 0.356820 -0.604900
Zn1   Zn    Zn3+2 0.691200 0.482180 0.511990 1.097200
Zn2   Zn    Zn3+2 0.308800 0.517820 0.488010 1.097187

loop_
_geom_bond_atom_site_label_1
_geom_bond_atom_site_label_2
_ccdc_geom_bond_type
C11   C12   S    
C10   O7    A    
C4    C12   A    
H2    N2    S    
C3    C13   A    
O3    Zn2   S    
C16   Cl4   S    
C2    C12   A    
C1    O1    A    
C7    C8    D    
C1    C7    S    
O4    Zn1   S    
C2    C15   A    
N2    Zn1   S    
C7    Cl7   S    
C4    Cl1   S    
C9    O2    A    
C14   Cl5   S    
C11   O8    A    
C8    Cl8   S    
C10   O5    A    
C11   O6    A    
C5    C6    A    
C14   C16   A    
C5    C15   A    
C6    C14   A    
N1    Zn2   S    
C1    O3    A    
O7    Zn2   S    
O2    Zn2   S    
C3    Cl2   S    
C4    C6    A    
C13   C16   A    
O1    Zn1   S    
N1    N2    D    
O8    Zn1   S    
C9    O4    A    
C2    Cl3   S    
O6    Zn2   S    
C10   C13   S    
C15   Cl6   S    
O5    Zn1   S    
C8    C9    S    
C3    C5    A    
H1    N1    S    
