data_mof_unit_6837.cif
_audit_creation_date              2013-03-05T16:00:49-0500
_audit_creation_method            fapswitch 2.2
_symmetry_space_group_name_H-M    P1
_symmetry_Int_Tables_number       1
_space_group_crystal_system       triclinic
_cell_length_a                    20.680229
_cell_length_b                    21.50593
_cell_length_c                    14.171199
_cell_angle_alpha                 89.752989
_cell_angle_beta                  89.370041
_cell_angle_gamma                 89.892012
_cell_volume                      6302.15598547

loop_
_atom_site_label
_atom_site_type_symbol
_atom_site_description
_atom_site_fract_x
_atom_site_fract_y
_atom_site_fract_z
_atom_type_partial_charge
O1    O     O_R   0.066090 0.433930 0.580280 -0.641940
O2    O     O_R   0.933910 0.566070 0.419720 -0.553403
O3    O     O_R   0.933910 0.566070 0.580280 -0.656189
O4    O     O_R   0.066090 0.433930 0.419720 -0.601465
O5    O     O_R   0.933910 0.433930 0.419720 -0.601515
O6    O     O_R   0.066090 0.566070 0.580280 -0.644076
O7    O     O_R   0.066090 0.566070 0.419720 -0.560754
O8    O     O_R   0.933910 0.433930 0.580280 -0.629407
O9    O     O_R   0.566090 0.933930 0.580280 -0.648279
O10   O     O_R   0.433910 0.066070 0.419720 -0.596962
O11   O     O_R   0.433910 0.066070 0.580280 -0.635402
O12   O     O_R   0.566090 0.933930 0.419720 -0.630541
O13   O     O_R   0.433910 0.933930 0.419720 -0.591319
O14   O     O_R   0.566090 0.066070 0.580280 -0.628186
O15   O     O_R   0.566090 0.066070 0.419720 -0.619756
O16   O     O_R   0.433910 0.933930 0.580280 -0.641920
C1    C     C_R   0.087670 0.414671 0.500105 0.835721
C2    C     C_R   0.914749 0.587547 0.500004 0.954006
C3    C     C_R   0.912699 0.414349 0.500606 0.839297
C4    C     C_R   0.089007 0.583847 0.499522 0.883680
C5    C     C_R   0.584807 0.911724 0.499943 0.847299
C6    C     C_R   0.412063 0.085280 0.500495 0.841608
C7    C     C_R   0.412008 0.915199 0.500248 0.828213
C8    C     C_R   0.586486 0.086308 0.499675 0.856112
Zn1   Zn    Zn3+2 1.000000 0.500000 0.607200 0.926782
Zn2   Zn    Zn3+2 1.000000 0.500000 0.392800 1.023772
Zn3   Zn    Zn3+2 0.500000 0.000000 0.607200 0.928105
Zn4   Zn    Zn3+2 0.500000 1.000000 0.392800 0.961372
C9    C     C_R   0.123309 0.686393 0.538085 -0.170472
C10   C     C_R   0.879708 0.309828 0.535015 -0.215177
C11   C     C_R   0.808755 0.622095 0.545756 -0.277557
C12   C     C_R   0.117160 0.308035 0.475083 -0.204376
C13   C     C_R   0.614015 0.194661 0.493763 -0.203324
C14   C     C_R   0.380312 0.812145 0.459576 -0.218253
C15   C     C_R   0.374757 0.185356 0.552331 -0.215246
C16   C     C_R   0.677114 0.861278 0.430681 -0.210615
C17   C     C_R   0.139215 0.629559 0.498953 -0.113491
C18   C     C_R   0.862562 0.368509 0.503530 -0.119557
C19   C     C_R   0.866303 0.634900 0.498428 -0.132961
C20   C     C_R   0.135851 0.366941 0.502977 -0.137344
C21   C     C_R   0.634881 0.133559 0.500561 -0.127670
C22   C     C_R   0.362975 0.868620 0.498997 -0.126304
C23   C     C_R   0.361199 0.130833 0.504285 -0.158297
C24   C     C_R   0.628082 0.859095 0.497956 -0.180410
C25   C     C_R   0.199544 0.618913 0.455091 -0.112359
C26   C     C_R   0.798690 0.383661 0.480168 -0.097147
C27   C     C_R   0.874039 0.688468 0.442174 -0.006531
C28   C     C_R   0.195773 0.377890 0.545788 -0.055667
C29   C     C_R   0.699578 0.118216 0.517502 -0.081393
C30   C     C_R   0.300201 0.880347 0.532711 -0.073233
C31   C     C_R   0.298960 0.118122 0.470350 -0.066583
C32   C     C_R   0.619492 0.806947 0.557470 -0.057383
C33   C     C_R   0.248085 0.664701 0.463783 -0.005995
C34   C     C_R   0.749646 0.339030 0.497980 0.007878
C35   C     C_R   0.818736 0.724399 0.423051 0.004464
C36   C     C_R   0.236265 0.326641 0.565047 -0.006111
C37   C     C_R   0.743062 0.166862 0.537341 -0.001340
C38   C     C_R   0.252762 0.834362 0.519252 0.070853
C39   C     C_R   0.248967 0.161311 0.489594 0.098239
C40   C     C_R   0.660076 0.754383 0.543958 0.069672
C41   C     C_R   0.228791 0.724906 0.494216 0.025195
C42   C     C_R   0.768929 0.276993 0.519510 0.008658
C43   C     C_R   0.762895 0.715707 0.480850 -0.002621
C44   C     C_R   0.220216 0.268242 0.526171 -0.010274
C45   C     C_R   0.723384 0.229078 0.518937 -0.002685
C46   C     C_R   0.272950 0.773927 0.491650 0.003676
C47   C     C_R   0.265603 0.220117 0.526761 -0.013083
C48   C     C_R   0.714007 0.760542 0.481276 -0.020267
C49   C     C_R   0.165180 0.736098 0.528270 0.088173
C50   C     C_R   0.834308 0.262420 0.538447 0.074907
C51   C     C_R   0.757466 0.663581 0.541117 0.162462
C52   C     C_R   0.159011 0.258100 0.485690 0.143929
C53   C     C_R   0.658066 0.243163 0.499964 0.114977
C54   C     C_R   0.337012 0.763002 0.460201 0.055155
C55   C     C_R   0.328203 0.231564 0.561502 0.075806
C56   C     C_R   0.720724 0.813012 0.421776 0.145592
C57   C     C_R   0.314343 0.652953 0.441840 -0.024057
C58   C     C_R   0.682553 0.353970 0.496163 -0.033377
C59   C     C_R   0.817693 0.769663 0.349880 -0.087090
C60   C     C_R   0.291803 0.331118 0.622361 -0.014174
C61   C     C_R   0.804700 0.155890 0.576793 -0.029986
C62   C     C_R   0.185966 0.846600 0.531904 0.001244
C63   C     C_R   0.182840 0.148161 0.473525 -0.044050
C64   C     C_R   0.649834 0.696295 0.590855 -0.038941
C65   C     C_R   0.852936 0.201435 0.564067 0.102584
C66   C     C_R   0.143414 0.797156 0.545931 -0.013181
C67   C     C_R   0.139148 0.197630 0.462937 -0.008992
C68   C     C_R   0.700253 0.652266 0.592598 0.003675
C69   C     C_R   0.357450 0.702961 0.433666 0.068477
C70   C     C_R   0.636983 0.305227 0.492804 0.045288
C71   C     C_R   0.770073 0.816166 0.352822 0.017750
C72   C     C_R   0.342245 0.287857 0.607985 0.105562
H1    H     H_    0.075483 0.692449 0.568729 0.159695
H2    H     H_    0.929488 0.301576 0.554900 0.159514
H3    H     H_    0.804812 0.579650 0.587027 0.163834
H4    H     H_    0.069270 0.301565 0.446210 0.169510
H5    H     H_    0.563038 0.203693 0.482498 0.160810
H6    H     H_    0.429458 0.806419 0.433729 0.137952
H7    H     H_    0.422601 0.191331 0.581427 0.163834
H8    H     H_    0.682872 0.902829 0.388036 0.179149
C73   C     C_R   0.942939 0.508362 0.800628 0.151737
C74   C     C_R   0.056847 0.492304 0.201251 0.163930
C75   C     C_R   0.056837 0.491376 0.799254 0.157842
C76   C     C_R   0.942711 0.506538 0.203402 0.179409
C77   C     C_R   0.443138 0.009329 0.800625 0.141007
C78   C     C_R   0.557001 0.992855 0.199537 0.141945
C79   C     C_R   0.556913 0.991624 0.798887 0.165645
C80   C     C_R   0.442799 0.006748 0.203126 0.169500
N1    N     N_R   0.000000 0.500000 0.750030 -0.127901
N2    N     N_R   1.000000 0.500000 0.249970 -0.092102
N3    N     N_R   0.500000 0.000000 0.750030 -0.132947
N4    N     N_R   0.500000 0.000000 0.249970 -0.113348
C81   C     C_R   0.057605 0.491678 0.899456 0.025121
C82   C     C_R   0.941351 0.506953 0.102788 -0.021188
C83   C     C_R   0.941815 0.507383 0.901048 0.028126
C84   C     C_R   0.057935 0.491573 0.100790 -0.023239
C85   C     C_R   0.557804 0.993177 0.898956 0.037959
C86   C     C_R   0.441388 0.007819 0.102398 -0.022468
C87   C     C_R   0.441924 0.008541 0.900800 0.033547
C88   C     C_R   0.557810 0.993884 0.099748 0.036198
C89   C     C_R   0.999665 0.499458 0.950590 0.028875
C90   C     C_R   0.999637 0.499373 0.051473 0.071711
C91   C     C_R   0.499779 0.001078 0.950115 0.026380
C92   C     C_R   0.499641 0.001225 0.050841 0.048360
C93   C     C_R   0.115429 0.483536 0.949787 -0.147160
C94   C     C_R   0.883618 0.514588 0.052129 -0.189628
C95   C     C_R   0.883887 0.514954 0.953241 -0.150692
C96   C     C_R   0.115614 0.483484 0.048450 -0.196804
C97   C     C_R   0.615704 0.985982 0.949190 -0.172811
C98   C     C_R   0.383580 0.015096 0.051798 -0.203885
C99   C     C_R   0.383906 0.015757 0.952928 -0.135799
C100  C     C_R   0.615726 0.986449 0.047730 -0.179094
H9    H     H_    0.161220 0.477152 0.913296 0.176709
H10   H     H_    0.837672 0.520562 0.088205 0.157334
H11   H     H_    0.838119 0.521170 0.918018 0.171158
H12   H     H_    0.161543 0.476954 0.082935 0.161292
H13   H     H_    0.661562 0.979883 0.912781 0.176775
H14   H     H_    0.337537 0.020417 0.087834 0.161874
H15   H     H_    0.338100 0.021607 0.917678 0.184160
H16   H     H_    0.661623 0.980679 0.082773 0.177362
C101  C     C_2   0.207806 0.564087 0.392443 0.393679
H17   H     H_    0.183527 0.520727 0.408508 0.066283
O17   O     O_2   0.239241 0.568026 0.319197 -0.543100
C102  C     C_2   0.786263 0.443522 0.430209 0.383335
H18   H     H_    0.811988 0.485345 0.449926 0.051832
O18   O     O_2   0.749420 0.445810 0.363524 -0.529350
C103  C     C_2   0.939804 0.713476 0.418306 0.434946
H19   H     H_    0.945674 0.762562 0.402548 0.046612
O19   O     O_2   0.988079 0.680884 0.417423 -0.570773
C104  C     C_2   0.218504 0.443124 0.556819 0.303700
H20   H     H_    0.184385 0.480917 0.565490 0.037408
O20   O     O_2   0.275955 0.455658 0.551997 -0.585861
C105  C     C_2   0.721436 0.052765 0.501992 0.334167
H21   H     H_    0.688360 0.014247 0.512945 0.055881
O21   O     O_2   0.775943 0.041429 0.472740 -0.560112
C106  C     C_2   0.286893 0.937660 0.588215 0.492034
H22   H     H_    0.311209 0.980756 0.570744 0.023633
O22   O     O_2   0.250678 0.936447 0.656851 -0.546828
C107  C     C_2   0.288696 0.062920 0.409274 0.471647
H23   H     H_    0.316063 0.020605 0.420310 0.062885
O23   O     O_2   0.251694 0.065237 0.342766 -0.572405
C108  C     C_2   0.572486 0.810922 0.637308 0.471312
H24   H     H_    0.523551 0.827252 0.625378 0.095805
O24   O     O_2   0.588938 0.797904 0.717509 -0.582178
C109  C     C_2   0.340964 0.588590 0.442337 0.563506
H25   H     H_    0.319243 0.554019 0.488117 0.094834
O25   O     O_2   0.386352 0.573407 0.391574 -0.483355
C110  C     C_2   0.660300 0.419142 0.512007 0.482691
H26   H     H_    0.688429 0.449670 0.556409 0.031434
O26   O     O_2   0.611978 0.439953 0.474482 -0.537318
C111  C     C_2   0.860939 0.765478 0.265302 0.373025
H27   H     H_    0.875371 0.806998 0.226923 0.068935
O27   O     O_2   0.878910 0.715043 0.235494 -0.539292
C112  C     C_2   0.290297 0.371607 0.708045 0.484628
H28   H     H_    0.249807 0.402528 0.721252 0.065144
O28   O     O_2   0.331391 0.367731 0.768987 -0.557577
C113  C     C_2   0.813517 0.104129 0.646634 0.479354
H29   H     H_    0.774980 0.071214 0.660591 0.062512
O29   O     O_2   0.861656 0.100161 0.695403 -0.557547
C114  C     C_2   0.157966 0.908768 0.512554 0.531760
H30   H     H_    0.115591 0.924921 0.551140 0.106735
O30   O     O_2   0.180153 0.940899 0.448816 -0.563930
C115  C     C_2   0.156756 0.084521 0.485557 0.507353
H31   H     H_    0.117000 0.068296 0.442918 0.077603
O31   O     O_2   0.177828 0.050737 0.547478 -0.550646
C116  C     C_2   0.585826 0.677187 0.629827 0.478992
H32   H     H_    0.582510 0.650354 0.694662 0.076137
O32   O     O_2   0.536254 0.688812 0.587287 -0.602087
N5    N     N_3   0.920532 0.186083 0.574182 -0.405470
H33   H     H_    0.927216 0.138037 0.570245 0.236392
H34   H     H_    0.944470 0.201494 0.513130 0.167243
N6    N     N_3   0.077049 0.810325 0.569857 -0.484212
H35   H     H_    0.047323 0.792727 0.517128 0.203897
H36   H     H_    0.065700 0.788840 0.634219 0.202756
N7    N     N_3   0.073676 0.186577 0.434647 -0.480266
H37   H     H_    0.074625 0.163843 0.369585 0.200395
H38   H     H_    0.051335 0.157658 0.484624 0.179160
N8    N     N_3   0.693437 0.595053 0.644700 -0.481218
H39   H     H_    0.653938 0.570412 0.618760 0.205129
H40   H     H_    0.685212 0.605477 0.715807 0.187051
N9    N     N_3   0.422768 0.691447 0.402563 -0.367024
H41   H     H_    0.454485 0.704408 0.455733 0.238681
H42   H     H_    0.432144 0.717885 0.341875 0.199463
N10   N     N_3   0.568889 0.317778 0.485925 -0.464758
H43   H     H_    0.560200 0.341654 0.422933 0.258829
H44   H     H_    0.554029 0.344756 0.543416 0.215089
N11   N     N_3   0.770234 0.866067 0.284920 -0.467587
H45   H     H_    0.813949 0.890121 0.289671 0.196372
H46   H     H_    0.766113 0.847446 0.217237 0.193505
N12   N     N_3   0.407261 0.300833 0.638350 -0.407848
H47   H     H_    0.437917 0.295435 0.579788 0.169451
H48   H     H_    0.412355 0.348004 0.653529 0.245498
N13   N     N_3   0.883272 0.520081 0.753549 -0.476811
H49   H     H_    0.883123 0.565948 0.729291 0.215577
H50   H     H_    0.877032 0.488761 0.698699 0.230495
N14   N     N_3   0.115049 0.485492 0.253524 -0.399462
H51   H     H_    0.135472 0.442196 0.237845 0.182401
H52   H     H_    0.146835 0.520281 0.231062 0.219084
N15   N     N_3   0.116864 0.480788 0.750982 -0.480190
H53   H     H_    0.123534 0.513555 0.697772 0.227882
H54   H     H_    0.117802 0.435415 0.725456 0.205646
N16   N     N_3   0.884471 0.512248 0.258143 -0.386076
H55   H     H_    0.853414 0.476033 0.240022 0.199694
H56   H     H_    0.862479 0.554698 0.241785 0.211383
N17   N     N_3   0.383733 0.021466 0.753613 -0.440837
H57   H     H_    0.383890 0.067423 0.729840 0.221563
H58   H     H_    0.378862 0.990620 0.698251 0.240508
N18   N     N_3   0.616474 0.980269 0.246357 -0.464836
H59   H     H_    0.622496 0.010232 0.302877 0.240091
H60   H     H_    0.615788 0.933970 0.268273 0.212353
N19   N     N_3   0.616632 0.979418 0.750407 -0.470952
H61   H     H_    0.623459 0.010482 0.694857 0.224484
H62   H     H_    0.616813 0.933450 0.727356 0.238106
N20   N     N_3   0.384570 0.012154 0.257433 -0.393453
H63   H     H_    0.353720 0.975707 0.239542 0.193157
H64   H     H_    0.362632 0.054423 0.240008 0.201543

loop_
_geom_bond_atom_site_label_1
_geom_bond_atom_site_label_2
_geom_bond_distance
_ccdc_geom_bond_type
C25   C101  1.487452 S    
C111  H27   1.084171 S    
C94   C95   1.401300 A    
C83   C89   1.403519 A    
C17   C25   1.406559 A    
C79   N19   1.431014 S    
O2    C2    1.287905 A    
N9    H41   1.043564 S    
C62   C114  1.481693 S    
C64   C116  1.486633 S    
C103  H19   1.084807 S    
C14   C22   1.384039 A    
C115  H31   1.084733 S    
C23   C31   1.406669 A    
C101  O17   1.221397 D    
N18   H60   1.041812 S    
N10   H44   1.045321 S    
C47   C55   1.412530 A    
C45   C53   1.412241 A    
C91   C92   1.427397 A    
C12   C52   1.386662 A    
C78   N4    1.380469 A    
N13   H49   1.043192 S    
O10   C6    1.295028 A    
C111  O27   1.221492 D    
C10   C18   1.383604 A    
C109  H25   1.079863 S    
O7    Zn2   2.013941 S    
O14   C8    1.287603 A    
O12   Zn4   2.007978 S    
C13   C53   1.389876 A    
C54   C69   1.409246 A    
C29   C105  1.493992 S    
C106  H22   1.081769 S    
C75   C81   1.420289 A    
N14   H52   1.043256 S    
C53   C70   1.406956 A    
C28   C104  1.489817 S    
C115  O31   1.220452 D    
N12   H47   1.045514 S    
C82   C94   1.408880 A    
O6    Zn1   2.005911 S    
C81   C93   1.409338 A    
C65   N5    1.444270 S    
C46   C54   1.412688 A    
C29   C37   1.412030 A    
O13   C7    1.286498 A    
O3    C2    1.291979 A    
C20   C28   1.406416 A    
C59   C111  1.490484 S    
C75   N15   1.429134 S    
N5    H34   1.045080 S    
C27   C35   1.407207 A    
C112  H28   1.083466 S    
C16   C56   1.379074 A    
C39   C47   1.416526 A    
C33   C41   1.421521 A    
C41   C46   1.396172 A    
C38   C46   1.419610 A    
C6    C23   1.436801 S    
C73   N13   1.430623 S    
C113  O29   1.220789 D    
C35   C43   1.420611 A    
C93   C96   1.398219 A    
C87   C99   1.410729 A    
C107  O23   1.221330 D    
O13   Zn4   2.005914 S    
N8    H39   1.045523 S    
C77   N17   1.427054 S    
O14   Zn3   2.005911 S    
C105  O21   1.221247 D    
C15   C23   1.389040 A    
Zn2   N2    2.024074 S    
C9    C49   1.382532 A    
Zn1   N1    2.024072 S    
C97   C100  1.396517 A    
C78   C88   1.414119 A    
C24   C32   1.410622 A    
O16   Zn3   2.013944 S    
C110  O26   1.220516 D    
C77   N3    1.385264 A    
C83   C95   1.410497 A    
Zn3   N3    2.024072 S    
C109  O25   1.221126 D    
C70   N10   1.437618 S    
O1    Zn1   2.004593 S    
C8    C21   1.427819 S    
N9    H42   1.045489 S    
C42   C50   1.415615 A    
N5    H33   1.043871 S    
N20   H64   1.045040 S    
C15   H7    1.084157 S    
C76   N16   1.430811 S    
N18   H59   1.038841 S    
C10   C50   1.387646 A    
C114  O30   1.220881 D    
C108  O24   1.221170 D    
N13   H50   1.039997 S    
N8    H40   1.045286 S    
N17   H58   1.035478 S    
C80   N20   1.426780 S    
O8    C3    1.288501 A    
C63   C115  1.480532 S    
N11   H45   1.045392 S    
C30   C38   1.409360 A    
C44   C47   1.395941 A    
C80   C86   1.428146 A    
O3    Zn1   2.007978 S    
C99   H15   1.082644 S    
N14   H51   1.045450 S    
C102  O18   1.221165 D    
O10   Zn4   2.004593 S    
C30   C106  1.488611 S    
N15   H53   1.038119 S    
C9    H1    1.083658 S    
C26   C102  1.489783 S    
N7    H37   1.045452 S    
C34   C42   1.424531 A    
C62   C66   1.393710 A    
O12   C5    1.294070 A    
C25   C33   1.414219 A    
Zn4   N4    2.024074 S    
C80   N4    1.369988 A    
C1    C20   1.429948 S    
N6    H36   1.045247 S    
C60   C72   1.410165 A    
C33   C57   1.424101 A    
C2    C19   1.427500 S    
C86   C98   1.408911 A    
C3    C18   1.432197 S    
N15   H54   1.042223 S    
C5    C24   1.441767 S    
C35   C59   1.419489 A    
C71   N11   1.438298 S    
C107  H23   1.082441 S    
C106  O22   1.221245 D    
O11   Zn3   2.007978 S    
C57   C109  1.488718 S    
C63   C67   1.403118 A    
C15   C55   1.387814 A    
C26   C34   1.417610 A    
C36   C44   1.415120 A    
N17   H57   1.042812 S    
C97   H13   1.082654 S    
C16   H8    1.082630 S    
C86   C92   1.409280 A    
C48   C56   1.411871 A    
N10   H43   1.045010 S    
N16   H56   1.045443 S    
C51   C68   1.404254 A    
C7    C22   1.427014 S    
C40   C48   1.424151 A    
C89   C90   1.429627 A    
C84   C90   1.409562 A    
C55   C72   1.412904 A    
C22   C30   1.401177 A    
C76   C82   1.426390 A    
O4    C1    1.294152 A    
C74   N14   1.427207 S    
O15   C8    1.290974 A    
C12   H4    1.085146 S    
C96   H12   1.081589 S    
C43   C51   1.410242 A    
C113  H29   1.082942 S    
O16   C7    1.292137 A    
N12   H48   1.043686 S    
C12   C20   1.385670 A    
N19   H62   1.042476 S    
C84   C96   1.408573 A    
C73   C83   1.423070 A    
C104  O20   1.219916 D    
C16   C24   1.384861 A    
C31   C39   1.413617 A    
C72   N12   1.444301 S    
C116  O32   1.219915 D    
C98   H14   1.081631 S    
C68   N8    1.438585 S    
C52   C67   1.404458 A    
C85   C97   1.407678 A    
C114  H30   1.085177 S    
O9    Zn3   2.004593 S    
C19   C27   1.406497 A    
C108  H24   1.085337 S    
C93   H9    1.082755 S    
C28   C36   1.410479 A    
C43   C48   1.395773 A    
C110  H26   1.085541 S    
C42   C45   1.397474 A    
C103  O19   1.218723 D    
C88   C100  1.408691 A    
C57   C69   1.401774 A    
C79   N3    1.383162 A    
C64   C68   1.407492 A    
C39   C63   1.418036 A    
C102  H18   1.085051 S    
C116  H32   1.084459 S    
O2    Zn2   2.004593 S    
O4    Zn2   2.007978 S    
O5    C3    1.291941 A    
C87   C91   1.400855 A    
C100  H16   1.082728 S    
C21   C29   1.400487 A    
O6    C4    1.290540 A    
C69   N9    1.437642 S    
O11   C6    1.288278 A    
C58   C110  1.491534 S    
C36   C60   1.417634 A    
C75   N1    1.385160 A    
C41   C49   1.416748 A    
N6    H35   1.045439 S    
C38   C62   1.415334 A    
C98   C99   1.401060 A    
C85   C91   1.405543 A    
C13   C21   1.385609 A    
C60   C112  1.497259 S    
C10   H2    1.084411 S    
C27   C103  1.498149 S    
C101  H17   1.082081 S    
O8    Zn1   2.013944 S    
C76   N2    1.369177 A    
C4    C17   1.431159 S    
C40   C64   1.427539 A    
O9    C5    1.291624 A    
O15   Zn4   2.013941 S    
C95   H11   1.082674 S    
C58   C70   1.412224 A    
C74   N2    1.366941 A    
C11   H3    1.084714 S    
C31   C107  1.489103 S    
C14   H6    1.083520 S    
C34   C58   1.424106 A    
C11   C19   1.387115 A    
C78   N18   1.428748 S    
C44   C52   1.413100 A    
N16   H55   1.045126 S    
C59   C71   1.402668 A    
C37   C61   1.416498 A    
C112  O28   1.220757 D    
C66   N6    1.438018 S    
C18   C26   1.402714 A    
C74   C84   1.423743 A    
C56   C71   1.406667 A    
C61   C113  1.498553 S    
O5    Zn2   2.005914 S    
C82   C90   1.410423 A    
C81   C89   1.403562 A    
O1    C1    1.286009 A    
C94   H10   1.081728 S    
C32   C40   1.419059 A    
O7    C4    1.290693 A    
N20   H63   1.045380 S    
C9    C17   1.382025 A    
N19   H61   1.038915 S    
N11   H46   1.045396 S    
C104  H20   1.081824 S    
C77   C87   1.419577 A    
C14   C54   1.386450 A    
C67   N7    1.436803 S    
C13   H5    1.085017 S    
N7    H38   1.044962 S    
C105  H21   1.084835 S    
C50   C65   1.413283 A    
C73   N1    1.385891 A    
C79   C85   1.418954 A    
C61   C65   1.408983 A    
C49   C66   1.409820 A    
C88   C92   1.403216 A    
C32   C108  1.486169 S    
C11   C51   1.386659 A    
C37   C45   1.421691 A    
