data_mof_unit_10071.cif
_audit_creation_date              2012-10-26T19:53:25-0400
_audit_creation_method            fapswitch 2.2
_symmetry_space_group_name_H-M    P1
_symmetry_Int_Tables_number       1
_space_group_crystal_system       triclinic
_cell_length_a                    9.093493
_cell_length_b                    7.800486
_cell_length_c                    10.698058
_cell_angle_alpha                 89.922128
_cell_angle_beta                  89.996121
_cell_angle_gamma                 89.989613
_cell_volume                      758.851745507

loop_
_atom_site_label
_atom_site_type_symbol
_atom_type_description
_atom_site_fract_x
_atom_site_fract_y
_atom_site_fract_z
_atom_type_partial_charge
C1    C     C_R   0.220084 0.500008 0.499984 0.544693
C2    C     C_3   0.638351 0.464344 0.043379 -0.140254
C3    C     C_3   0.500506 0.499235 0.876464 0.048628
C4    C     C_3   0.499494 0.500765 0.123536 0.048628
C5    C     C_1   0.065386 0.500011 0.499993 -0.046644
C6    C     C_1   0.934614 0.499989 0.500007 -0.046645
C7    C     C_R   0.779916 0.499992 0.500015 0.544692
C8    C     C_R   0.498413 0.500233 0.259162 0.559203
C9    C     C_R   0.501587 0.499766 0.740838 0.559203
C10   C     C_3   0.458013 0.652821 0.039401 0.104508
C11   C     C_3   0.541987 0.347179 0.960599 0.104507
C12   C     C_3   0.593544 0.617160 0.959264 0.074958
C13   C     C_3   0.406456 0.382839 0.040736 0.074958
C14   C     C_3   0.361649 0.535656 0.956621 -0.140254
Cu1   Cu    Cu3+1 0.500000 0.669080 0.500000 1.042474
Cu2   Cu    Cu3+1 0.500000 0.330920 0.500000 1.042474
H1    H     H_    0.249653 0.564517 0.921059 0.110305
H2    H     H_    0.225327 0.313831 0.139408 0.235626
H3    H     H_    0.750347 0.435483 0.078941 0.110305
H4    H     H_    0.386321 0.894545 0.005750 0.238662
H5    H     H_    0.503406 0.878062 0.126608 0.250668
H6    H     H_    0.613678 0.105455 0.994250 0.238663
H7    H     H_    0.496594 0.121937 0.873392 0.250668
H8    H     H_    0.745678 0.802491 0.989963 0.223687
H9    H     H_    0.774672 0.686169 0.860591 0.235626
H10   H     H_    0.254323 0.197507 0.010037 0.223687
N1    N     N_1   0.500000 0.076820 0.500000 -0.073601
N2    N     N_1   0.500000 0.923180 0.500000 -0.073601
N3    N     N_3   0.412384 0.820773 0.084194 -0.583464
N4    N     N_3   0.587616 0.179227 0.915806 -0.583464
N5    N     N_3   0.693333 0.748366 0.912551 -0.603726
N6    N     N_3   0.306666 0.251634 0.087449 -0.603726
O1    O     O_R   0.288390 0.642760 0.500000 -0.496536
O2    O     O_R   0.711610 0.357240 0.500000 -0.496536
O3    O     O_R   0.711610 0.642760 0.500000 -0.499425
O4    O     O_R   0.288390 0.357240 0.500000 -0.499425
O5    O     O_R   0.499960 0.642760 0.316850 -0.498887
O6    O     O_R   0.500040 0.357240 0.683150 -0.498886
O7    O     O_R   0.500040 0.642760 0.683150 -0.490875
O8    O     O_R   0.499960 0.357240 0.316850 -0.490875

loop_
_geom_bond_atom_site_label_1
_geom_bond_atom_site_label_2
_ccdc_geom_bond_type
H5    N3    S    
H9    N5    S    
C2    C4    S    
H10   N6    S    
C6    C7    S    
C3    C9    S    
H6    N4    S    
C13   N6    S    
C10   N3    S    
C4    C8    S    
C2    C12   S    
Cu2   N1    S    
H8    N5    S    
C1    O1    A    
C13   C14   S    
Cu2   O4    S    
C11   C13   S    
C14   H1    S    
Cu1   O7    S    
Cu1   N2    S    
C4    C13   S    
C3    C14   S    
C10   C12   S    
Cu2   O8    S    
C1    C5    S    
C2    C11   S    
Cu1   O3    S    
C9    O6    A    
H4    N3    S    
C12   N5    S    
C5    C6    T    
C7    O2    A    
C3    C11   S    
C8    O5    A    
C4    C10   S    
Cu1   Cu2   S    
H7    N4    S    
C9    O7    A    
H2    N6    S    
C1    O4    A    
C10   C14   S    
N1    N2    T    
Cu1   O5    S    
C3    C12   S    
C8    O8    A    
Cu2   O2    S    
C2    H3    S    
C7    O3    A    
Cu1   O1    S    
C11   N4    S    
Cu2   O6    S    
