data_mof_unit_13287.cif
_audit_creation_date              2012-12-10T17:27:51-0500
_audit_creation_method            fapswitch 2.2
_symmetry_space_group_name_H-M    P1
_symmetry_Int_Tables_number       1
_space_group_crystal_system       triclinic
_cell_length_a                    10.699546
_cell_length_b                    12.09267
_cell_length_c                    12.871536
_cell_angle_alpha                 92.916699
_cell_angle_beta                  93.347819
_cell_angle_gamma                 83.918662
_cell_volume                      1651.52268374

loop_
_atom_site_label
_atom_site_type_symbol
_atom_type_description
_atom_site_fract_x
_atom_site_fract_y
_atom_site_fract_z
_atom_type_partial_charge
C1    C     C_R   0.494688 0.520977 0.700898 0.919087
C2    C     C_R   0.440866 0.629555 0.865106 0.384272
C3    C     C_R   0.549386 0.440508 0.872928 0.417776
C4    C     C_R   0.740812 0.498519 0.506734 0.877100
C5    C     C_R   0.571241 0.455910 0.980635 -0.102575
C6    C     C_R   0.519920 0.556456 0.028812 -0.010630
C7    C     C_R   0.511106 0.563884 0.134720 -0.206656
C8    C     C_R   0.605161 0.374394 0.149015 -0.242393
C9    C     C_R   0.630363 0.370291 0.043816 0.477217
C10   C     C_R   0.359329 0.957451 0.424124 -0.331834
C11   C     C_R   0.383351 0.841211 0.418292 0.555070
C12   C     C_R   0.952822 0.422065 0.584576 0.013473
C13   C     C_R   0.560270 0.854255 0.538034 0.537519
C14   C     C_R   0.550446 0.972716 0.530570 -0.101146
C15   C     C_R   0.447392 0.025541 0.473468 -0.116838
C16   C     C_R   0.510767 0.478815 0.300637 0.939525
C17   C     C_R   0.436907 0.143887 0.463850 0.544040
C18   C     C_R   0.622970 0.155484 0.573900 -0.049535
C19   C     C_R   0.640146 0.039145 0.578144 -0.216931
C20   C     C_R   0.261072 0.504680 0.511968 0.940524
C21   C     C_R   0.905314 0.340871 0.642381 -0.192989
C22   C     C_R   0.984663 0.262429 0.698053 0.625192
C23   C     C_R   0.875298 0.498160 0.522183 -0.150583
C24   C     C_R   0.114770 0.273185 0.704324 -0.290470
C25   C     C_R   0.162039 0.357733 0.654623 -0.143806
C26   C     C_R   0.083206 0.430471 0.591226 0.099282
C27   C     C_3   0.453529 0.280931 0.850011 0.171417
C28   C     C_3   0.451002 0.171460 0.786631 -0.748630
C29   C     C_3   0.284731 0.807532 0.256596 0.130749
C30   C     C_3   0.216519 0.720628 0.192213 -0.741727
C31   C     C_3   0.651220 0.816327 0.701286 0.123416
C32   C     C_3   0.781366 0.803333 0.756085 -0.774447
C33   C     C_3   0.004168 0.115806 0.815554 0.139129
C34   C     C_R   0.923943 0.589050 0.483714 -0.247059
C35   C     C_3   0.084654 0.017834 0.764915 -0.829336
C36   C     C_R   0.046709 0.606919 0.504713 0.440202
C37   C     C_R   0.130572 0.516561 0.539665 -0.212741
C38   C     C_R   0.538892 0.469488 0.192450 -0.132409
C39   C     C_R   0.495073 0.531491 0.814128 -0.341696
C40   C     C_R   0.461079 0.643532 0.971572 -0.249340
H1    H     H_    0.863275 0.653256 0.444196 0.223676
H2    H     H_    0.418913 0.718217 0.011380 0.199403
H3    H     H_    0.920084 0.183699 0.065837 0.369475
H4    H     H_    0.137680 0.781560 0.868387 0.382430
H5    H     H_    0.364303 0.334065 0.831503 0.099699
H6    H     H_    0.456098 0.262030 0.933756 0.157809
H7    H     H_    0.544855 0.122596 0.791465 0.289373
H8    H     H_    0.381111 0.121433 0.817086 0.203355
H9    H     H_    0.423051 0.188106 0.704224 0.226946
H10   H     H_    0.230885 0.124892 0.230096 0.380289
H11   H     H_    0.375525 0.816303 0.221243 0.118032
H12   H     H_    0.690726 0.203767 0.614280 0.193810
H13   H     H_    0.223772 0.887593 0.252325 0.171978
H14   H     H_    0.116859 0.725197 0.212851 0.278243
H15   H     H_    0.218220 0.736157 0.108132 0.230116
H16   H     H_    0.261583 0.635477 0.206584 0.253511
H17   H     H_    0.598546 0.751989 0.730486 0.203951
H18   H     H_    0.603038 0.899054 0.725480 0.138706
H19   H     H_    0.835655 0.871488 0.735882 0.265568
H20   H     H_    0.772729 0.807238 0.841794 0.211965
H21   H     H_    0.832480 0.721938 0.732496 0.277176
H22   H     H_    0.940423 0.080735 0.867384 0.207687
H23   H     H_    0.269898 0.991715 0.391377 0.242717
H24   H     H_    0.061317 0.169118 0.868151 0.131282
H25   H     H_    0.134482 0.043493 0.698388 0.260186
H26   H     H_    0.155593 0.982011 0.823524 0.262842
H27   H     H_    0.024581 0.952633 0.735543 0.281444
H28   H     H_    0.199634 0.861582 0.580302 0.372557
H29   H     H_    0.723609 0.002246 0.619727 0.216616
H30   H     H_    0.806117 0.339407 0.649043 0.179014
H31   H     H_    0.181607 0.218640 0.748461 0.139091
H32   H     H_    0.260668 0.367266 0.669258 0.165935
H33   H     H_    0.471998 0.641487 0.170696 0.173158
H34   H     H_    0.641652 0.306428 0.197564 0.214162
N1    N     N_R   0.523130 0.207800 0.519340 -0.181995
N2    N     N_R   0.476870 0.792180 0.480660 -0.159482
O1    O     O_R   0.506170 0.421690 0.658830 -0.606586
O2    O     O_2   0.808940 0.307703 0.908792 -0.282412
O3    O     O_3   0.856700 0.239812 0.096451 -0.550333
O4    O     O_2   0.368223 0.806070 0.748149 -0.321506
O5    O     O_2   0.239161 0.648889 0.733430 -0.309706
O6    O     O_3   0.225003 0.780582 0.898750 -0.597478
O7    O     O_3   0.560792 0.333518 0.827643 -0.533035
O8    O     O_2   0.189092 0.192128 0.421618 -0.329199
O9    O     O_2   0.311997 0.312317 0.334287 -0.251621
O10   O     O_3   0.316683 0.113949 0.263761 -0.597410
O11   O     O_3   0.305186 0.773954 0.360496 -0.526618
O12   O     O_R   0.491330 0.609320 0.646410 -0.578979
O13   O     O_3   0.662268 0.799338 0.592257 -0.578451
O14   O     O_3   0.928157 0.176784 0.740010 -0.600100
O15   O     O_2   0.061910 0.788802 0.398607 -0.292182
O16   O     O_2   0.968557 0.813861 0.566134 -0.315352
O17   O     O_3   0.209497 0.779787 0.567126 -0.439991
O18   O     O_R   0.690660 0.406170 0.506210 -0.645150
O19   O     O_R   0.675810 0.593790 0.493790 -0.587781
O20   O     O_R   0.508670 0.390680 0.353590 -0.562297
O21   O     O_R   0.493830 0.578310 0.341170 -0.621965
O22   O     O_R   0.324190 0.406210 0.506210 -0.584615
O23   O     O_R   0.309340 0.593830 0.493790 -0.503850
O24   O     O_2   0.689444 0.161627 0.967288 -0.309656
S1    S     S_3+6 0.747235 0.266877 0.999400 0.024297
S2    S     S_3+6 0.317013 0.718060 0.806617 0.009109
S3    S     S_3+6 0.312181 0.197924 0.372366 0.029774
S4    S     S_3+6 0.072724 0.749925 0.507837 0.070176
Zn1   Zn    Zn3+2 0.509910 0.374720 0.508290 1.023573
Zn2   Zn    Zn3+2 0.490090 0.625280 0.491710 1.087398

loop_
_geom_bond_atom_site_label_1
_geom_bond_atom_site_label_2
_ccdc_geom_bond_type
O20   Zn1   S    
O18   Zn1   S    
C18   N1    A    
C1    O1    A    
C10   H23   S    
O15   S4    D    
C18   H12   S    
C7    H33   S    
C30   H14   S    
C12   C23   A    
O22   Zn1   S    
C31   H18   S    
C36   C37   A    
C32   H21   S    
H4    O6    S    
C10   C15   A    
C5    C6    A    
C16   O21   A    
C2    S2    S    
H3    O3    S    
C18   C19   A    
C22   C24   A    
C2    C39   A    
C11   O11   S    
C8    C9    A    
C31   O13   S    
O9    S3    D    
C27   H5    S    
C1    O12   A    
C40   H2    S    
C3    C39   A    
C21   C22   A    
O2    S1    D    
C34   H1    S    
C8    C38   A    
O10   S3    S    
O17   S4    S    
O5    S2    D    
C22   O14   S    
C16   O20   A    
C24   C25   A    
C4    C23   S    
H10   O10   S    
C33   H22   S    
C35   H26   S    
C25   C26   A    
C30   H16   S    
C12   C21   A    
O4    S2    D    
C5    C9    A    
C29   C30   S    
O19   Zn2   S    
C4    O19   A    
O12   Zn2   S    
C28   H9    S    
O16   S4    D    
C31   C32   S    
C13   N2    A    
C35   H27   S    
C23   C34   A    
C8    H34   S    
O6    S2    S    
C25   H32   S    
C4    O18   A    
O21   Zn2   S    
C28   H7    S    
N1    Zn1   S    
C3    O7    S    
C6    C40   A    
C19   H29   S    
C32   H20   S    
C27   H6    S    
C29   H11   S    
C15   C17   A    
O23   Zn2   S    
C28   H8    S    
N2    Zn2   S    
C13   O13   S    
C14   C19   A    
C3    C5    A    
C26   C37   A    
C6    C7    A    
C30   H15   S    
H28   O17   S    
C36   S4    S    
C21   H30   S    
C11   N2    A    
C31   H17   S    
O1    Zn1   S    
C17   S3    S    
C33   O14   S    
C20   C37   S    
C20   O23   A    
C29   H13   S    
C33   H24   S    
C27   O7    S    
O24   S1    D    
C33   C35   S    
C7    C38   A    
C34   C36   A    
C29   O11   S    
C10   C11   A    
C1    C39   S    
C2    C40   A    
C20   O22   A    
C9    S1    S    
C12   C26   A    
C27   C28   S    
C17   N1    A    
O8    S3    D    
C35   H25   S    
C14   C15   A    
O3    S1    S    
C32   H19   S    
C13   C14   A    
C24   H31   S    
C16   C38   S    
