data_mof_unit_33593.cif
_audit_creation_date              2012-12-10T20:49:08-0500
_audit_creation_method            fapswitch 2.2
_symmetry_space_group_name_H-M    P1
_symmetry_Int_Tables_number       1
_space_group_crystal_system       triclinic
_cell_length_a                    8.961994
_cell_length_b                    8.135063
_cell_length_c                    10.568506
_cell_angle_alpha                 90.682094
_cell_angle_beta                  91.051045
_cell_angle_gamma                 89.417342
_cell_volume                      770.289189807

loop_
_atom_site_label
_atom_site_type_symbol
_atom_type_description
_atom_site_fract_x
_atom_site_fract_y
_atom_site_fract_z
_atom_type_partial_charge
C1    C     C_R   0.218058 0.500541 0.500464 0.930420
C2    C     C_3   0.640252 0.516534 0.050256 0.180587
C3    C     C_3   0.514471 0.502261 0.876659 -0.178215
C4    C     C_3   0.495308 0.496092 0.122623 -0.169818
C5    C     C_1   0.065188 0.500828 0.501919 -0.200176
C6    C     C_1   0.934907 0.499376 0.502575 -0.195117
C7    C     C_3   0.101468 0.426387 0.952929 -0.754920
C8    C     C_3   0.850309 0.408162 0.178816 -0.803011
C9    C     C_3   0.313445 0.761233 0.083917 -0.868831
C10   C     C_3   0.691420 0.234795 0.909473 -0.869379
C11   C     C_3   0.627279 0.806694 0.926726 -0.868106
C12   C     C_R   0.781972 0.499538 0.501997 0.923958
C13   C     C_3   0.387675 0.188812 0.074226 -0.867725
C14   C     C_R   0.492313 0.498936 0.257017 0.913554
C15   C     C_R   0.512337 0.500832 0.742425 0.916100
C16   C     C_3   0.415186 0.623153 0.037615 0.109252
C17   C     C_3   0.594737 0.374617 0.960564 0.148115
C18   C     C_3   0.561360 0.644099 0.965411 0.112104
C19   C     C_3   0.448186 0.353054 0.033154 0.158688
C20   C     C_3   0.369694 0.481006 0.948630 0.177896
H1    H     H_    0.209145 0.566861 0.821119 0.224750
H2    H     H_    0.225041 0.711066 0.144016 0.231745
H3    H     H_    0.379709 0.849620 0.141553 0.260958
H4    H     H_    0.731410 0.156094 0.987971 0.235900
H5    H     H_    0.624645 0.158067 0.842692 0.261650
H6    H     H_    0.787481 0.285002 0.858691 0.234811
H7    H     H_    0.654510 0.880008 0.013022 0.233560
H8    H     H_    0.730326 0.784232 0.872238 0.245569
H9    H     H_    0.544683 0.875160 0.867708 0.258798
H10   H     H_    0.354003 0.115717 0.989355 0.247045
H11   H     H_    0.476192 0.121284 0.127524 0.250144
H12   H     H_    0.998568 0.442836 0.894413 0.241382
H13   H     H_    0.290329 0.208405 0.136159 0.239691
H14   H     H_    0.093602 0.507803 0.037200 0.257079
H15   H     H_    0.108902 0.296056 0.981804 0.248959
H16   H     H_    0.789536 0.653857 0.159375 0.235553
H17   H     H_    0.953592 0.448995 0.228931 0.227465
H18   H     H_    0.881575 0.307048 0.113606 0.254821
H19   H     H_    0.772312 0.361263 0.249316 0.260210
H20   H     H_    0.261598 0.824951 0.001706 0.241762
N1    N     N_1   0.500000 0.073640 0.500000 -0.040184
N2    N     N_1   0.500000 0.926360 0.500000 -0.040355
N3    N     N_2   0.229064 0.468097 0.879561 -0.293833
N4    N     N_2   0.785276 0.544288 0.109472 -0.303442
O1    O     O_R   0.285350 0.636850 0.500000 -0.618978
O2    O     O_R   0.714650 0.363150 0.500000 -0.623872
O3    O     O_R   0.714650 0.636850 0.500000 -0.614917
O4    O     O_R   0.285350 0.363150 0.500000 -0.609229
O5    O     O_R   0.499970 0.636850 0.313950 -0.621032
O6    O     O_R   0.500030 0.363150 0.686050 -0.613434
O7    O     O_R   0.500030 0.636850 0.686050 -0.625851
O8    O     O_R   0.499970 0.363150 0.313950 -0.628633
Zn1   Zn    Zn3+2 0.500000 0.682780 0.500000 0.971877
Zn2   Zn    Zn3+2 0.500000 0.317220 0.500000 0.974652

loop_
_geom_bond_atom_site_label_1
_geom_bond_atom_site_label_2
_ccdc_geom_bond_type
C4    C16   S    
C2    C4    S    
C11   C18   S    
C13   H13   S    
C8    H19   S    
C15   O7    A    
C2    C18   S    
N1    N2    T    
C19   C20   S    
C11   H7    S    
O3    Zn1   S    
C10   H6    S    
O1    Zn1   S    
C3    C20   S    
C1    O4    A    
C2    C17   S    
O4    Zn2   S    
C1    O1    A    
O6    Zn2   S    
C8    H18   S    
C11   H8    S    
C12   O3    A    
C1    C5    S    
C10   H5    S    
C12   O2    A    
C16   C20   S    
C17   C19   S    
O2    Zn2   S    
O8    Zn2   S    
C3    C17   S    
C7    N3    S    
N2    Zn1   S    
C4    C14   S    
C5    C6    T    
C9    H2    S    
C7    H14   S    
O5    Zn1   S    
N1    Zn2   S    
H16   N4    S    
C14   O5    A    
C8    H17   S    
C13   C19   S    
C10   C17   S    
C6    C12   S    
C13   H10   S    
C20   N3    S    
C3    C15   S    
C11   H9    S    
C3    C18   S    
C16   C18   S    
C15   O6    A    
C13   H11   S    
C9    H3    S    
C7    H12   S    
C10   H4    S    
H1    N3    S    
C4    C19   S    
C7    H15   S    
C9    C16   S    
C9    H20   S    
C14   O8    A    
C8    N4    S    
C2    N4    S    
O7    Zn1   S    
