data_mof_unit_32349.cif
_audit_creation_date              2012-12-11T15:55:52-0500
_audit_creation_method            fapswitch 2.2
_symmetry_space_group_name_H-M    P1
_symmetry_Int_Tables_number       1
_space_group_crystal_system       triclinic
_cell_length_a                    11.101156
_cell_length_b                    11.162543
_cell_length_c                    18.770559
_cell_angle_alpha                 91.235559
_cell_angle_beta                  91.332189
_cell_angle_gamma                 58.84494
_cell_volume                      1989.85484348

loop_
_atom_site_label
_atom_site_type_symbol
_atom_type_description
_atom_site_fract_x
_atom_site_fract_y
_atom_site_fract_z
_atom_type_partial_charge
C1    C     C_R   0.353495 0.776463 0.398157 0.536082
C2    C     C_R   0.212421 0.360621 0.213198 -0.123813
C3    C     C_R   0.224644 0.392174 0.283226 -0.017152
C4    C     C_R   0.385300 0.351909 0.388640 0.536881
C5    C     C_R   0.860207 0.754208 0.365483 -0.122290
C6    C     C_R   0.854070 0.637423 0.342828 -0.088980
C7    C     C_R   0.972726 0.517461 0.317955 -0.105035
C8    C     C_R   0.099740 0.512435 0.315142 0.038277
C9    C     C_R   0.358153 0.322075 0.316137 0.018707
C10   C     C_R   0.848313 0.344816 0.181304 0.009255
C11   C     C_R   0.913174 0.243160 0.233171 -0.034337
C12   C     C_R   0.607983 0.099456 0.167310 0.046340
C13   C     C_R   0.862133 0.260080 0.300303 0.012964
C14   C     C_R   0.669656 0.488062 0.268469 -0.159831
C15   C     C_R   0.720134 0.466938 0.198201 -0.122081
C16   C     C_R   0.711726 0.415503 0.395484 0.560460
C17   C     C_3   0.061190 0.151189 0.256334 -0.287092
C18   C     C_3   0.005682 0.167696 0.331660 -0.252594
C19   C     C_R   0.748164 0.387979 0.321222 0.004719
C20   C     C_R   0.368125 0.838721 0.178114 -0.021321
C21   C     C_R   0.413462 0.908489 0.227077 -0.054700
C22   C     C_R   0.386829 0.912937 0.301164 0.000032
C23   C     C_R   0.330658 0.268506 0.173918 0.055448
C24   C     C_R   0.257710 0.802921 0.277038 -0.150085
C25   C     C_R   0.303566 0.772018 0.207256 0.232347
C26   C     C_3   0.562837 0.861445 0.253973 -0.290041
C27   C     C_3   0.515150 0.900623 0.328743 -0.281280
C28   C     C_R   0.342358 0.772176 0.603316 0.547629
C29   C     C_R   0.322335 0.845178 0.327590 -0.036242
C30   C     C_R   0.297973 0.305152 0.807839 0.018815
C31   C     C_R   0.403731 0.192748 0.769492 0.036439
C32   C     C_R   0.415177 0.198126 0.697468 0.025365
C33   C     C_R   0.198818 0.421843 0.694875 -0.169918
C34   C     C_R   0.477169 0.223411 0.277110 -0.132605
C35   C     C_R   0.187700 0.415520 0.769149 -0.168420
C36   C     C_3   0.559159 0.111516 0.782260 -0.272869
C37   C     C_3   0.573192 0.115805 0.702707 -0.269510
C38   C     C_R   0.321682 0.319481 0.660103 0.018142
C39   C     C_R   0.811046 0.331242 0.836393 0.019634
C40   C     C_R   0.369325 0.349641 0.594946 0.549158
C41   C     C_R   0.748365 0.462537 0.803915 0.027893
C42   C     C_R   0.740052 0.472339 0.731044 0.041462
C43   C     C_R   0.831535 0.225608 0.718564 -0.173523
C44   C     C_R   0.841589 0.213956 0.793138 -0.167166
C45   C     C_R   0.468721 0.195473 0.205547 0.013093
C46   C     C_3   0.775016 0.581637 0.810478 -0.269490
C47   C     C_3   0.769873 0.587879 0.730123 -0.270493
C48   C     C_R   0.790143 0.354614 0.686962 0.020140
C49   C     C_R   0.288257 0.871095 0.820251 0.019773
C50   C     C_R   0.179416 0.873553 0.781143 0.018868
C51   C     C_R   0.187367 0.858915 0.708105 0.024092
C52   C     C_R   0.760254 0.378910 0.611178 0.552442
C53   C     C_R   0.395859 0.873908 0.708680 -0.159946
C54   C     C_R   0.390875 0.883062 0.782872 -0.149642
C55   C     C_3   0.116842 0.784540 0.788788 -0.282310
C56   C     C_R   0.102888 0.631860 0.332560 0.015298
C57   C     C_3   0.126532 0.766511 0.708641 -0.265426
C58   C     C_R   0.303365 0.845006 0.671578 0.020556
C59   C     C_R   0.911977 0.316741 0.111755 0.539536
C60   C     C_R   0.303881 0.254145 0.100390 0.570662
C61   C     C_R   0.309443 0.901850 0.106905 0.570690
C62   C     C_R   0.880802 0.310103 0.905542 0.557851
C63   C     C_R   0.292489 0.285050 0.883795 0.567886
C64   C     C_R   0.871899 0.918555 0.103037 -0.068729
C65   C     C_R   0.271737 0.900805 0.896171 0.565190
C66   C     C_R   0.853589 0.025646 0.149009 -0.069116
C67   C     C_R   0.985706 0.751852 0.359747 -0.100152
C68   C     C_R   0.721648 0.118855 0.178547 -0.095771
C69   C     C_R   0.635363 0.979755 0.126197 -0.069150
C70   C     C_R   0.762933 0.893805 0.092494 -0.130855
Cr1   Cr    Cr6+3 0.601740 0.606840 0.505840 0.994893
Cr2   Cr    Cr6+3 0.291500 0.601560 0.495070 1.001982
Cr3   Cr    Cr6+3 0.606780 0.291630 0.499130 1.002398
Cr4   Cr    Cr6+3 0.062440 0.063060 0.008240 1.022811
Cr5   Cr    Cr6+3 0.062950 0.375000 0.998920 1.008445
Cr6   Cr    Cr6+3 0.374550 0.061770 0.992470 1.001049
H1    H     H_    0.580813 0.169614 0.301972 0.130351
H2    H     H_    0.039396 0.224104 0.368819 0.149628
H3    H     H_    0.163866 0.805793 0.289991 0.135119
H4    H     H_    0.778210 0.805811 0.060003 0.105320
H5    H     H_    0.611230 0.921397 0.242654 0.149708
H6    H     H_    0.635999 0.748321 0.243865 0.136601
H7    H     H_    0.574262 0.820428 0.368185 0.162967
H8    H     H_    0.496090 0.004633 0.346101 0.143602
H9    H     H_    0.118685 0.512436 0.666348 0.121416
H10   H     H_    0.098177 0.499624 0.796273 0.117801
H11   H     H_    0.598652 0.004284 0.802039 0.129701
H12   H     H_    0.768643 0.846814 0.386207 0.103873
H13   H     H_    0.596914 0.172393 0.813004 0.150483
H14   H     H_    0.621623 0.177164 0.688340 0.172729
H15   H     H_    0.991583 0.842426 0.375697 0.110675
H16   H     H_    0.619533 0.011195 0.676471 0.125055
H17   H     H_    0.861499 0.133414 0.685923 0.125479
H18   H     H_    0.886609 0.111086 0.816071 0.139818
H19   H     H_    0.880218 0.553461 0.831627 0.164047
H20   H     H_    0.686152 0.675593 0.836048 0.129900
H21   H     H_    0.680948 0.686094 0.708936 0.142953
H22   H     H_    0.873403 0.554896 0.706243 0.137690
H23   H     H_    0.758074 0.638275 0.342724 0.144265
H24   H     H_    0.478393 0.877569 0.681192 0.118053
H25   H     H_    0.469208 0.896571 0.810828 0.133375
H26   H     H_    0.006682 0.845289 0.807848 0.132737
H27   H     H_    0.971814 0.852236 0.077422 0.169688
H28   H     H_    0.187280 0.686118 0.818050 0.149732
H29   H     H_    0.204842 0.658073 0.691914 0.168957
H30   H     H_    0.022156 0.814495 0.681238 0.129945
H31   H     H_    0.943555 0.033636 0.161582 0.162385
H32   H     H_    0.706742 0.205073 0.211550 0.141716
H33   H     H_    0.201911 0.624065 0.326575 0.178355
H34   H     H_    0.965376 0.430368 0.299287 0.122787
H35   H     H_    0.558612 0.950166 0.121863 0.162524
H36   H     H_    0.109022 0.414543 0.187898 0.136483
H37   H     H_    0.108994 0.618252 0.133913 0.367138
H38   H     H_    0.574286 0.584207 0.282509 0.132509
H39   H     H_    0.662369 0.546411 0.158452 0.150960
H40   H     H_    0.127074 0.197365 0.249540 0.127728
H41   H     H_    0.103291 0.046842 0.232468 0.143292
H42   H     H_    0.018680 0.069346 0.352751 0.142284
O1    O     O_R   0.748670 0.497520 0.427970 -0.530430
O2    O     O_R   0.417470 0.174910 0.067830 -0.510126
O3    O     O_R   0.375160 0.946380 0.070880 -0.548903
O4    O     O_R   0.476470 0.723930 0.429450 -0.527223
O5    O     O_R   0.160500 0.919670 0.926690 -0.501635
O6    O     O_R   0.933140 0.190380 0.936050 -0.502986
O7    O     O_R   0.909010 0.403210 0.925030 -0.527683
O8    O     O_R   0.179590 0.361290 0.918480 -0.500106
O9    O     O_R   0.391360 0.170840 0.907510 -0.516539
O10   O     O_R   0.350950 0.942600 0.922260 -0.514243
O11   O     O_3   0.166650 0.166610 0.999880 -0.290037
O12   O     O_R   0.300170 0.471020 0.567120 -0.506277
O13   O     O_R   0.264730 0.744140 0.416740 -0.546916
O14   O     O_R   0.309440 0.472410 0.418220 -0.512763
O15   O     O_R   0.501630 0.260530 0.414310 -0.541721
O16   O     O_R   0.727920 0.305730 0.428950 -0.498593
O17   O     O_R   0.738670 0.496020 0.588600 -0.511608
O18   O     O_R   0.467190 0.722540 0.578350 -0.504316
O19   O     O_R   0.254720 0.742640 0.577370 -0.522813
O20   O     O_2   0.311138 0.642325 0.081680 -0.269954
O21   O     O_2   0.392179 0.504128 0.190099 -0.299060
O22   O     O_3   0.123410 0.671150 0.172755 -0.571220
O23   O     O_R   0.491630 0.259030 0.574940 -0.524845
O24   O     O_R   0.718640 0.304340 0.577850 -0.507993
O25   O     O_3   0.500010 0.500010 0.500020 -0.268152
O26   O     O_R   0.186620 0.923750 0.087000 -0.480087
O27   O     O_R   0.957350 0.194160 0.084660 -0.513958
O28   O     O_R   0.935120 0.407280 0.085350 -0.540193
O29   O     O_R   0.203800 0.365060 0.067090 -0.485285
S1    S     S_3+6 0.285065 0.643687 0.160022 -0.015903

loop_
_geom_bond_atom_site_label_1
_geom_bond_atom_site_label_2
_ccdc_geom_bond_type
C36   H13   S    
Cr2   O25   S    
Cr4   O6    S    
C12   C69   A    
C23   C45   A    
C22   C29   A    
C64   H27   S    
C69   H35   S    
C41   C42   A    
Cr4   O27   S    
C57   H29   S    
C66   H31   S    
C5    C67   A    
C16   O16   A    
O22   S1    S    
C62   O6    A    
C7    C8    A    
C4    O14   A    
Cr3   O23   S    
C53   C54   A    
C61   O26   A    
C12   C68   A    
C55   H26   S    
C2    H36   S    
C26   C27   S    
Cr6   O2    S    
C47   H22   S    
C49   C65   S    
C13   C18   S    
Cr6   O3    S    
C21   C22   A    
C27   H8    S    
C10   C15   A    
C34   H1    S    
Cr1   O17   S    
C30   C31   A    
C35   H10   S    
C66   C68   A    
C49   C54   A    
C61   O3    A    
C20   C61   S    
C33   H9    S    
C1    O4    A    
Cr4   O26   S    
Cr1   O4    S    
C33   C35   A    
C24   C29   A    
C5    H12   S    
C46   H19   S    
O20   S1    D    
C41   C46   S    
C60   O2    A    
C51   C57   S    
C60   O29   A    
C64   C70   A    
C43   C48   A    
C18   H42   S    
C17   H41   S    
C57   H30   S    
C53   H24   S    
C40   O23   A    
C8    C56   A    
C26   H6    S    
C67   H15   S    
C21   C26   S    
Cr2   O14   S    
Cr3   O24   S    
Cr5   O28   S    
C23   C60   S    
O21   S1    D    
C13   C19   A    
C70   H4    S    
C65   O10   A    
C24   C25   A    
C39   C41   A    
C3    C8    S    
C16   O1    A    
Cr1   O18   S    
C51   C58   A    
Cr5   O29   S    
C14   H38   S    
C55   H28   S    
C52   O24   A    
Cr5   O7    S    
C64   C66   A    
C43   C44   A    
C3    C9    A    
Cr6   O11   S    
C24   H3    S    
C31   C32   A    
C14   C15   A    
C18   H2    S    
C1    C29   S    
C17   C18   S    
H37   O22   S    
C50   C51   A    
C34   C45   A    
C42   C48   A    
C32   C37   S    
Cr3   O16   S    
C6    C7    A    
C54   H25   S    
C37   H14   S    
Cr2   O19   S    
Cr3   O15   S    
C26   H5    S    
C32   C38   A    
C22   C27   S    
C55   C57   S    
C9    C34   A    
Cr6   O10   S    
C15   H39   S    
C59   O27   A    
C56   H33   S    
Cr2   O13   S    
Cr1   O25   S    
Cr3   O25   S    
C52   O17   A    
C39   C62   S    
C40   O12   A    
C46   C47   S    
C11   C17   S    
C37   H16   S    
C28   O18   A    
C14   C19   A    
C28   O19   A    
C50   C55   S    
C12   C45   S    
C1    O13   A    
C62   O7    A    
C53   C58   A    
Cr2   O12   S    
C39   C44   A    
C28   C58   S    
C56   C67   A    
C30   C35   A    
C33   C38   A    
C47   H21   S    
C7    H34   S    
Cr1   O1    S    
Cr5   O8    S    
C6    H23   S    
C27   H7    S    
C2    C3    A    
C38   C40   S    
C11   C13   A    
C5    C6    A    
C16   C19   S    
C43   H17   S    
Cr4   O5    S    
C25   S1    S    
C42   C47   S    
C65   O5    A    
C69   C70   A    
C63   O8    A    
C44   H18   S    
C10   C11   A    
C59   O28   A    
C36   H11   S    
C48   C52   S    
C46   H20   S    
C20   C21   A    
C36   C37   S    
C49   C50   A    
C20   C25   A    
Cr4   O11   S    
C2    C23   A    
Cr6   O9    S    
C31   C36   S    
C68   H32   S    
C4    C9    S    
C30   C63   S    
C10   C59   S    
C63   O9    A    
Cr5   O11   S    
C17   H40   S    
C4    O15   A    
