data_mof_unit_41759.cif
_audit_creation_date              2012-12-10T18:01:17-0500
_audit_creation_method            fapswitch 2.2
_symmetry_space_group_name_H-M    P1
_symmetry_Int_Tables_number       1
_space_group_crystal_system       triclinic
_cell_length_a                    9.505909
_cell_length_b                    10.829025
_cell_length_c                    17.404286
_cell_angle_alpha                 90.105404
_cell_angle_beta                  85.480538
_cell_angle_gamma                 89.982173
_cell_volume                      1786.01849481

loop_
_atom_site_label
_atom_site_type_symbol
_atom_type_description
_atom_site_fract_x
_atom_site_fract_y
_atom_site_fract_z
_atom_type_partial_charge
C1    C     C_R   0.499950 0.737956 0.500430 0.775497
C2    C     C_R   0.500050 0.262044 0.499570 0.775498
C3    C     C_R   0.628228 0.936056 0.494585 -0.193682
C4    C     C_R   0.371772 0.063944 0.505415 -0.193682
C5    C     C_R   0.628269 0.063788 0.494284 -0.182640
C6    C     C_R   0.371731 0.936212 0.505716 -0.182639
C7    C     C_R   0.500043 0.128212 0.499695 -0.018162
C8    C     C_R   0.499957 0.871788 0.500305 -0.018162
C9    C     C_R   0.918258 0.571994 0.550754 -0.020387
C10   C     C_R   0.081742 0.428006 0.449246 -0.020386
C11   C     C_R   0.067180 0.571902 0.550764 -0.038469
C12   C     C_R   0.932820 0.428098 0.449236 -0.038470
C13   C     C_R   0.480807 0.495679 0.649817 0.798898
C14   C     C_R   0.519193 0.504321 0.350183 0.798898
C15   C     C_R   0.470510 0.486593 0.734014 -0.049600
C16   C     C_R   0.529490 0.513406 0.265986 -0.049600
C17   C     C_R   0.579092 0.541137 0.772320 -0.246726
C18   C     C_R   0.420909 0.458861 0.227680 -0.246726
C19   C     C_R   0.581024 0.531789 0.851474 -0.152689
C20   C     C_R   0.418977 0.468210 0.148526 -0.152688
C21   C     C_R   0.472915 0.468860 0.894346 0.156229
C22   C     C_R   0.527085 0.531138 0.105654 0.156229
C23   C     C_R   0.364726 0.412950 0.856994 -0.198794
C24   C     C_R   0.635273 0.587049 0.143006 -0.198794
C25   C     C_R   0.361387 0.420288 0.776811 0.144871
C26   C     C_R   0.638612 0.579712 0.223189 0.144871
C27   C     C_2   0.472252 0.456736 0.978196 -0.219577
C28   C     C_2   0.527749 0.543263 0.021804 -0.219577
Cu1   Cu    Cu3+1 0.359340 0.499980 0.500000 0.937221
Cu2   Cu    Cu3+1 0.640660 0.500020 0.500000 0.937221
H1    H     H_    0.664048 0.590783 0.740726 0.150660
H2    H     H_    0.335952 0.409215 0.259274 0.150660
H3    H     H_    0.577684 0.624697 0.995616 0.143968
H4    H     H_    0.422317 0.375302 0.004384 0.143968
H5    H     H_    0.283163 0.362397 0.890770 0.119649
H6    H     H_    0.716837 0.637603 0.109230 0.119649
H7    H     H_    0.330930 0.428210 0.121529 0.128272
H8    H     H_    0.669071 0.571788 0.878471 0.128272
H9    H     H_    0.728456 0.887907 0.490085 0.149372
H10   H     H_    0.271543 0.112093 0.509915 0.149372
H11   H     H_    0.728523 0.111809 0.489634 0.147287
H12   H     H_    0.271477 0.888191 0.510366 0.147287
H13   H     H_    0.856244 0.629829 0.591291 0.114511
H14   H     H_    0.143756 0.370171 0.408709 0.114511
H15   H     H_    0.117590 0.629579 0.591330 0.115495
H16   H     H_    0.882410 0.370421 0.408670 0.115495
N1    N     N_R   0.147930 0.499970 0.499980 -0.154880
N2    N     N_R   0.852070 0.500030 0.500020 -0.154880
O1    O     O_R   0.381260 0.680340 0.500000 -0.585359
O2    O     O_R   0.618740 0.319660 0.500000 -0.585359
O3    O     O_R   0.618830 0.680370 0.500010 -0.587712
O4    O     O_R   0.381170 0.319630 0.499990 -0.587713
O5    O     O_R   0.367440 0.500000 0.613600 -0.587364
O6    O     O_R   0.632560 0.500000 0.386400 -0.587365
O7    O     O_R   0.605010 0.500030 0.613600 -0.585076
O8    O     O_R   0.394990 0.499970 0.386400 -0.585076
C29   C     C_3   0.755339 0.648548 0.259825 -0.408954
C30   C     C_3   0.699928 0.766136 0.300270 -0.782761
H17   H     H_    0.613094 0.745355 0.344519 0.246103
H18   H     H_    0.786514 0.811880 0.328788 0.233646
H19   H     H_    0.660117 0.830931 0.257571 0.240555
H20   H     H_    0.808934 0.588389 0.299873 0.222571
H21   H     H_    0.839632 0.676283 0.215266 0.188026
C31   C     C_3   0.244660 0.351453 0.740175 -0.408954
C32   C     C_3   0.300069 0.233865 0.699730 -0.782761
H22   H     H_    0.213483 0.188122 0.671212 0.233646
H23   H     H_    0.339880 0.169070 0.742429 0.240555
H24   H     H_    0.386904 0.254645 0.655481 0.246104
H25   H     H_    0.160366 0.323719 0.784733 0.188026
H26   H     H_    0.191066 0.411613 0.700127 0.222571

loop_
_geom_bond_atom_site_label_1
_geom_bond_atom_site_label_2
_ccdc_geom_bond_type
C14   O8    A    
Cu2   O3    S    
C5    C7    A    
C13   O5    A    
C29   H21   S    
Cu1   Cu2   S    
C19   H8    S    
C31   H26   S    
C1    C8    S    
C9    C11   A    
Cu2   O7    S    
C23   H5    S    
C2    C7    S    
C12   N2    A    
C32   H24   S    
C31   C32   S    
Cu2   O6    S    
C30   H19   S    
C13   C15   S    
C11   N1    A    
C21   C27   S    
C3    H9    S    
C29   H20   S    
C14   O6    A    
C16   C18   A    
C22   C28   S    
C31   H25   S    
Cu1   O1    S    
C20   H7    S    
C1    O3    A    
C29   C30   S    
C24   H6    S    
C2    O4    A    
Cu1   N1    S    
C4    C7    A    
C10   C12   A    
C22   C24   A    
C4    C6    A    
C19   C21   A    
C24   C26   A    
C28   H3    S    
Cu1   O5    S    
C18   C20   A    
C21   C23   A    
C27   H4    S    
C16   C26   A    
C17   H1    S    
C26   C29   S    
C14   C16   S    
C9    H13   S    
Cu1   O8    S    
C11   H15   S    
Cu2   O2    S    
C30   H18   S    
C3    C5    A    
C9    N2    A    
C10   N1    A    
C23   C25   A    
C18   H2    S    
C3    C8    A    
C15   C25   A    
C12   H16   S    
C32   H22   S    
C6    H12   S    
Cu2   N2    S    
C27   C28   D    
C15   C17   A    
C5    H11   S    
C17   C19   A    
C6    C8    A    
C2    O2    A    
C32   H23   S    
C30   H17   S    
C10   H14   S    
Cu1   O4    S    
C4    H10   S    
C20   C22   A    
C13   O7    A    
C25   C31   S    
C1    O1    A    
