data_mof_unit_36303.cif
_audit_creation_date              2012-10-26T21:06:37-0400
_audit_creation_method            fapswitch 2.2
_symmetry_space_group_name_H-M    P1
_symmetry_Int_Tables_number       1
_space_group_crystal_system       triclinic
_cell_length_a                    15.828611
_cell_length_b                    10.867068
_cell_length_c                    9.61323
_cell_angle_alpha                 90.119889
_cell_angle_beta                  88.469076
_cell_angle_gamma                 94.106428
_cell_volume                      1648.74349232

loop_
_atom_site_label
_atom_site_type_symbol
_atom_type_description
_atom_site_fract_x
_atom_site_fract_y
_atom_site_fract_z
_atom_type_partial_charge
Br1   Br    Br    0.915702 0.283796 0.726488 -0.493245
Br2   Br    Br    0.081979 0.697170 0.279385 -0.468145
Br3   Br    Br    0.941703 0.416132 0.185717 -0.426379
Br4   Br    Br    0.060395 0.559126 0.819977 -0.383378
C1    C     C_R   0.498150 0.262237 0.500376 0.536673
C2    C     C_R   0.560423 0.570267 0.071281 0.310966
C3    C     C_R   0.340135 0.501815 0.501802 0.514386
C4    C     C_R   0.659796 0.497249 0.498663 0.529289
C5    C     C_3   0.966647 0.403303 0.593684 0.135827
C6    C     C_3   0.032234 0.576940 0.412359 0.128800
C7    C     C_3   0.026397 0.381231 0.467707 0.253702
C8    C     C_3   0.972771 0.599038 0.538463 0.247458
C9    C     C_1   0.250487 0.502381 0.506613 -0.003267
C10   C     C_1   0.749013 0.489775 0.496410 0.000242
C11   C     C_3   0.023637 0.519040 0.633264 0.149320
C12   C     C_R   0.496031 0.737227 0.500047 0.560070
C13   C     C_3   0.975444 0.461096 0.372766 0.135558
C14   C     C_3   0.083051 0.496098 0.506939 -0.017787
C15   C     C_3   0.915920 0.484293 0.498964 -0.023173
C16   C     C_1   0.174830 0.500437 0.508464 0.048740
C17   C     C_1   0.824307 0.485131 0.496533 0.042031
C18   C     C_R   0.472518 0.062764 0.381168 -0.182909
C19   C     C_R   0.502397 0.935893 0.623785 -0.191637
C20   C     C_3   0.999192 0.173850 0.415132 0.011796
C21   C     C_3   0.028859 0.080948 0.309301 -0.355504
C22   C     C_3   0.000177 0.805651 0.594771 0.012526
C23   C     C_R   0.471344 0.933987 0.377872 0.253902
C24   C     C_3   0.969129 0.897745 0.700396 -0.350261
C25   C     C_3   0.480525 0.901235 0.139350 -0.004598
C26   C     C_3   0.415170 0.922370 0.030517 -0.371041
C27   C     C_3   0.598481 0.109638 0.804343 -0.000505
C28   C     C_3   0.620205 0.210908 0.909711 -0.325827
C29   C     C_3   0.324710 0.285216 0.126824 -0.007793
C30   C     C_3   0.270906 0.247925 0.255314 -0.343077
C31   C     C_3   0.625575 0.757504 0.839525 0.024501
C32   C     C_3   0.705547 0.821601 0.898978 -0.389756
C33   C     C_3   0.340303 0.308380 0.798012 0.029028
C34   C     C_R   0.507767 0.063832 0.625979 0.238167
C35   C     C_3   0.281652 0.190871 0.817024 -0.411077
C36   C     C_3   0.701411 0.585851 0.125872 0.014094
C37   C     C_3   0.768001 0.661723 0.207877 -0.342340
C38   C     C_R   0.489948 0.870868 0.499821 -0.009712
C39   C     C_R   0.493870 0.127918 0.502462 -0.023446
C40   C     C_R   0.446286 0.418135 0.080515 0.347448
C41   C     C_R   0.558581 0.573702 0.922115 0.322827
C42   C     C_R   0.447140 0.414352 0.929355 0.299466
Cu1   Cu    Cu3+1 0.500000 0.500020 0.640660 1.014936
Cu2   Cu    Cu3+1 0.500000 0.499980 0.359340 1.056802
H1    H     H_    0.454479 0.111638 0.289803 0.169287
H2    H     H_    0.955987 0.851677 0.802519 0.196531
H3    H     H_    0.018316 0.974742 0.713406 0.126522
H4    H     H_    0.910191 0.935746 0.664322 0.162501
H5    H     H_    0.517217 0.822990 0.106285 0.174935
H6    H     H_    0.526451 0.983781 0.143684 0.105723
H7    H     H_    0.373228 0.993797 0.067490 0.164288
H8    H     H_    0.447123 0.954117 0.931980 0.132272
H9    H     H_    0.376113 0.835326 0.011048 0.170169
H10   H     H_    0.649278 0.114105 0.721299 0.133516
H11   H     H_    0.596972 0.019958 0.859213 0.099455
H12   H     H_    0.506600 0.887653 0.720242 0.111499
H13   H     H_    0.682908 0.197601 0.954283 0.114728
H14   H     H_    0.622822 0.302608 0.858327 0.192665
H15   H     H_    0.571570 0.207921 0.995397 0.165452
H16   H     H_    0.330440 0.199591 0.066898 0.168243
H17   H     H_    0.291881 0.356181 0.069772 0.142208
H18   H     H_    0.253061 0.330911 0.312017 0.182369
H19   H     H_    0.211790 0.195389 0.223538 0.133349
H20   H     H_    0.305822 0.189248 0.325040 0.150900
H21   H     H_    0.568780 0.794159 0.890317 0.080992
H22   H     H_    0.626712 0.782193 0.727734 0.164017
H23   H     H_    0.937399 0.204694 0.380824 0.167857
H24   H     H_    0.760957 0.766133 0.879716 0.191120
H25   H     H_    0.719915 0.912717 0.848511 0.092693
H26   H     H_    0.695817 0.837658 0.011895 0.157773
H27   H     H_    0.354966 0.304907 0.685890 0.196514
H28   H     H_    0.305151 0.390844 0.825018 0.132863
H29   H     H_    0.234572 0.201082 0.902976 0.129985
H30   H     H_    0.244382 0.172555 0.721776 0.129276
H31   H     H_    0.318922 0.109872 0.835368 0.181782
H32   H     H_    0.724991 0.582653 0.016613 0.184166
H33   H     H_    0.696575 0.489094 0.164264 0.156232
H34   H     H_    0.989179 0.126565 0.517002 0.166201
H35   H     H_    0.742309 0.685646 0.312143 0.170397
H36   H     H_    0.824599 0.608966 0.220370 0.175856
H37   H     H_    0.788365 0.748642 0.152687 0.138217
H38   H     H_    0.088410 0.043503 0.343470 0.163209
H39   H     H_    0.979599 0.003654 0.298985 0.125833
H40   H     H_    0.040363 0.126093 0.206306 0.197864
H41   H     H_    0.012185 0.853898 0.493858 0.164342
H42   H     H_    0.061130 0.773778 0.631463 0.168667
N1    N     N_R   0.500020 0.500030 0.852070 -0.265923
N2    N     N_R   0.499980 0.499970 0.147930 -0.247594
O1    O     O_R   0.500000 0.319660 0.618740 -0.431144
O2    O     O_3   0.936623 0.709143 0.578854 -0.534320
O3    O     O_3   0.437751 0.868110 0.266162 -0.521325
O4    O     O_3   0.517865 0.126139 0.751041 -0.499827
O5    O     O_3   0.406767 0.326396 0.165306 -0.526424
O6    O     O_3   0.627404 0.628064 0.847269 -0.532535
O7    O     O_3   0.417473 0.302516 0.869253 -0.514286
O8    O     O_3   0.622748 0.640405 0.140220 -0.548530
O9    O     O_R   0.500000 0.680340 0.381260 -0.420915
O10   O     O_R   0.499990 0.319630 0.381170 -0.478772
O11   O     O_R   0.500010 0.680370 0.618830 -0.524913
O12   O     O_R   0.379080 0.500000 0.618760 -0.541204
O13   O     O_R   0.620920 0.500000 0.381240 -0.497475
O14   O     O_R   0.379080 0.499970 0.381190 -0.454808
O15   O     O_R   0.620920 0.500030 0.618810 -0.443130
O16   O     O_3   0.062567 0.271185 0.427150 -0.543043

loop_
_geom_bond_atom_site_label_1
_geom_bond_atom_site_label_2
_ccdc_geom_bond_type
C22   O2    S    
C11   C14   S    
C42   O7    S    
C7    C14   S    
C2    C41   A    
C23   O3    S    
C31   C32   S    
C4    O13   A    
C30   H18   S    
C29   H17   S    
C32   H26   S    
C22   H41   S    
C19   C38   A    
C35   H29   S    
C27   H10   S    
C15   C17   S    
C28   H13   S    
C41   O6    S    
C24   H3    S    
C25   H6    S    
C6    C13   S    
C27   O4    S    
C37   H35   S    
C26   H9    S    
C21   H39   S    
C27   H11   S    
C20   H34   S    
C24   H2    S    
C5    C15   S    
Cu2   O14   S    
Cu2   O13   S    
C31   H22   S    
Cu1   Cu2   S    
C36   H32   S    
C20   O16   S    
C31   O6    S    
C29   O5    S    
C40   N2    A    
C33   H27   S    
C8    O2    S    
C40   C42   A    
C19   H12   S    
Cu1   O11   S    
C35   H30   S    
Br1   C5    S    
C20   C21   S    
C30   H20   S    
C25   O3    S    
C42   N1    A    
C37   H36   S    
C26   H8    S    
C21   H40   S    
C2    O8    S    
C25   C26   S    
C40   O5    S    
C12   O11   A    
C27   C28   S    
C8    C11   S    
Cu2   O10   S    
C29   C30   S    
Cu1   O1    S    
C3    O14   A    
C5    C7    S    
C6    C8    S    
C18   H1    S    
C36   C37   S    
C33   H28   S    
Cu1   O15   S    
C18   C23   A    
Br2   C6    S    
C4    O15   A    
C12   C38   S    
C33   O7    S    
C10   C17   T    
C1    O10   A    
C7    C13   S    
C4    C10   S    
Cu1   O12   S    
C9    C16   T    
Cu1   N1    S    
C36   H33   S    
C28   H15   S    
C30   H19   S    
C36   O8    S    
C1    O1    A    
C22   H42   S    
C19   C34   A    
C37   H37   S    
C26   H7    S    
C22   C24   S    
C3    O12   A    
Br4   C11   S    
C5    C11   S    
C28   H14   S    
C34   C39   A    
C33   C35   S    
C24   H4    S    
C23   C38   A    
C25   H5    S    
C6    C14   S    
C29   H16   S    
C2    N2    A    
Cu2   O9    S    
C8    C15   S    
C21   H38   S    
C13   C15   S    
Br3   C13   S    
C14   C16   S    
C1    C39   S    
C41   N1    A    
C32   H25   S    
C12   O9    A    
C3    C9    S    
C31   H21   S    
Cu2   N2    S    
C34   O4    S    
C7    O16   S    
C18   C39   A    
C32   H24   S    
C20   H23   S    
C35   H31   S    
