data_mof_unit_41737.cif
_audit_creation_date              2012-12-10T19:19:24-0500
_audit_creation_method            fapswitch 2.2
_symmetry_space_group_name_H-M    P1
_symmetry_Int_Tables_number       1
_space_group_crystal_system       triclinic
_cell_length_a                    15.98766
_cell_length_b                    14.738832
_cell_length_c                    23.441277
_cell_angle_alpha                 90.486094
_cell_angle_beta                  89.497731
_cell_angle_gamma                 89.639648
_cell_volume                      5523.16639052

loop_
_atom_site_label
_atom_site_type_symbol
_atom_type_description
_atom_site_fract_x
_atom_site_fract_y
_atom_site_fract_z
_atom_type_partial_charge
C1    C     C_R   0.340772 0.500302 0.499836 0.806398
C2    C     C_R   0.659042 0.499664 0.500225 0.823230
C3    C     C_R   0.563582 0.435696 0.240664 -0.306063
C4    C     C_R   0.461294 0.555817 0.764278 -0.270642
C5    C     C_R   0.559510 0.437225 0.300093 0.368974
C6    C     C_R   0.457240 0.559333 0.704768 0.332910
C7    C     C_R   0.504121 0.497826 0.328190 -0.303410
C8    C     C_R   0.508362 0.500862 0.671549 -0.273847
C9    C     C_R   0.453012 0.556791 0.296109 0.269991
C10   C     C_R   0.567585 0.443920 0.697906 0.230650
C11   C     C_R   0.463288 0.560026 0.236375 0.395882
C12   C     C_R   0.575180 0.446259 0.757750 0.377721
C13   C     C_R   0.516608 0.497009 0.208960 0.152102
C14   C     C_R   0.519517 0.499428 0.790631 0.158432
C15   C     C_R   0.954292 0.575086 0.521616 0.289576
C16   C     C_R   0.044127 0.426957 0.474777 0.321428
C17   C     C_R   0.042051 0.574841 0.522667 0.299213
C18   C     C_R   0.956654 0.423101 0.479529 0.286864
C19   C     C_R   0.912122 0.498464 0.500987 -0.189390
C20   C     C_R   0.086810 0.501662 0.498131 -0.199560
C21   C     C_1   0.822669 0.497883 0.501164 0.096135
C22   C     C_1   0.176573 0.501737 0.498521 0.090881
C23   C     C_1   0.251636 0.501128 0.499115 -0.185767
C24   C     C_1   0.747813 0.498640 0.500823 -0.185640
C25   C     C_R   0.500827 0.499534 0.390726 0.868987
C26   C     C_R   0.501663 0.500342 0.609244 0.935414
C27   C     C_R   0.513932 0.952870 0.550413 0.292419
C28   C     C_R   0.504328 0.047240 0.446800 0.327954
C29   C     C_R   0.503639 0.950773 0.447138 0.338274
C30   C     C_R   0.507646 0.049063 0.550495 0.304699
C31   C     C_R   0.506669 0.902792 0.499140 -0.295471
C32   C     C_R   0.504698 0.097165 0.498781 -0.289453
C33   C     C_1   0.502650 0.802647 0.499799 0.281533
C34   C     C_1   0.501579 0.197315 0.499529 0.262325
C35   C     C_R   0.568038 0.560250 0.880186 0.579912
C36   C     C_R   0.478398 0.429276 0.119051 0.607897
C37   C     C_R   0.482543 0.428180 0.879323 0.642730
C38   C     C_R   0.573754 0.552984 0.120468 0.612197
C39   C     C_R   0.488617 0.419934 0.939040 -0.177593
C40   C     C_R   0.577559 0.553765 0.060378 -0.151021
C41   C     C_R   0.533695 0.486666 0.969511 -0.135904
C42   C     C_R   0.533711 0.486206 0.029793 -0.134914
C43   C     C_R   0.577005 0.555253 0.939785 -0.153700
C44   C     C_R   0.488003 0.419557 0.059531 -0.173914
C45   C     C_R   0.451808 0.346895 0.969008 0.375404
C46   C     C_R   0.623846 0.619618 0.030254 0.346512
C47   C     C_R   0.452518 0.346220 0.028934 0.384498
C48   C     C_R   0.627523 0.616976 0.970447 0.362804
Cu1   Cu    Cu3+1 0.500000 0.589220 0.500000 0.988163
Cu2   Cu    Cu3+1 0.500000 0.410780 0.500000 0.994100
H1    H     H_    0.604260 0.387234 0.218982 0.168474
H2    H     H_    0.419218 0.597195 0.790130 0.178299
N1    N     N_R   0.522890 0.496431 0.851627 -0.426717
N2    N     N_R   0.522415 0.493695 0.147962 -0.424787
N3    N     N_1   0.500000 0.276710 0.500000 -0.170394
N4    N     N_1   0.500000 0.723290 0.500000 -0.166432
O1    O     O_R   0.380310 0.575320 0.500010 -0.563854
O2    O     O_R   0.619690 0.424680 0.499990 -0.572450
O3    O     O_R   0.619690 0.575320 0.499990 -0.588254
O4    O     O_R   0.380310 0.424680 0.500010 -0.571446
O5    O     O_R   0.499980 0.575360 0.417880 -0.562550
O6    O     O_R   0.500020 0.424640 0.582120 -0.576716
O7    O     O_R   0.500020 0.575360 0.582120 -0.569898
O8    O     O_R   0.499980 0.424640 0.417880 -0.542115
O9    O     O_2   0.602423 0.629165 0.850820 -0.542850
O10   O     O_2   0.424185 0.376536 0.147921 -0.513707
O11   O     O_2   0.435560 0.369914 0.848870 -0.509279
O12   O     O_2   0.620680 0.610560 0.151485 -0.533497
O13   O     O_3   0.409299 0.278676 0.940612 -0.510937
C49   C     C_3   0.466790 0.210914 0.922220 0.120752
H3    H     H_    0.486803 0.169039 0.958725 0.120375
H4    H     H_    0.523311 0.239940 0.901160 0.139961
C50   C     C_3   0.424278 0.148410 0.879545 -0.720065
H5    H     H_    0.404181 0.187321 0.841640 0.273532
H6    H     H_    0.468547 0.094178 0.865447 0.181842
H7    H     H_    0.368684 0.116547 0.899621 0.241719
O14   O     O_3   0.669832 0.684448 0.059005 -0.536806
C51   C     C_3   0.622546 0.765617 0.062243 0.140168
H8    H     H_    0.559363 0.753783 0.081080 0.129448
H9    H     H_    0.615602 0.796013 0.019224 0.161499
C52   C     C_3   0.667618 0.833147 0.100307 -0.769901
H10   H     H_    0.730584 0.847701 0.082341 0.245137
H11   H     H_    0.631187 0.897349 0.103206 0.191817
H12   H     H_    0.674432 0.805019 0.143844 0.266170
O15   O     O_3   0.416358 0.273441 0.056624 -0.540974
C53   C     C_3   0.480113 0.214799 0.076655 0.089880
H13   H     H_    0.505959 0.241116 0.117342 0.171246
H14   H     H_    0.533208 0.207247 0.045770 0.076858
C54   C     C_3   0.442681 0.121302 0.087450 -0.283963
H15   H     H_    0.391278 0.127562 0.119513 0.239944
H16   H     H_    0.416144 0.094195 0.047130 0.219165
C55   C     C_3   0.508402 0.054883 0.109250 -0.965480
H17   H     H_    0.559883 0.046812 0.077446 0.253168
H18   H     H_    0.479339 0.987628 0.116295 0.257752
H19   H     H_    0.534464 0.079565 0.150288 0.263890
O16   O     O_3   0.678670 0.678527 0.942842 -0.569457
C56   C     C_3   0.753218 0.634565 0.924046 0.119842
H20   H     H_    0.776376 0.671455 0.885969 0.178182
H21   H     H_    0.743495 0.562895 0.909959 0.116750
C57   C     C_3   0.820427 0.638469 0.970180 -0.349606
H22   H     H_    0.828783 0.709891 0.984528 0.246018
H23   H     H_    0.800535 0.597473 0.007387 0.237776
C58   C     C_3   0.903845 0.601196 0.947837 -0.927204
H24   H     H_    0.896938 0.529472 0.933775 0.257673
H25   H     H_    0.951013 0.604094 0.982280 0.269961
H26   H     H_    0.926541 0.642269 0.911394 0.257715
O17   O     O_3   0.607444 0.376592 0.330653 -0.559859
C59   C     C_3   0.688574 0.412526 0.336399 0.062670
H27   H     H_    0.719212 0.421162 0.293929 0.147203
H28   H     H_    0.686541 0.479093 0.359347 0.126751
C60   C     C_3   0.741614 0.347374 0.370860 -0.779734
H29   H     H_    0.713068 0.337858 0.413696 0.253761
H30   H     H_    0.746250 0.280611 0.348726 0.231183
H31   H     H_    0.805410 0.375418 0.375812 0.236541
O18   O     O_3   0.398880 0.614969 0.679107 -0.569467
C61   C     C_3   0.428681 0.704990 0.680594 0.114465
H32   H     H_    0.490209 0.709891 0.658239 0.167728
H33   H     H_    0.434993 0.730036 0.725306 0.138060
C62   C     C_3   0.367127 0.766569 0.650307 -0.752541
H34   H     H_    0.305908 0.765475 0.672800 0.236828
H35   H     H_    0.390487 0.837292 0.650568 0.229065
H36   H     H_    0.359126 0.743548 0.605447 0.257689
O19   O     O_3   0.395251 0.614107 0.322477 -0.591695
C63   C     C_3   0.324766 0.564683 0.341759 0.121301
H37   H     H_    0.298511 0.602342 0.379127 0.140621
H38   H     H_    0.340055 0.495737 0.358014 0.102107
C64   C     C_3   0.256426 0.560314 0.296086 -0.377367
H39   H     H_    0.194076 0.564513 0.317369 0.163733
H40   H     H_    0.261600 0.619177 0.266964 0.264143
C65   C     C_3   0.260035 0.471972 0.261528 -0.761905
H41   H     H_    0.320662 0.464159 0.238822 0.293451
H42   H     H_    0.209563 0.472120 0.229314 0.247732
H43   H     H_    0.251014 0.412996 0.290050 0.225849
O20   O     O_3   0.626258 0.397663 0.664680 -0.617511
C66   C     C_3   0.613634 0.302846 0.667384 0.147650
H44   H     H_    0.576745 0.281468 0.629681 0.189408
H45   H     H_    0.579657 0.280378 0.706546 0.154245
C67   C     C_3   0.698858 0.255173 0.665247 -0.352163
H46   H     H_    0.735592 0.280053 0.628102 0.219231
H47   H     H_    0.733729 0.271740 0.704736 0.229748
C68   C     C_3   0.690105 0.152406 0.660193 -0.888374
H48   H     H_    0.647980 0.126222 0.694121 0.271334
H49   H     H_    0.752436 0.119730 0.664629 0.241154
H50   H     H_    0.665041 0.134098 0.617673 0.284520
O21   O     O_3   0.413323 0.615621 0.203543 -0.558501
C69   C     C_3   0.440511 0.706264 0.208773 0.085306
H51   H     H_    0.509710 0.711929 0.204130 0.165072
H52   H     H_    0.420801 0.735613 0.250603 0.195398
C70   C     C_3   0.400458 0.762435 0.162149 -0.794704
H53   H     H_    0.331355 0.762521 0.167451 0.256131
H54   H     H_    0.423202 0.833384 0.164648 0.197982
H55   H     H_    0.416899 0.733468 0.119599 0.244465
O22   O     O_3   0.634219 0.393277 0.784782 -0.578105
C71   C     C_3   0.711220 0.439710 0.785014 0.072740
H56   H     H_    0.703959 0.511343 0.799868 0.161128
H57   H     H_    0.739837 0.439135 0.741589 0.178219
C72   C     C_3   0.770651 0.392249 0.825491 -0.831108
H58   H     H_    0.781472 0.321074 0.811195 0.253047
H59   H     H_    0.831431 0.428285 0.826263 0.204405
H60   H     H_    0.743539 0.392318 0.869293 0.245951
O23   O     O_3   0.083778 0.648684 0.545053 -0.585375
C73   C     C_3   0.091816 0.636689 0.604466 0.107445
H61   H     H_    0.137931 0.581584 0.613008 0.144008
H62   H     H_    0.030781 0.619477 0.625032 0.159068
C74   C     C_3   0.122843 0.724941 0.631160 -0.321898
H63   H     H_    0.183674 0.743427 0.611312 0.227303
H64   H     H_    0.077090 0.780204 0.622654 0.226746
C75   C     C_3   0.133529 0.715817 0.695503 -0.930882
H65   H     H_    0.072940 0.698490 0.716116 0.258401
H66   H     H_    0.155536 0.781159 0.713679 0.255276
H67   H     H_    0.180388 0.662167 0.704994 0.276331
O24   O     O_3   0.914118 0.348158 0.459338 -0.608845
C76   C     C_3   0.909226 0.283232 0.503144 0.103802
H68   H     H_    0.881228 0.313311 0.542833 0.127124
H69   H     H_    0.972686 0.255908 0.512619 0.175051
C77   C     C_3   0.853627 0.205242 0.483382 -0.338568
H70   H     H_    0.789408 0.231438 0.475783 0.217963
H71   H     H_    0.878671 0.176479 0.442650 0.225884
C78   C     C_3   0.849266 0.130213 0.527741 -0.948557
H72   H     H_    0.912312 0.100272 0.534439 0.263389
H73   H     H_    0.806717 0.075925 0.512707 0.255172
H74   H     H_    0.824811 0.157667 0.568885 0.262236
O25   O     O_3   0.909916 0.646350 0.546344 -0.590443
C79   C     C_3   0.889816 0.710081 0.503872 0.103178
H75   H     H_    0.862013 0.676808 0.465590 0.125786
H76   H     H_    0.947105 0.747376 0.490736 0.164962
C80   C     C_3   0.825719 0.777609 0.528470 -0.318523
H77   H     H_    0.769440 0.740182 0.543170 0.224013
H78   H     H_    0.852980 0.813366 0.565818 0.221527
C81   C     C_3   0.799284 0.847488 0.484328 -0.978250
H79   H     H_    0.854239 0.887071 0.469736 0.266956
H80   H     H_    0.752656 0.895007 0.503661 0.240690
H81   H     H_    0.770297 0.813303 0.447066 0.254525
O26   O     O_3   0.087706 0.354280 0.450978 -0.586880
C82   C     C_3   0.108632 0.373343 0.393467 0.086051
H82   H     H_    0.166884 0.335066 0.382868 0.167275
H83   H     H_    0.122882 0.446357 0.385925 0.111593
C83   C     C_3   0.039224 0.341420 0.353387 -0.320633
H84   H     H_    0.024105 0.269405 0.362394 0.241283
H85   H     H_    0.982066 0.383249 0.360633 0.231871
C84   C     C_3   0.065200 0.350019 0.290939 -0.940676
H86   H     H_    0.077830 0.422103 0.280737 0.261312
H87   H     H_    0.013828 0.325687 0.263273 0.264051
H88   H     H_    0.121980 0.308397 0.281809 0.267109
O27   O     O_3   0.508997 0.096646 0.601585 -0.577111
C85   C     C_3   0.428223 0.094679 0.626378 0.114779
H89   H     H_    0.411209 0.024396 0.638811 0.173683
H90   H     H_    0.380362 0.121620 0.596506 0.134925
C86   C     C_3   0.426794 0.153780 0.679890 -0.807224
H91   H     H_    0.437877 0.225676 0.668460 0.238122
H92   H     H_    0.364805 0.148913 0.701342 0.210150
H93   H     H_    0.475903 0.130925 0.709866 0.248050
O28   O     O_3   0.494295 0.903933 0.396202 -0.522293
C87   C     C_3   0.573788 0.874554 0.376417 0.100521
H94   H     H_    0.608293 0.835723 0.409422 0.119374
H95   H     H_    0.612188 0.933414 0.363150 0.138241
C88   C     C_3   0.562739 0.812650 0.324840 -0.784142
H96   H     H_    0.530211 0.849828 0.290403 0.241749
H97   H     H_    0.624816 0.789403 0.308664 0.192977
H98   H     H_    0.525364 0.752412 0.336938 0.271370
O29   O     O_3   0.497310 0.091144 0.395031 -0.533200
C89   C     C_3   0.575220 0.129277 0.379543 0.084156
H99   H     H_    0.629522 0.085566 0.391301 0.088403
H100  H     H_    0.582648 0.196771 0.400223 0.178599
C90   C     C_3   0.577744 0.142625 0.315269 -0.702168
H101  H     H_    0.526378 0.188948 0.302282 0.268795
H102  H     H_    0.638461 0.172767 0.302439 0.198953
H103  H     H_    0.570576 0.076302 0.293044 0.230692
O30   O     O_3   0.525130 0.908405 0.601467 -0.577302
C91   C     C_3   0.611945 0.899176 0.611018 0.092664
H104  H     H_    0.647223 0.962166 0.600676 0.146212
H105  H     H_    0.637625 0.842033 0.584803 0.137125
C92   C     C_3   0.626567 0.879004 0.673662 -0.771188
H106  H     H_    0.595752 0.814647 0.685662 0.231449
H107  H     H_    0.694716 0.872492 0.681570 0.200626
H108  H     H_    0.600840 0.935113 0.700598 0.254578

loop_
_geom_bond_atom_site_label_1
_geom_bond_atom_site_label_2
_ccdc_geom_bond_type
C66   C67   S    
C38   C40   A    
C51   H8    S    
C74   H63   S    
Cu1   O7    S    
C52   H12   S    
C35   N1    A    
C8    C26   S    
C41   C42   A    
C60   H29   S    
C51   C52   S    
C12   O22   S    
O25   C79   S    
C90   H103  S    
C91   H105  S    
C52   H10   S    
C84   H87   S    
O19   C63   S    
C39   C41   A    
O14   C51   S    
C79   H75   S    
C88   H98   S    
C40   C46   A    
C72   H58   S    
C4    H2    S    
Cu2   O8    S    
C47   O15   S    
C28   C29   A    
C19   C21   S    
C69   H51   S    
C70   H54   S    
C79   H76   S    
C53   H14   S    
C62   H36   S    
C35   O9    S    
O18   C61   S    
C69   C70   S    
C56   H20   S    
C17   C20   A    
Cu1   O1    S    
C59   H27   S    
C91   C92   S    
C66   H45   S    
C18   C19   A    
C50   H5    S    
O29   C89   S    
C55   H17   S    
C80   C81   S    
C87   H95   S    
C81   H81   S    
C90   H102  S    
C15   C19   A    
C27   O30   S    
C75   H67   S    
C60   H30   S    
C61   H33   S    
C28   O29   S    
C38   O12   S    
C15   O25   S    
O17   C59   S    
C31   C33   S    
C49   H3    S    
C54   H16   S    
C35   C43   A    
C43   C48   A    
C71   H57   S    
C3    C13   A    
C44   C47   A    
C39   C45   A    
C82   C83   S    
C37   N1    A    
C33   N4    T    
C75   H66   S    
O26   C82   S    
C34   N3    T    
C74   H64   S    
C76   H68   S    
C27   C30   A    
C76   H69   S    
C41   C43   A    
C91   H104  S    
C42   C44   A    
C49   C50   S    
C55   H18   S    
C84   H86   S    
C52   H11   S    
C86   H93   S    
O21   C69   S    
C69   H52   S    
C45   C47   A    
C37   C39   A    
C46   C48   A    
Cu1   O5    S    
C27   C31   A    
Cu2   O2    S    
C61   C62   S    
C66   H44   S    
C16   O26   S    
C68   H50   S    
C71   C72   S    
C4    C6    A    
C56   H21   S    
C70   H55   S    
C5    C7    A    
C3    H1    S    
C85   H89   S    
C11   O21   S    
C6    C8    A    
C89   C90   S    
C88   H96   S    
O15   C53   S    
C30   O27   S    
C45   O13   S    
C67   C68   S    
C57   C58   S    
C82   H82   S    
C25   O8    A    
C32   C34   S    
C58   H26   S    
C65   H42   S    
C26   O7    A    
C64   H40   S    
C81   H79   S    
O30   C91   S    
C1    O1    A    
C73   C74   S    
C9    C11   A    
C36   O10   S    
C29   O28   S    
C86   H91   S    
C38   N2    A    
C28   C32   A    
C16   C20   A    
O16   C56   S    
C83   C84   S    
C57   H23   S    
C90   H101  S    
C58   H25   S    
C16   C18   A    
C25   O5    A    
C54   C55   S    
C89   H100  S    
C92   H107  S    
C71   H56   S    
C83   H84   S    
C62   H35   S    
C10   C12   A    
C63   C64   S    
C9    O19   S    
C8    C10   A    
C77   H70   S    
C2    O3    A    
C12   C14   A    
C1    C23   S    
C72   H60   S    
C2    C24   S    
Cu2   O6    S    
C84   H88   S    
C36   C44   A    
C65   H43   S    
C88   H97   S    
C77   C78   S    
C50   H6    S    
C64   H39   S    
C54   H15   S    
C56   C57   S    
O24   C76   S    
C53   H13   S    
C63   H38   S    
C73   H61   S    
C5    O17   S    
C76   C77   S    
C15   C17   A    
O27   C85   S    
C75   H65   S    
C81   H80   S    
C48   O16   S    
C87   H94   S    
C17   O23   S    
C10   O20   S    
C20   C22   S    
C3    C5    A    
C53   C54   S    
C7    C25   S    
C46   O14   S    
C83   H85   S    
C62   H34   S    
C2    O2    A    
O20   C66   S    
C67   H47   S    
C18   O24   S    
C74   C75   S    
Cu1   N4    S    
C13   N2    S    
Cu2   N3    S    
Cu1   O3    S    
C59   C60   S    
C79   C80   S    
C78   H74   S    
C68   H49   S    
C65   H41   S    
C26   O6    A    
C64   C65   S    
Cu2   O4    S    
C80   H77   S    
C29   C31   A    
C73   H62   S    
O23   C73   S    
C70   H53   S    
C30   C32   A    
C11   C13   A    
C85   C86   S    
O28   C87   S    
C37   O11   S    
C40   C42   A    
C57   H22   S    
C86   H92   S    
C59   H28   S    
C61   H32   S    
C60   H31   S    
C51   H9    S    
C87   C88   S    
C4    C14   A    
O13   C49   S    
C1    O4    A    
C92   H108  S    
C6    O18   S    
C80   H78   S    
C36   N2    A    
C67   H46   S    
C78   H72   S    
C7    C9    A    
C14   N1    S    
C50   H7    S    
C55   H19   S    
C72   H59   S    
Cu1   Cu2   S    
C21   C24   T    
C58   H24   S    
C22   C23   T    
C63   H37   S    
C49   H4    S    
C82   H83   S    
O22   C71   S    
C68   H48   S    
C85   H90   S    
C89   H99   S    
C92   H106  S    
C77   H71   S    
C78   H73   S    
