data_mof_unit_56330.cif
_audit_creation_date              2013-03-05T15:48:50-0500
_audit_creation_method            fapswitch 2.2
_symmetry_space_group_name_H-M    P1
_symmetry_Int_Tables_number       1
_space_group_crystal_system       triclinic
_cell_length_a                    17.723224
_cell_length_b                    24.28251
_cell_length_c                    15.399087
_cell_angle_alpha                 90.059986
_cell_angle_beta                  126.308936
_cell_angle_gamma                 90.059904
_cell_volume                      5340.43634555

loop_
_atom_site_label
_atom_site_type_symbol
_atom_site_description
_atom_site_fract_x
_atom_site_fract_y
_atom_site_fract_z
_atom_type_partial_charge
C1    C     C_R   0.901381 0.878364 0.090847 -0.023063
C2    C     C_R   0.900715 0.121874 0.089862 -0.067107
C3    C     C_R   0.401381 0.378365 0.090848 -0.023024
C4    C     C_R   0.400713 0.621875 0.089859 -0.067286
H1    H     H_    0.929912 0.870235 0.173897 0.160015
H2    H     H_    0.929064 0.130648 0.172377 0.191898
H3    H     H_    0.429913 0.370237 0.173898 0.159992
H4    H     H_    0.429060 0.630647 0.172375 0.191986
N1    N     N_R   0.950530 0.896220 0.057200 -0.058181
N2    N     N_R   0.950530 0.103780 0.057200 -0.052686
N3    N     N_R   0.450530 0.396220 0.057200 -0.058175
N4    N     N_R   0.450530 0.603780 0.057200 -0.052573
C5    C     C_R   0.808634 0.119999 0.909425 -0.019517
C6    C     C_R   0.808505 0.880516 0.910661 -0.054266
C7    C     C_R   0.308633 0.620001 0.909422 -0.019424
C8    C     C_R   0.308505 0.380518 0.910662 -0.054374
H5    H     H_    0.748591 0.122356 0.827137 0.166830
H6    H     H_    0.747548 0.878985 0.829077 0.169115
H7    H     H_    0.248591 0.622358 0.827133 0.166856
H8    H     H_    0.247547 0.378987 0.829078 0.169113
N5    N     N_R   0.893330 0.103780 0.942800 -0.050805
N6    N     N_R   0.893330 0.896220 0.942800 -0.041589
N7    N     N_R   0.393330 0.603780 0.942800 -0.050714
N8    N     N_R   0.393330 0.396220 0.942800 -0.041568
C9    C     C_R   0.750430 0.953466 0.693097 0.381601
C10   C     C_R   0.750614 0.045733 0.692764 0.384575
C11   C     C_R   0.250431 0.453466 0.693097 0.381587
C12   C     C_R   0.250615 0.545733 0.692764 0.384517
N9    N     N_R   0.818150 0.971400 0.792440 -0.130911
N10   N     N_R   0.818150 0.028600 0.792440 -0.138137
N11   N     N_R   0.318150 0.471400 0.792440 -0.130935
N12   N     N_R   0.318150 0.528600 0.792440 -0.138187
C13   C     C_R   0.050836 0.046312 0.302264 0.454118
C14   C     C_R   0.049180 0.954148 0.302116 0.457626
C15   C     C_R   0.550839 0.546313 0.302265 0.454070
C16   C     C_R   0.549187 0.454148 0.302120 0.457611
N13   N     N_R   0.025710 0.028600 0.207560 -0.119285
N14   N     N_R   0.025710 0.971400 0.207560 -0.119627
N15   N     N_R   0.525710 0.528600 0.207560 -0.119329
N16   N     N_R   0.525710 0.471400 0.207560 -0.119649
C17   C     C_R   0.812975 0.865371 0.000376 0.093737
C18   C     C_R   0.812590 0.135180 0.998623 0.044009
C19   C     C_R   0.312973 0.365375 0.000379 0.093652
C20   C     C_R   0.312588 0.635181 0.998618 0.042193
C21   C     C_R   0.704806 0.999510 0.625119 -0.182486
C22   C     C_R   0.204808 0.499510 0.625119 -0.182444
C23   C     C_R   0.054127 0.000540 0.357504 -0.140662
C24   C     C_R   0.554136 0.500541 0.357509 -0.140642
C25   C     C_R   0.267806 0.953552 0.251994 -0.012556
C26   C     C_R   0.268300 0.045919 0.250534 0.006025
C27   C     C_R   0.767807 0.453552 0.252001 -0.012547
C28   C     C_R   0.768301 0.545919 0.250541 0.006051
H9    H     H_    0.288439 0.911000 0.269056 0.114791
H10   H     H_    0.290453 0.088312 0.266371 0.106338
H11   H     H_    0.788440 0.411000 0.269066 0.114777
H12   H     H_    0.790454 0.588312 0.266380 0.106333
N17   N     N_R   0.181850 0.971400 0.207560 -0.055065
N18   N     N_R   0.181850 0.028600 0.207560 -0.041661
N19   N     N_R   0.681850 0.471400 0.207560 -0.055059
N20   N     N_R   0.681850 0.528600 0.207560 -0.041656
C29   C     C_R   0.972594 0.047081 0.710838 0.377733
C30   C     C_R   0.972477 0.954909 0.708863 0.383263
C31   C     C_R   0.472603 0.547081 0.710844 0.377753
C32   C     C_R   0.472488 0.454908 0.708871 0.383288
N21   N     N_R   0.974290 0.028600 0.792440 -0.126507
N22   N     N_R   0.974290 0.971400 0.792440 -0.121806
N23   N     N_R   0.474290 0.528600 0.792440 -0.126503
N24   N     N_R   0.474290 0.471400 0.792440 -0.121801
C33   C     C_R   0.059942 0.848159 0.911081 0.104900
C34   C     C_R   0.058216 0.153076 0.913169 0.100353
C35   C     C_R   0.559949 0.348162 0.911080 0.104852
C36   C     C_R   0.558220 0.653073 0.913169 0.100347
H13   H     H_    0.014552 0.832438 0.830488 0.163067
H14   H     H_    0.009322 0.170833 0.835462 0.173249
H15   H     H_    0.514559 0.332439 0.830488 0.163073
H16   H     H_    0.509326 0.670832 0.835463 0.173253
N25   N     N_R   0.049470 0.896220 0.942800 -0.048810
N26   N     N_R   0.049470 0.103780 0.942800 -0.054422
N27   N     N_R   0.549470 0.396220 0.942800 -0.048810
N28   N     N_R   0.549470 0.603780 0.942800 -0.054427
C37   C     C_R   0.155525 0.150416 0.091816 -0.001997
C38   C     C_R   0.155069 0.849593 0.090783 -0.017733
C39   C     C_R   0.655532 0.650414 0.091816 -0.001963
C40   C     C_R   0.655077 0.349596 0.090783 -0.017704
H17   H     H_    0.203551 0.162564 0.174856 0.154909
H18   H     H_    0.201217 0.837107 0.173855 0.169718
H19   H     H_    0.703559 0.662563 0.174855 0.154889
H20   H     H_    0.701226 0.337110 0.173855 0.169707
N29   N     N_R   0.106670 0.103780 0.057200 -0.052381
N30   N     N_R   0.106670 0.896220 0.057200 -0.058291
N31   N     N_R   0.606670 0.603780 0.057200 -0.052377
N32   N     N_R   0.606670 0.396220 0.057200 -0.058290
Ni1   Ni    Ni4+2 0.065600 0.934400 0.131190 0.337816
Ni2   Ni    Ni4+2 0.065600 0.065600 0.131190 0.328450
Ni3   Ni    Ni4+2 0.565600 0.434400 0.131190 0.337794
Ni4   Ni    Ni4+2 0.565600 0.565600 0.131190 0.328415
Ni5   Ni    Ni4+2 0.934400 0.065600 0.868810 0.336434
Ni6   Ni    Ni4+2 0.934400 0.934400 0.868810 0.323615
Ni7   Ni    Ni4+2 0.434400 0.565600 0.868810 0.336397
Ni8   Ni    Ni4+2 0.434400 0.434400 0.868810 0.323588
C41   C     C_R   0.323734 0.999560 0.277469 0.081455
C42   C     C_R   0.823735 0.499560 0.277478 0.081438
C43   C     C_R   0.971288 0.001682 0.654887 -0.176611
C44   C     C_R   0.471305 0.501682 0.654898 -0.176628
C45   C     C_R   0.127688 0.819214 0.000630 -0.026601
C46   C     C_R   0.127135 0.181539 0.002900 -0.030687
C47   C     C_R   0.627701 0.319221 0.000629 -0.026553
C48   C     C_R   0.627146 0.681534 0.002899 -0.030689
C49   C     C_3   0.982931 0.059828 0.428484 0.098822
C50   C     C_3   0.942600 0.955809 0.392683 0.039844
C51   C     C_3   0.482943 0.559828 0.428493 0.098815
C52   C     C_3   0.442616 0.455809 0.392695 0.039690
H21   H     H_    0.046369 0.086370 0.469463 0.157907
H22   H     H_    0.970738 0.915417 0.391766 0.135489
H23   H     H_    0.546381 0.586370 0.469470 0.157907
H24   H     H_    0.470753 0.415416 0.391778 0.135495
C53   C     C_3   0.952431 0.058801 0.503072 0.090702
C54   C     C_3   0.932125 0.951690 0.486311 0.132678
C55   C     C_3   0.452445 0.558801 0.503083 0.090699
C56   C     C_3   0.432142 0.451689 0.486324 0.132659
H25   H     H_    0.996737 0.091557 0.560343 0.151346
H26   H     H_    0.975576 0.915329 0.532164 0.140908
H27   H     H_    0.496752 0.591557 0.560353 0.151350
H28   H     H_    0.475594 0.415329 0.532177 0.140924
H29   H     H_    0.168375 0.014446 0.561901 0.260679
H30   H     H_    0.129673 0.944710 0.544020 0.261191
H31   H     H_    0.668387 0.514448 0.561907 0.260670
H32   H     H_    0.629689 0.444712 0.544029 0.261191
H33   H     H_    0.126462 0.034066 0.671158 0.253450
H34   H     H_    0.119886 0.961957 0.680447 0.266278
H35   H     H_    0.626478 0.534067 0.671168 0.253450
H36   H     H_    0.619903 0.461957 0.680457 0.266279
C57   C     C_3   0.107886 0.988135 0.539601 -0.396837
C58   C     C_3   0.607900 0.488136 0.539609 -0.396824
C59   C     C_3   0.019199 0.001311 0.424281 -0.051240
C60   C     C_3   0.519211 0.501310 0.424290 -0.051216
C61   C     C_3   0.981396 0.002392 0.565854 -0.022204
C62   C     C_3   0.481412 0.502392 0.565866 -0.022191
C63   C     C_3   0.088591 0.996642 0.622806 -0.501953
C64   C     C_3   0.588607 0.496642 0.622815 -0.501937
C65   C     C_3   0.677420 0.199015 0.879722 -0.285527
C66   C     C_3   0.679277 0.800512 0.882779 -0.301241
C67   C     C_3   0.177386 0.698997 0.879719 -0.285495
C68   C     C_3   0.179260 0.300525 0.882785 -0.301283
H37   H     H_    0.707915 0.212265 0.837429 0.237625
H38   H     H_    0.710933 0.786658 0.842051 0.232512
H39   H     H_    0.207860 0.712245 0.837402 0.237634
H40   H     H_    0.210904 0.286672 0.842042 0.232518
H41   H     H_    0.628747 0.164419 0.832243 0.217964
H42   H     H_    0.630748 0.834690 0.833622 0.217632
H43   H     H_    0.128715 0.664397 0.832264 0.217903
H44   H     H_    0.130735 0.334706 0.833641 0.217606
C69   C     C_3   0.123079 0.747184 0.881222 -0.370057
C70   C     C_3   0.124575 0.252650 0.884348 -0.355849
C71   C     C_3   0.623108 0.247200 0.881217 -0.369987
C72   C     C_3   0.624592 0.752638 0.884343 -0.355821
H45   H     H_    0.550476 0.233663 0.847138 0.194781
H46   H     H_    0.551888 0.766304 0.849259 0.201234
H47   H     H_    0.050451 0.733645 0.847163 0.194788
H48   H     H_    0.051873 0.266317 0.849273 0.201198
H49   H     H_    0.116852 0.779571 0.826605 0.265957
H50   H     H_    0.118745 0.219676 0.830700 0.265908
H51   H     H_    0.616897 0.279592 0.826615 0.265972
H52   H     H_    0.618768 0.719661 0.830703 0.265912
H53   H     H_    0.367298 0.735778 0.021843 0.245299
H54   H     H_    0.368058 0.264525 0.025986 0.244139
H55   H     H_    0.867333 0.235779 0.021889 0.245313
H56   H     H_    0.868086 0.764525 0.026026 0.244126
C73   C     C_3   0.326633 0.730001 0.055223 -0.527344
C74   C     C_3   0.327485 0.270829 0.059348 -0.539252
C75   C     C_3   0.826654 0.230003 0.055252 -0.527849
C76   C     C_3   0.827494 0.770828 0.059365 -0.539319
C77   C     C_3   0.713168 0.167365 0.057526 0.221339
C78   C     C_3   0.713476 0.833551 0.060100 0.240230
C79   C     C_3   0.213174 0.667356 0.057542 0.220390
C80   C     C_3   0.213501 0.333553 0.060137 0.240118
C81   C     C_3   0.756535 0.180900 0.996799 0.023301
C82   C     C_3   0.757292 0.819618 0.999680 0.020293
C83   C     C_3   0.256521 0.680892 0.996793 0.023804
C84   C     C_3   0.257290 0.319624 0.999686 0.020255
H57   H     H_    0.770854 0.154796 0.140119 0.178489
H58   H     H_    0.771140 0.846866 0.143222 0.147858
H59   H     H_    0.270872 0.654790 0.140131 0.178573
H60   H     H_    0.271184 0.346847 0.143265 0.147851
C85   C     C_3   0.172756 0.768721 0.998857 -0.096968
C86   C     C_3   0.173113 0.231931 0.002071 -0.065278
C87   C     C_3   0.672768 0.268729 0.998854 -0.096987
C88   C     C_3   0.673122 0.731924 0.002069 -0.065298
C89   C     C_3   0.276818 0.782893 0.047340 0.459645
C90   C     C_3   0.277710 0.218090 0.052855 0.449187
C91   C     C_3   0.776839 0.282896 0.047365 0.459893
C92   C     C_3   0.777722 0.718086 0.052864 0.449227
C93   C     C_3   0.165747 0.720327 0.062291 0.002577
C94   C     C_3   0.165510 0.280600 0.064504 -0.036746
C95   C     C_3   0.665731 0.220333 0.062261 0.002278
C96   C     C_3   0.665509 0.780594 0.064493 -0.036816
H61   H     H_    0.589651 0.212378 0.020177 0.179574
H62   H     H_    0.589274 0.788387 0.021421 0.164006
H63   H     H_    0.089671 0.712373 0.020235 0.179566
H64   H     H_    0.089277 0.288405 0.021425 0.163916
H65   H     H_    0.379050 0.720722 0.142325 0.203857
H66   H     H_    0.379921 0.280749 0.146222 0.191605
H67   H     H_    0.879057 0.220719 0.142354 0.203893
H68   H     H_    0.879913 0.780753 0.146239 0.191636
H69   H     H_    0.311969 0.799744 0.129964 0.106207
H70   H     H_    0.312046 0.202525 0.136088 0.096287
H71   H     H_    0.811980 0.299743 0.129990 0.106168
H72   H     H_    0.812053 0.702520 0.136095 0.096286
C97   C     C_3   0.473073 0.945877 0.356468 0.126411
C98   C     C_3   0.475635 0.049979 0.349333 0.125444
C99   C     C_3   0.973074 0.445878 0.356471 0.126402
C100  C     C_3   0.975634 0.549980 0.349340 0.125439
H73   H     H_    0.441124 0.909846 0.368122 0.089837
H74   H     H_    0.445582 0.088336 0.356874 0.085413
H75   H     H_    0.941125 0.409846 0.368123 0.089826
H76   H     H_    0.945583 0.588337 0.356885 0.085411
C101  C     C_3   0.577426 0.946951 0.454043 -0.338289
C102  C     C_3   0.580900 0.048648 0.446246 -0.345475
C103  C     C_3   0.077427 0.446952 0.454045 -0.338284
C104  C     C_3   0.080900 0.548648 0.446249 -0.345479
H77   H     H_    0.625042 0.942898 0.430333 0.276061
H78   H     H_    0.628416 0.046614 0.421837 0.271069
H79   H     H_    0.125043 0.442898 0.430335 0.276058
H80   H     H_    0.128414 0.546615 0.421838 0.271066
H81   H     H_    0.584095 0.911096 0.500583 0.227893
H82   H     H_    0.591342 0.087853 0.486393 0.228719
H83   H     H_    0.084097 0.411096 0.500585 0.227890
H84   H     H_    0.091344 0.587854 0.486397 0.228718
H85   H     H_    0.405094 0.967121 0.476926 0.215373
H86   H     H_    0.405708 0.040755 0.471497 0.217541
H87   H     H_    0.905100 0.467118 0.476935 0.215365
H88   H     H_    0.905710 0.540753 0.471507 0.217538
H89   H     H_    0.557180 0.968606 0.617738 0.201066
H90   H     H_    0.558256 0.042272 0.610259 0.209406
H91   H     H_    0.057187 0.468605 0.617745 0.201050
H92   H     H_    0.058261 0.542272 0.610266 0.209388
C105  C     C_3   0.439429 0.002929 0.468074 -0.441582
C106  C     C_3   0.939432 0.502928 0.468082 -0.441559
C107  C     C_3   0.426164 0.999553 0.358647 0.012325
C108  C     C_3   0.926165 0.499554 0.358655 0.012338
C109  C     C_3   0.604428 0.999749 0.523751 0.178071
C110  C     C_3   0.104430 0.499749 0.523754 0.178075
C111  C     C_3   0.542468 0.003664 0.563165 -0.391810
C112  C     C_3   0.042472 0.503663 0.563172 -0.391859
N33   N     N_R   0.912999 0.087746 0.326283 0.254977
O1    O     O_R   0.862141 0.062126 0.234681 -0.399384
O2    O     O_R   0.901981 0.140583 0.328004 -0.298142
N34   N     N_R   0.854919 0.961675 0.282471 0.290179
O3    O     O_R   0.856336 0.953107 0.200267 -0.417615
O4    O     O_R   0.773526 0.969106 0.262549 -0.167695
N35   N     N_R   0.413008 0.587745 0.326293 0.254965
O5    O     O_R   0.362144 0.562124 0.234693 -0.399312
O6    O     O_R   0.401998 0.640583 0.328013 -0.298137
N36   N     N_R   0.354933 0.461673 0.282485 0.290259
O7    O     O_R   0.356351 0.453109 0.200280 -0.417396
O8    O     O_R   0.273541 0.469104 0.262564 -0.167375
N37   N     N_R   0.854990 0.077021 0.450223 0.295108
O9    O     O_R   0.839745 0.129190 0.452692 -0.220113
O10   O     O_R   0.784792 0.047736 0.375745 -0.220433
N38   N     N_R   0.837524 0.937203 0.452447 0.307053
O11   O     O_R   0.801276 0.890347 0.403743 -0.231512
O12   O     O_R   0.795685 0.965014 0.484797 -0.335144
N39   N     N_R   0.355005 0.577020 0.450235 0.295105
O13   O     O_R   0.339758 0.629189 0.452698 -0.220111
O14   O     O_R   0.284806 0.547733 0.375763 -0.220411
N40   N     N_R   0.337542 0.437201 0.452462 0.307040
O15   O     O_R   0.301295 0.390345 0.403759 -0.231490
O16   O     O_R   0.295702 0.465011 0.484812 -0.335132
S1    S     S_3+6 0.294793 0.835021 0.976527 0.030883
O17   O     O_2   0.240996 0.886501 0.960294 -0.207035
O18   O     O_2   0.397420 0.848777 0.043940 -0.203214
O19   O     O_3   0.263232 0.811869 0.856303 -0.518990
H93   H     H_    0.277816 0.842504 0.826001 0.408696
S2    S     S_3+6 0.297765 0.164660 0.986146 0.030953
O20   O     O_2   0.400640 0.151693 0.055644 -0.176527
O21   O     O_2   0.244521 0.113204 0.972061 -0.206631
O22   O     O_3   0.267042 0.185817 0.865269 -0.523221
H94   H     H_    0.284700 0.155138 0.838194 0.411523
S3    S     S_3+6 0.794834 0.335027 0.976572 0.030853
O23   O     O_2   0.741023 0.386503 0.960315 -0.207044
O24   O     O_2   0.897461 0.348787 0.044013 -0.203266
O25   O     O_3   0.763309 0.311874 0.856363 -0.519030
H95   H     H_    0.777892 0.342513 0.826066 0.408683
S4    S     S_3+6 0.797788 0.664659 0.986160 0.030953
O26   O     O_2   0.900662 0.651689 0.055673 -0.176538
O27   O     O_2   0.744536 0.613204 0.972058 -0.206613
O28   O     O_3   0.767085 0.685819 0.865293 -0.523258
H96   H     H_    0.784746 0.655142 0.838223 0.411532
S5    S     S_3+6 0.632670 0.109649 0.001669 0.073508
O29   O     O_2   0.621705 0.088410 0.085301 -0.098496
O30   O     O_2   0.538189 0.127048 0.904323 -0.248377
O31   O     O_3   0.672450 0.058545 0.965101 -0.467145
H97   H     H_    0.726878 0.043184 0.033653 0.405607
S6    S     S_3+6 0.632012 0.890537 0.002365 0.061129
O32   O     O_2   0.672846 0.937842 0.980133 -0.195181
O33   O     O_2   0.540721 0.874016 0.898969 -0.283532
O34   O     O_3   0.611051 0.911427 0.090352 -0.337658
H98   H     H_    0.581592 0.879401 0.099266 0.383942
S7    S     S_3+6 0.132670 0.609636 0.001713 0.073835
O35   O     O_2   0.121817 0.588368 0.085414 -0.097914
O36   O     O_2   0.038155 0.627059 0.904463 -0.248379
O37   O     O_3   0.172315 0.558535 0.964976 -0.466515
H99   H     H_    0.227323 0.543514 0.033397 0.404646
S8    S     S_3+6 0.132079 0.390560 0.002476 0.061391
O38   O     O_2   0.172976 0.437889 0.980389 -0.194418
O39   O     O_2   0.040803 0.374087 0.899018 -0.283634
O40   O     O_3   0.111070 0.411388 0.090454 -0.337568
H100  H     H_    0.081494 0.379367 0.099198 0.383926
N41   N     N_R   0.204868 0.734018 0.174572 0.240830
O41   O     O_R   0.294350 0.741545 0.246358 -0.351769
O42   O     O_R   0.150402 0.734404 0.205206 -0.282787
N42   N     N_R   0.203672 0.267191 0.176563 0.230625
O43   O     O_R   0.293443 0.262541 0.250275 -0.392014
O44   O     O_R   0.147799 0.264884 0.205152 -0.318406
N43   N     N_R   0.704824 0.234018 0.174535 0.240844
O45   O     O_R   0.794303 0.241543 0.246345 -0.351774
O46   O     O_R   0.650334 0.234405 0.205138 -0.282769
N44   N     N_R   0.703687 0.767191 0.176559 0.230600
O47   O     O_R   0.793462 0.762557 0.250266 -0.392013
O48   O     O_R   0.647823 0.764879 0.205161 -0.318415
N45   N     N_R   0.458575 0.937518 0.252595 0.279492
O49   O     O_R   0.528068 0.934131 0.245497 -0.241003
O50   O     O_R   0.374290 0.929751 0.165838 -0.301935
N46   N     N_R   0.460323 0.052587 0.244193 0.281350
O51   O     O_R   0.529407 0.058133 0.236796 -0.218694
O52   O     O_R   0.375462 0.055002 0.156221 -0.283790
N47   N     N_R   0.958575 0.437522 0.252597 0.279493
O53   O     O_R   0.028068 0.434124 0.245501 -0.240953
O54   O     O_R   0.874288 0.429769 0.165836 -0.301913
N48   N     N_R   0.960318 0.552590 0.244198 0.281349
O55   O     O_R   0.029400 0.558127 0.236796 -0.218695
O56   O     O_R   0.875457 0.555011 0.156229 -0.283805
S9    S     S_3+6 0.749974 0.883122 0.657110 -0.037022
O57   O     O_2   0.670159 0.852404 0.644397 -0.337687
O58   O     O_2   0.741327 0.878571 0.554447 -0.168404
O59   O     O_3   0.849205 0.851592 0.754023 -0.566944
H101  H     H_    0.836902 0.811778 0.737206 0.390756
S10   S     S_3+6 0.751900 0.114798 0.654866 -0.055472
O60   O     O_2   0.669984 0.145846 0.636045 -0.335328
O61   O     O_2   0.839765 0.143515 0.742902 -0.298940
O62   O     O_3   0.747438 0.116441 0.543037 -0.468495
H102  H     H_    0.727197 0.154335 0.514783 0.422038
S11   S     S_3+6 0.249977 0.383122 0.657111 -0.037011
O63   O     O_2   0.170162 0.352403 0.644398 -0.337691
O64   O     O_2   0.241330 0.378571 0.554448 -0.168395
O65   O     O_3   0.349209 0.351593 0.754025 -0.566922
H103  H     H_    0.336907 0.311779 0.737208 0.390759
S12   S     S_3+6 0.251905 0.614797 0.654865 -0.055461
O66   O     O_2   0.169991 0.645848 0.636044 -0.335329
O67   O     O_2   0.339772 0.643513 0.742902 -0.298911
O68   O     O_3   0.247443 0.616438 0.543036 -0.468491
H104  H     H_    0.227204 0.654333 0.514782 0.422039
S13   S     S_3+6 0.124461 0.104957 0.365036 -0.034263
O69   O     O_2   0.072686 0.152172 0.370278 -0.233931
O70   O     O_2   0.206686 0.090340 0.477333 -0.282581
O71   O     O_3   0.163795 0.126349 0.295266 -0.573896
H105  H     H_    0.210141 0.155509 0.340496 0.400817
S14   S     S_3+6 0.122810 0.896247 0.365302 -0.052637
O72   O     O_2   0.085947 0.857680 0.408309 -0.272164
O73   O     O_2   0.130188 0.865655 0.285789 -0.308672
O74   O     O_3   0.229845 0.918366 0.467778 -0.535511
H106  H     H_    0.270401 0.885406 0.491767 0.394493
S15   S     S_3+6 0.624464 0.604958 0.365033 -0.034254
O75   O     O_2   0.572691 0.652173 0.370279 -0.233912
O76   O     O_2   0.706693 0.590342 0.477328 -0.282589
O77   O     O_3   0.663791 0.626351 0.295257 -0.573884
H107  H     H_    0.710136 0.655513 0.340484 0.400813
S16   S     S_3+6 0.622819 0.396248 0.365303 -0.052634
O78   O     O_2   0.585965 0.357683 0.408322 -0.272159
O79   O     O_2   0.630188 0.365654 0.285784 -0.308667
O80   O     O_3   0.729857 0.418369 0.467769 -0.535520
H108  H     H_    0.770416 0.385411 0.491745 0.394478
N49   N     N_R   0.002288 0.101470 0.710304 0.200346
O81   O     O_R   0.090231 0.111237 0.754646 -0.397999
O82   O     O_R   0.941560 0.140771 0.659954 -0.316996
N50   N     N_R   0.991373 0.899615 0.695430 0.204255
O83   O     O_R   0.923523 0.864744 0.637315 -0.300015
O84   O     O_R   0.076839 0.884328 0.737794 -0.410509
N51   N     N_R   0.502297 0.601470 0.710312 0.200339
O85   O     O_R   0.590240 0.611237 0.754651 -0.398010
O86   O     O_R   0.441569 0.640771 0.659958 -0.317001
N52   N     N_R   0.491385 0.399614 0.695439 0.204248
O87   O     O_R   0.423534 0.364743 0.637326 -0.300022
O88   O     O_R   0.576850 0.384329 0.737799 -0.410538

loop_
_geom_bond_atom_site_label_1
_geom_bond_atom_site_label_2
_geom_bond_distance
_ccdc_geom_bond_type
C78   C96   1.564258 S    
C92   H72   1.110736 S    
C66   H38   1.112632 S    
C50   C54   1.562210 S    
C68   H40   1.112633 S    
S9    O57   1.505095 D    
N4    N7    1.419909 A    
O25   H95   0.990501 S    
C89   S1    1.818317 S    
S4    O26   1.503287 D    
C7    C20   1.382843 A    
C43   C61   1.484249 S    
C54   N38   1.472994 S    
N2    Ni2   1.889764 S    
S14   O74   1.681736 S    
C80   H60   1.112037 S    
S2    O20   1.503288 D    
C102  C109  1.556549 S    
N29   Ni2   1.915857 S    
N36   O8    1.297765 A    
H35   C64   1.111846 S    
N31   Ni4   1.915857 S    
C90   H70   1.110736 S    
S8    O40   1.681117 S    
N50   O84   1.299694 A    
O19   H93   0.990500 S    
C34   H14   1.068919 S    
C110  C112  1.540374 S    
C4    N4    1.323534 A    
C65   H37   1.112086 S    
C67   H43   1.111161 S    
N19   N20   1.388960 A    
N33   O1    1.296323 A    
C20   C83   1.479723 S    
S16   O78   1.501632 D    
S13   O70   1.502662 D    
N34   O4    1.297766 A    
N26   N29   1.419909 A    
C101  H77   1.104616 S    
C106  C108  1.559469 S    
C19   C84   1.481036 S    
N48   O55   1.301955 A    
C11   N11   1.339210 A    
C12   N12   1.337285 A    
C46   C86   1.473678 S    
C52   C56   1.562202 S    
C33   C45   1.371211 A    
O59   H101  0.990677 S    
H55   C75   1.114442 S    
C100  C104  1.552974 S    
C93   H63   1.113442 S    
N1    Ni1   1.886500 S    
C97   H73   1.112640 S    
C69   H49   1.108917 S    
C86   C90   1.563988 S    
N13   N14   1.388960 A    
N5    Ni5   1.915440 S    
N10   Ni5   1.886694 S    
C8    H8    1.067390 S    
C5    N5    1.326854 A    
N11   Ni8   1.889916 S    
C62   C64   1.557445 S    
C9    S9    1.793769 S    
C11   C22   1.414783 A    
C1    C17   1.381440 A    
C57   C63   1.523078 S    
S1    O18   1.503145 D    
C13   C23   1.380465 A    
C65   C81   1.555346 S    
C56   C62   1.583218 S    
N16   Ni3   1.916726 S    
H85   C105  1.114601 S    
N30   Ni1   1.915440 S    
C79   H59   1.103424 S    
S9    O59   1.674302 S    
C100  N48   1.476112 S    
N39   O14   1.294423 A    
N8    Ni8   1.915860 S    
C48   C88   1.473645 S    
S4    O28   1.681516 S    
C40   H20   1.076831 S    
C31   C44   1.390147 A    
C58   C60   1.556637 S    
C55   H27   1.097329 S    
C39   N31   1.329053 A    
C30   N50   1.428331 S    
C97   C101  1.545216 S    
C72   H46   1.113195 S    
C71   C87   1.561520 S    
C25   H9    1.076089 S    
S12   O66   1.504862 D    
C27   H11   1.076087 S    
S3    O24   1.503142 D    
C68   C70   1.522074 S    
C74   H66   1.112591 S    
C3    N3    1.322662 A    
C97   N45   1.475887 S    
C29   N21   1.318255 A    
C26   C41   1.387523 A    
N45   O49   1.302029 A    
C57   C59   1.556638 S    
C66   C72   1.522070 S    
C79   C93   1.562453 S    
S16   O80   1.681736 S    
N6    Ni6   1.915860 S    
C49   C59   1.577158 S    
C33   N25   1.319699 A    
O68   H104  0.990653 S    
H31   C58   1.112448 S    
C73   C89   1.522999 S    
C78   H58   1.112038 S    
C35   N27   1.319684 A    
C12   S12   1.780854 S    
C76   C92   1.523533 S    
C27   C42   1.385925 A    
C70   C86   1.560593 S    
C12   C22   1.413532 A    
C32   N24   1.329545 A    
C32   N52   1.428329 S    
C51   C60   1.577158 S    
C38   C45   1.380649 A    
C40   C47   1.380650 A    
C25   N17   1.320732 A    
N42   O43   1.301717 A    
C9    N9    1.339215 A    
C51   C55   1.532116 S    
N37   O9    1.300760 A    
C54   H26   1.109018 S    
N44   O48   1.301440 A    
C28   N20   1.326510 A    
C10   C21   1.413534 A    
C94   H64   1.113900 S    
C68   C84   1.554618 S    
C31   N51   1.423013 S    
C67   C83   1.555327 S    
C50   H22   1.104653 S    
C24   C60   1.481504 S    
S8    O39   1.503420 D    
C49   N33   1.471918 S    
O22   H94   0.990487 S    
C52   C60   1.585538 S    
C95   N43   1.469474 S    
N41   O42   1.301452 A    
C35   H15   1.071974 S    
C56   N40   1.472994 S    
C30   N22   1.329548 A    
N25   Ni6   1.889765 S    
N15   N16   1.388960 A    
N47   O54   1.298944 A    
N46   O51   1.301958 A    
C71   H51   1.108920 S    
C73   H65   1.112778 S    
S12   O68   1.676975 S    
C80   S8    1.810086 S    
N24   Ni8   1.917186 S    
N9    N10   1.388960 A    
H32   C58   1.111543 S    
C52   N36   1.480912 S    
N11   N12   1.388960 A    
H33   C63   1.111845 S    
S15   O75   1.500909 D    
N26   Ni5   1.886499 S    
S5    O29   1.503297 D    
C91   H71   1.110877 S    
S14   O73   1.502016 D    
C41   C107  1.473351 S    
C14   S14   1.769016 S    
N40   O16   1.300732 A    
C6    C17   1.386257 A    
C10   N10   1.337288 A    
S10   O61   1.498246 D    
S11   O64   1.499214 D    
N28   Ni7   1.886499 S    
S15   O77   1.672573 S    
C9    C21   1.414786 A    
C52   H24   1.104653 S    
C76   C82   1.564452 S    
C32   C44   1.400929 A    
C23   C59   1.481500 S    
C55   C62   1.578259 S    
C70   H50   1.109784 S    
C97   C107  1.557676 S    
N38   O11   1.302241 A    
H89   C111  1.114164 S    
C85   C89   1.563581 S    
S10   O62   1.676975 S    
C99   C103  1.545216 S    
C98   N46   1.476114 S    
C5    H5    1.069921 S    
C88   C92   1.563975 S    
C103  H83   1.089426 S    
C98   C107  1.560663 S    
C6    N6    1.329556 A    
S4    O27   1.501100 D    
C36   N28   1.322706 A    
N17   N18   1.388960 A    
C66   C82   1.554615 S    
C2    C18   1.386009 A    
N14   Ni1   1.916726 S    
C102  H82   1.088893 S    
C16   C24   1.383276 A    
S2    O21   1.501100 D    
S7    O37   1.680658 S    
C80   C84   1.561655 S    
N46   O52   1.299264 A    
C90   S2    1.815350 S    
C99   C108  1.557679 S    
C75   C81   1.564043 S    
H86   C105  1.114438 S    
C40   N32   1.327803 A    
C73   C83   1.564056 S    
C37   H17   1.075346 S    
C101  H81   1.089425 S    
C95   H61   1.113454 S    
C39   H19   1.075348 S    
N52   O87   1.298369 A    
C35   C47   1.371196 A    
C71   H45   1.113221 S    
S2    O22   1.681517 S    
N7    Ni7   1.915440 S    
S16   O79   1.502015 D    
S13   O69   1.500909 D    
C49   C53   1.532125 S    
N51   O85   1.300124 A    
C7    H7    1.069922 S    
C61   C63   1.557444 S    
C28   C42   1.387519 A    
C26   H10   1.076361 S    
N48   O56   1.299261 A    
N9    Ni6   1.889916 S    
H87   C106  1.114601 S    
C1    H1    1.079394 S    
C29   C43   1.390150 A    
C3    H3    1.079395 S    
N49   O82   1.298363 A    
C25   C41   1.385927 A    
S6    O32   1.500970 D    
C67   C69   1.524708 S    
H34   C63   1.106519 S    
N3    Ni3   1.886500 S    
O80   H108  0.990469 S    
S5    O31   1.680661 S    
C39   C48   1.373366 A    
C104  H84   1.088892 S    
C76   H68   1.112588 S    
O77   H107  0.990679 S    
C5    C18   1.382858 A    
O37   H99   0.989278 S    
C89   H69   1.110876 S    
S3    O23   1.501703 D    
C33   H13   1.071975 S    
C78   C82   1.561658 S    
N23   Ni7   1.916724 S    
C37   N29   1.329059 A    
S9    O58   1.499215 D    
C77   H57   1.103427 S    
N43   O45   1.301271 A    
N2    N5    1.419909 A    
S1    O17   1.501702 D    
H53   C73   1.114442 S    
C15   C24   1.380465 A    
C86   C94   1.578144 S    
C13   S13   1.778890 S    
C72   C88   1.560600 S    
N25   N30   1.419909 A    
C15   S15   1.778894 S    
C105  C111  1.520691 S    
O40   H100  0.990164 S    
C26   N18   1.326512 A    
N27   Ni8   1.889765 S    
C1    N1    1.322663 A    
S6    O34   1.681121 S    
C96   H62   1.113896 S    
C34   C46   1.369829 A    
C109  C111  1.540373 S    
C65   C71   1.524694 S    
C4    C20   1.386026 A    
C38   H18   1.076832 S    
C104  C110  1.556545 S    
C13   N13   1.318817 A    
N23   N24   1.388960 A    
C11   S11   1.793766 S    
S7    O35   1.503264 D    
N36   O7    1.297472 A    
O28   H96   0.990439 S    
S12   O67   1.498245 D    
N35   O5    1.296325 A    
C75   C91   1.523015 S    
C93   N41   1.469475 S    
C8    C19   1.386266 A    
C91   S3    1.818320 S    
C96   N44   1.469916 S    
C100  C108  1.560664 S    
N20   Ni4   1.889914 S    
N33   O2    1.300595 A    
C22   C110  1.520799 S    
S13   O71   1.672575 S    
N34   O3    1.297470 A    
C50   N34   1.480920 S    
C77   S5    1.810926 S    
C78   S6    1.810092 S    
H36   C64   1.106519 S    
C42   C108  1.473346 S    
C38   N30   1.327813 A    
C103  C110  1.553194 S    
C66   H42   1.110548 S    
N28   N31   1.419909 A    
N47   O53   1.302025 A    
N22   Ni6   1.917186 S    
N42   O44   1.301440 A    
C75   H67   1.112777 S    
C101  C109  1.553196 S    
H91   C112  1.114165 S    
N51   O86   1.298363 A    
C103  H79   1.104618 S    
H56   C76   1.114453 S    
C68   H44   1.110542 S    
S1    O19   1.681421 S    
N4    Ni4   1.889764 S    
C14   C23   1.383277 A    
C80   C94   1.564262 S    
C99   N47   1.475886 S    
C99   H75   1.112641 S    
S11   O63   1.505097 D    
C106  C112  1.520691 S    
C34   N26   1.322722 A    
O34   H98   0.990185 S    
C6    H6    1.067387 S    
C15   N15   1.318819 A    
C4    H4    1.074973 S    
C65   H41   1.111155 S    
N41   O41   1.301269 A    
C67   H39   1.112087 S    
C3    C19   1.381435 A    
O31   H97   0.989768 S    
C58   C64   1.523081 S    
N1    N6    1.419909 A    
N35   O6    1.300588 A    
C18   C81   1.479740 S    
C51   N35   1.471913 S    
C47   C87   1.473014 S    
N3    N8    1.419909 A    
S3    O25   1.681422 S    
C45   C85   1.473048 S    
C79   S7    1.811045 S    
C94   N42   1.469914 S    
C53   H25   1.097330 S    
C55   N39   1.475928 S    
C100  H76   1.113007 S    
H30   C57   1.111544 S    
N45   O50   1.298949 A    
C77   C95   1.562399 S    
C54   C61   1.583222 S    
C92   S4    1.815352 S    
C87   C91   1.563595 S    
C49   H21   1.111354 S    
H90   C111  1.113933 S    
C7    N7    1.326856 A    
C8    N8    1.329562 A    
N17   Ni1   1.886693 S    
H88   C106  1.114437 S    
S15   O76   1.502663 D    
C50   C59   1.585545 S    
C2    H2    1.074971 S    
N19   Ni3   1.886693 S    
C102  H78   1.108075 S    
C31   N23   1.318258 A    
N43   O46   1.301452 A    
C36   C48   1.369818 A    
C17   C82   1.481036 S    
C16   N16   1.324034 A    
N38   O12   1.300733 A    
C79   C83   1.557122 S    
C98   H74   1.113006 S    
N32   Ni3   1.915440 S    
C74   C84   1.564442 S    
N37   O10   1.294428 A    
C69   H47   1.113221 S    
C70   H48   1.113198 S    
N44   O47   1.301716 A    
C53   N37   1.475931 S    
C77   C81   1.557112 S    
C36   H16   1.068917 S    
S7    O36   1.503203 D    
C72   H52   1.109785 S    
N27   N32   1.419909 A    
S8    O38   1.500974 D    
S10   O60   1.504865 D    
C105  C107  1.559475 S    
C27   N19   1.320731 A    
C2    N2    1.323531 A    
C21   C109  1.520810 S    
C104  H80   1.108074 S    
N50   O83   1.298368 A    
C30   C43   1.400938 A    
H29   C57   1.112451 S    
C37   C46   1.373373 A    
N52   O88   1.299696 A    
C87   C95   1.579957 S    
C14   N14   1.324031 A    
C53   C61   1.578260 S    
C85   C93   1.579978 S    
C16   S16   1.769017 S    
O74   H106  0.990471 S    
C74   C90   1.523535 S    
C98   C102  1.552978 S    
N12   Ni7   1.886694 S    
H92   C112  1.113934 S    
N39   O13   1.300753 A    
N18   Ni2   1.889914 S    
N21   Ni5   1.916724 S    
C10   S10   1.780851 S    
N49   O81   1.300125 A    
S6    O33   1.503431 D    
O65   H103  0.990678 S    
C69   C85   1.561528 S    
O71   H105  0.990675 S    
S5    O30   1.503216 D    
H54   C74   1.114453 S    
C44   C62   1.484241 S    
N13   Ni2   1.917187 S    
S14   O72   1.501635 D    
N15   Ni4   1.917187 S    
N40   O15   1.302242 A    
C29   N49   1.423015 S    
C56   H28   1.109019 S    
C88   C96   1.578138 S    
N21   N22   1.388960 A    
S11   O65   1.674303 S    
O62   H102  0.990652 S    
C51   H23   1.111356 S    
C28   H12   1.076359 S    
