data_mof_unit_38659.cif
_audit_creation_date              2012-12-10T17:29:23-0500
_audit_creation_method            fapswitch 2.2
_symmetry_space_group_name_H-M    P1
_symmetry_Int_Tables_number       1
_space_group_crystal_system       triclinic
_cell_length_a                    12.020652
_cell_length_b                    12.896303
_cell_length_c                    13.027349
_cell_angle_alpha                 86.925956
_cell_angle_beta                  114.848958
_cell_angle_gamma                 92.951595
_cell_volume                      1828.98351787

loop_
_atom_site_label
_atom_site_type_symbol
_atom_type_description
_atom_site_fract_x
_atom_site_fract_y
_atom_site_fract_z
_atom_type_partial_charge
C1    C     C_R   0.477836 0.300030 0.498140 0.913707
C2    C     C_R   0.617173 0.498521 0.833358 -0.139873
C3    C     C_R   0.531564 0.812252 0.496036 -0.112566
C4    C     C_R   0.568984 0.498270 0.709943 0.870494
C5    C     C_R   0.461540 0.190614 0.486881 -0.037146
C6    C     C_R   0.339772 0.044493 0.389192 -0.179875
C7    C     C_R   0.350189 0.149093 0.409936 -0.154499
C8    C     C_R   0.563113 0.129458 0.542636 -0.250343
C9    C     C_R   0.553266 0.024515 0.523896 0.140697
C10   C     C_R   0.439403 0.980246 0.449271 0.154824
C11   C     C_R   0.427259 0.873015 0.437044 0.138981
C12   C     C_R   0.566023 0.509510 0.992883 0.106470
C13   C     C_R   0.645422 0.858153 0.563383 -0.203654
C14   C     C_R   0.655950 0.963893 0.578430 -0.189863
C15   C     C_R   0.995752 0.579550 0.378438 -0.306206
C16   C     C_R   0.520347 0.700627 0.497684 0.864768
C17   C     C_R   0.118236 0.575645 0.393264 0.016713
C18   C     C_R   0.167380 0.469187 0.558303 0.002717
C19   C     C_R   0.045123 0.473658 0.550137 0.022469
C20   C     C_R   0.957722 0.527633 0.456269 0.055659
C21   C     C_R   0.834573 0.529921 0.442982 0.002923
C22   C     C_R   0.881767 0.429448 0.612420 -0.004087
C23   C     C_R   0.549301 0.543385 0.883573 -0.005679
C24   C     C_R   0.007596 0.425983 0.632051 0.127800
C25   C     C_R   0.430643 0.502295 0.289290 0.956865
C26   C     C_R   0.283025 0.612269 0.994412 -0.182658
C27   C     C_R   0.384766 0.507646 0.164963 -0.279628
C28   C     C_R   0.720526 0.441057 0.900226 -0.155228
C29   C     C_R   0.752788 0.423962 0.016503 0.288939
C30   C     C_R   0.676291 0.460931 0.062390 -0.162430
C31   C     C_3   0.059663 0.330799 0.817695 -0.718137
C32   C     C_3   0.886972 0.277373 0.043335 -0.680411
C33   C     C_3   0.219666 0.820653 0.410904 -0.683502
C34   C     C_R   0.472230 0.526816 0.028050 -0.102258
C35   C     C_R   0.380052 0.599320 0.964167 -0.137109
C36   C     C_R   0.382483 0.651462 0.867037 0.473788
C37   C     C_R   0.464974 0.620891 0.826455 -0.251373
C38   C     C_R   0.462170 0.471024 0.120620 0.348888
C39   C     C_R   0.282882 0.565583 0.092957 0.387567
H1    H     H_    0.724992 0.811421 0.609071 0.189512
H2    H     H_    0.235162 0.424175 0.625856 0.134936
H3    H     H_    0.204739 0.656894 0.940513 0.256158
H4    H     H_    0.773869 0.408977 0.860977 0.152658
H5    H     H_    0.703126 0.451298 0.152245 0.180943
H6    H     H_    0.463820 0.658566 0.749792 0.212432
H7    H     H_    0.053826 0.476806 0.196360 0.371443
H8    H     H_    0.179016 0.421122 0.769299 0.242341
H9    H     H_    0.140140 0.295374 0.887548 0.275196
H10   H     H_    0.989647 0.267933 0.779626 0.226943
H11   H     H_    0.023436 0.389729 0.853852 0.258918
H12   H     H_    0.253702 0.014931 0.325993 0.184865
H13   H     H_    0.273189 0.872506 0.666282 0.384719
H14   H     H_    0.652303 0.259212 0.295642 0.385137
H15   H     H_    0.871326 0.357492 0.171101 0.226961
H16   H     H_    0.805860 0.223043 0.011146 0.240423
H17   H     H_    0.964152 0.236565 0.111501 0.244587
H18   H     H_    0.916665 0.300161 0.975201 0.238937
H19   H     H_    0.313722 0.763531 0.322786 0.264171
H20   H     H_    0.243443 0.760332 0.479915 0.282452
H21   H     H_    0.128608 0.800907 0.342669 0.240374
H22   H     H_    0.212125 0.895100 0.445940 0.228229
H23   H     H_    0.743714 0.998003 0.634050 0.160258
H24   H     H_    0.273155 0.198163 0.362940 0.176477
H25   H     H_    0.649990 0.164016 0.599992 0.144216
H26   H     H_    0.767933 0.572560 0.371691 0.132765
H27   H     H_    0.849755 0.394424 0.672649 0.132270
H28   H     H_    0.931351 0.623272 0.306524 0.161790
H29   H     H_    0.146942 0.616775 0.334549 0.203339
N1    N     N_R   0.798200 0.480260 0.519790 -0.105806
N2    N     N_R   0.201820 0.519740 0.480210 -0.096123
N3    N     N_2   0.097084 0.379319 0.733881 -0.306594
N4    N     N_2   0.859085 0.368117 0.087974 -0.297020
N5    N     N_2   0.311032 0.827982 0.364998 -0.304420
O1    O     O_R   0.579910 0.341070 0.505280 -0.601300
O2    O     O_2   0.038671 0.557194 0.993540 -0.301775
O3    O     O_3   0.133008 0.467837 0.192338 -0.537677
O4    O     O_2   0.156116 0.703421 0.722262 -0.318634
O5    O     O_2   0.272092 0.826234 0.870646 -0.278544
O6    O     O_3   0.331701 0.816095 0.701767 -0.575981
O7    O     O_2   0.411198 0.281090 0.187749 -0.297360
O8    O     O_2   0.515407 0.287313 0.061892 -0.285920
O9    O     O_3   0.641908 0.333851 0.272805 -0.580741
O10   O     O_R   0.388440 0.353740 0.492580 -0.618313
O11   O     O_R   0.643280 0.490550 0.663120 -0.620415
O12   O     O_R   0.451810 0.503220 0.650420 -0.617762
O13   O     O_R   0.611560 0.646260 0.507420 -0.619031
O14   O     O_R   0.420090 0.658930 0.494720 -0.618174
O15   O     O_R   0.548190 0.496780 0.349580 -0.587981
O16   O     O_R   0.356720 0.509450 0.336880 -0.552999
O17   O     O_2   0.136757 0.669742 0.153874 -0.352398
S1    S     S_3+6 0.144007 0.567231 0.108040 0.008428
S2    S     S_3+6 0.280872 0.751269 0.790051 0.004740
S3    S     S_3+6 0.506487 0.339184 0.158679 0.016701
Zn1   Zn    Zn3+2 0.627850 0.491540 0.508480 0.983939
Zn2   Zn    Zn3+2 0.372150 0.508460 0.491520 0.989968

loop_
_geom_bond_atom_site_label_1
_geom_bond_atom_site_label_2
_ccdc_geom_bond_type
C18   N2    A    
O4    S2    D    
O1    Zn1   S    
C35   C36   A    
H7    O3    S    
C32   N4    S    
C12   C23   A    
C1    C5    S    
C1    O1    A    
C36   C37   A    
C34   C35   A    
C26   C39   A    
C27   C38   A    
C14   H23   S    
C18   C19   A    
C22   H27   S    
C13   H1    S    
O13   Zn1   S    
C19   C20   A    
C27   C39   A    
C8    C9    A    
O14   Zn2   S    
C16   O14   A    
C6    H12   S    
H13   O6    S    
C9    C10   A    
C32   H16   S    
C3    C13   A    
O2    S1    D    
C29   N4    S    
C21   H26   S    
C36   S2    S    
C31   N3    S    
C15   H28   S    
C17   N2    A    
C33   H20   S    
O9    S3    S    
C13   C14   A    
C16   O13   A    
C30   H5    S    
C32   H18   S    
C31   H10   S    
C39   S1    S    
C15   C20   A    
O15   Zn1   S    
N1    Zn1   S    
C7    H24   S    
C18   H2    S    
C5    C7    A    
C4    O12   A    
O5    S2    D    
C23   C37   A    
C25   O15   A    
C21   N1    A    
H14   O9    S    
O16   Zn2   S    
C2    C4    S    
C9    C14   A    
C29   C30   A    
O8    S3    D    
C4    O11   A    
O10   Zn2   S    
O11   Zn1   S    
H8    N3    S    
O6    S2    S    
C8    H25   S    
C33   N5    S    
C33   H21   S    
C31   H9    S    
C11   N5    S    
C22   C24   A    
C1    O10   A    
C31   H11   S    
C37   H6    S    
C26   H3    S    
C15   C17   A    
C28   C29   A    
C17   H29   S    
C22   N1    A    
C12   C30   A    
C34   C38   A    
C6    C10   A    
C5    C8    A    
C6    C7    A    
C25   C27   S    
C28   H4    S    
C25   O16   A    
N2    Zn2   S    
O12   Zn2   S    
O17   S1    D    
C38   S3    S    
C19   C24   A    
C3    C11   A    
C10   C11   A    
O3    S1    S    
C26   C35   A    
H15   N4    S    
C20   C21   A    
H19   N5    S    
C33   H22   S    
C2    C23   A    
C2    C28   A    
O7    S3    D    
C12   C34   A    
C32   H17   S    
C3    C16   S    
C24   N3    S    
