data_mof_unit_34674.cif
_audit_creation_date              2012-12-10T19:06:24-0500
_audit_creation_method            fapswitch 2.2
_symmetry_space_group_name_H-M    P1
_symmetry_Int_Tables_number       1
_space_group_crystal_system       triclinic
_cell_length_a                    23.506184
_cell_length_b                    10.812162
_cell_length_c                    9.580943
_cell_angle_alpha                 89.746128
_cell_angle_beta                  90.319676
_cell_angle_gamma                 90.465181
_cell_volume                      2434.88066692

loop_
_atom_site_label
_atom_site_type_symbol
_atom_type_description
_atom_site_fract_x
_atom_site_fract_y
_atom_site_fract_z
_atom_type_partial_charge
C1    C     C_R   0.499248 0.262436 0.500202 0.804974
C2    C     C_R   0.969599 0.279307 0.443481 -0.162519
C3    C     C_R   0.028956 0.280011 0.443384 -0.161617
C4    C     C_R   0.059458 0.389874 0.469466 -0.013536
C5    C     C_R   0.029707 0.499724 0.496154 -0.018194
C6    C     C_R   0.059851 0.610471 0.521849 -0.013953
C7    C     C_R   0.029761 0.719435 0.548947 -0.161712
C8    C     C_R   0.970424 0.718359 0.550940 -0.162427
C9    C     C_R   0.119143 0.392766 0.470215 0.532375
C10   C     C_R   0.119509 0.609287 0.519595 0.532777
C11   C     C_R   0.238957 0.532280 0.617679 -0.101685
C12   C     C_R   0.391006 0.500450 0.499563 0.803974
C13   C     C_R   0.298245 0.532879 0.618696 -0.221270
C14   C     C_R   0.328424 0.501630 0.497986 -0.036790
C15   C     C_R   0.298263 0.472202 0.375323 -0.218744
C16   C     C_R   0.238940 0.472572 0.374160 -0.098922
C17   C     C_R   0.209000 0.502026 0.495502 0.350423
C18   C     C_R   0.760287 0.423133 0.594316 -0.099874
C19   C     C_R   0.700968 0.423227 0.594186 -0.231814
C20   C     C_R   0.671128 0.498398 0.499852 -0.023986
C21   C     C_R   0.701218 0.571259 0.403408 -0.228661
C22   C     C_R   0.760489 0.570199 0.402536 -0.096198
C23   C     C_R   0.499286 0.737527 0.499776 0.797170
C24   C     C_R   0.790357 0.496753 0.498572 0.346334
C25   C     C_R   0.500850 0.063040 0.625114 0.125785
C26   C     C_R   0.494487 0.129116 0.500703 -0.094176
C27   C     C_R   0.481029 0.064701 0.377481 -0.210470
C28   C     C_R   0.481103 0.935741 0.377148 -0.211379
C29   C     C_R   0.494488 0.870649 0.500116 -0.096949
C30   C     C_R   0.500722 0.935712 0.624807 0.139606
C31   C     C_3   0.547183 0.928989 0.731496 -0.474695
C32   C     C_3   0.547617 0.069307 0.731313 -0.471169
C33   C     C_R   0.522906 0.597572 0.073827 0.212233
C34   C     C_R   0.608842 0.499532 0.500157 0.788470
C35   C     C_R   0.470494 0.413389 0.075091 -0.134859
C36   C     C_R   0.468675 0.415449 0.926037 0.323021
C37   C     C_R   0.527770 0.590194 0.927925 0.134787
C38   C     C_3   0.590544 0.619327 0.936984 -0.083055
C39   C     C_3   0.581395 0.648976 0.090365 -0.498368
C40   C     C_R   0.880270 0.605182 0.526486 0.531334
C41   C     C_R   0.879822 0.389897 0.470755 0.532748
C42   C     C_R   0.939501 0.388302 0.470427 -0.013338
C43   C     C_R   0.969663 0.498823 0.497210 -0.018184
C44   C     C_R   0.939931 0.608455 0.525054 -0.012434
Cu1   Cu    Cu3+1 0.500000 0.499980 0.640670 0.955313
Cu2   Cu    Cu3+1 0.500000 0.500020 0.359330 0.939983
H1    H     H_    0.947427 0.193076 0.422694 0.189924
H2    H     H_    0.678494 0.363196 0.666127 0.140305
H3    H     H_    0.679002 0.630559 0.330485 0.137102
H4    H     H_    0.783277 0.626856 0.327607 0.147964
H5    H     H_    0.472759 0.113415 0.280525 0.156995
H6    H     H_    0.472965 0.887673 0.280018 0.163958
H7    H     H_    0.532130 0.888193 0.831547 0.192837
H8    H     H_    0.586906 0.888315 0.689802 0.195852
H9    H     H_    0.533402 0.109014 0.831858 0.187465
H10   H     H_    0.587499 0.110435 0.688921 0.197976
H11   H     H_    0.447942 0.341709 0.131815 0.144730
H12   H     H_    0.050812 0.194293 0.422569 0.190624
H13   H     H_    0.603018 0.700688 0.872388 0.168674
H14   H     H_    0.608391 0.596483 0.164035 0.227613
H15   H     H_    0.580667 0.749984 0.111603 0.166917
H16   H     H_    0.051926 0.805801 0.569061 0.190720
H17   H     H_    0.948574 0.803943 0.572460 0.189936
H18   H     H_    0.216221 0.555522 0.711863 0.146737
H19   H     H_    0.320391 0.559340 0.713306 0.152971
H20   H     H_    0.320456 0.448155 0.280576 0.155445
H21   H     H_    0.216177 0.449914 0.278963 0.146087
H22   H     H_    0.782917 0.365758 0.668666 0.149226
N1    N     N_R   0.851472 0.497184 0.498858 -0.468474
N2    N     N_R   0.147892 0.501405 0.494740 -0.469130
N3    N     N_R   0.500360 0.500930 0.147930 -0.191608
N4    N     N_R   0.500360 0.500890 0.852020 -0.206674
O1    O     O_R   0.500000 0.319640 0.618810 -0.561698
O2    O     O_2   0.850341 0.285416 0.441810 -0.537274
O3    O     O_2   0.148241 0.287639 0.448068 -0.534677
O4    O     O_2   0.148949 0.715258 0.540991 -0.533392
O5    O     O_R   0.500010 0.319680 0.381230 -0.589446
O6    O     O_R   0.417880 0.499940 0.618820 -0.551283
O7    O     O_R   0.417880 0.499980 0.381240 -0.584265
O8    O     O_R   0.499990 0.680320 0.618770 -0.579767
O9    O     O_R   0.500000 0.680360 0.381190 -0.580514
O10   O     O_R   0.582120 0.500020 0.618760 -0.594990
O11   O     O_R   0.582120 0.500060 0.381180 -0.582802
O12   O     O_2   0.851241 0.708847 0.556389 -0.539433
N5    N     N_2   0.435637 0.325661 0.853838 -0.372841
H23   H     H_    0.451629 0.237700 0.864932 0.230103
C45   C     C_3   0.375239 0.328985 0.881617 -0.680839
H24   H     H_    0.366015 0.289153 0.986250 0.198624
H25   H     H_    0.352181 0.273673 0.801664 0.241079
H26   H     H_    0.359504 0.425384 0.877270 0.229342
C46   C     C_3   0.629793 0.505410 0.924742 -0.334612
C47   C     C_3   0.692319 0.544484 0.925451 -0.820814
H27   H     H_    0.701347 0.606439 0.835323 0.265688
H28   H     H_    0.703123 0.593459 0.023884 0.255024
H29   H     H_    0.719552 0.461407 0.917485 0.241747
H30   H     H_    0.622464 0.438633 0.011687 0.201922
H31   H     H_    0.620649 0.452199 0.830198 0.230612

loop_
_geom_bond_atom_site_label_1
_geom_bond_atom_site_label_2
_ccdc_geom_bond_type
C45   H24   S    
C1    O5    A    
C41   C42   A    
C40   O12   S    
C19   C20   A    
C21   H3    S    
C7    C8    A    
C13   H19   S    
N5    H23   S    
C26   C27   A    
C29   C30   A    
C18   C24   A    
C5    C6    A    
C23   C29   S    
C28   C29   A    
C30   C31   S    
C18   H22   S    
C15   C16   A    
C12   O7    A    
Cu1   O1    S    
C18   C19   A    
C46   H30   S    
C41   O2    S    
C10   O4    S    
Cu2   O7    S    
Cu1   O10   S    
C16   C17   A    
C12   O6    A    
Cu1   O6    S    
C23   O8    A    
C32   H9    S    
C22   H4    S    
C20   C34   S    
C25   C32   S    
C5    C43   A    
C35   N3    A    
C17   N2    S    
C21   C22   A    
Cu1   N4    S    
C46   H31   S    
C27   H5    S    
C24   N1    S    
N5    C45   S    
C39   H15   S    
C40   N1    A    
C9    N2    A    
C11   H18   S    
C46   C47   S    
C19   H2    S    
C25   C26   A    
Cu1   Cu2   S    
C15   H20   S    
C38   C46   S    
C47   H29   S    
C33   C37   A    
Cu2   O11   S    
C35   C36   A    
C43   C44   A    
C7    H16   S    
C37   C38   S    
Cu2   O9    S    
C31   C32   S    
C47   H28   S    
C16   H21   S    
C33   C39   S    
C31   H7    S    
Cu2   N3    S    
C10   N2    A    
C12   C14   S    
C45   H25   S    
C1    C26   S    
C2    H1    S    
C22   C24   A    
C45   H26   S    
C34   O11   A    
C3    C4    A    
C41   N1    A    
C25   C30   A    
C11   C17   A    
C23   O9    A    
C8    C44   A    
C4    C5    A    
C6    C10   A    
Cu2   O5    S    
C6    C7    A    
C28   H6    S    
C36   N5    S    
C9    O3    S    
C35   H11   S    
C1    O1    A    
C2    C3    A    
C11   C13   A    
C38   C39   S    
C2    C42   A    
C39   H14   S    
C47   H27   S    
Cu1   O8    S    
C31   H8    S    
C33   N3    A    
C8    H17   S    
C38   H13   S    
C3    H12   S    
C40   C44   A    
C20   C21   A    
C42   C43   A    
C37   N4    A    
C27   C28   A    
C14   C15   A    
C34   O10   A    
C4    C9    A    
C13   C14   A    
C32   H10   S    
C36   N4    A    
