data_mof_unit_35219.cif
_audit_creation_date              2012-12-11T17:39:23-0500
_audit_creation_method            fapswitch 2.2
_symmetry_space_group_name_H-M    P1
_symmetry_Int_Tables_number       1
_space_group_crystal_system       triclinic
_cell_length_a                    24.919107
_cell_length_b                    7.236973
_cell_length_c                    22.472548
_cell_angle_alpha                 89.999789
_cell_angle_beta                  96.313745
_cell_angle_gamma                 89.998734
_cell_volume                      4028.09360295

loop_
_atom_site_label
_atom_site_type_symbol
_atom_type_description
_atom_site_fract_x
_atom_site_fract_y
_atom_site_fract_z
_atom_type_partial_charge
O1    O     O_R   0.801910 0.607900 0.699140 -0.527894
O2    O     O_R   0.198090 0.392100 0.300860 -0.531543
O3    O     O_R   0.698090 0.107900 0.800860 -0.527891
O4    O     O_R   0.301910 0.892100 0.199140 -0.531542
O5    O     O_R   0.692320 0.276320 0.686350 -0.535042
O6    O     O_R   0.307680 0.723680 0.313650 -0.528470
O7    O     O_R   0.807680 0.776320 0.813650 -0.535042
O8    O     O_R   0.192320 0.223680 0.186350 -0.528474
C1    C     C_R   0.673646 0.446894 0.671707 0.756123
C2    C     C_R   0.325964 0.552738 0.328743 0.756523
C3    C     C_R   0.826355 0.946891 0.828292 0.756121
C4    C     C_R   0.174035 0.052742 0.171259 0.756492
O9    O     O_R   0.801140 0.278070 0.692060 -0.535793
O10   O     O_R   0.198860 0.721930 0.307940 -0.529273
O11   O     O_R   0.698860 0.778070 0.807940 -0.535795
O12   O     O_R   0.301140 0.221930 0.192060 -0.529274
O13   O     O_R   0.807690 0.109570 0.806600 -0.522343
O14   O     O_R   0.192310 0.890430 0.193400 -0.530857
O15   O     O_R   0.692310 0.609570 0.693400 -0.522352
O16   O     O_R   0.307690 0.390430 0.306600 -0.530858
C5    C     C_R   0.818251 0.446769 0.679039 0.802825
C6    C     C_R   0.181747 0.553379 0.321144 0.793526
C7    C     C_R   0.681749 0.946771 0.820960 0.802811
C8    C     C_R   0.318255 0.053377 0.178858 0.793497
O17   O     O_3   0.752020 0.441970 0.787570 -0.376492
O18   O     O_3   0.247980 0.558030 0.212430 -0.376835
O19   O     O_3   0.747980 0.941970 0.712430 -0.376501
O20   O     O_3   0.252020 0.058030 0.287570 -0.376839
V1    V     V_3+5 0.749620 0.166420 0.743030 1.523401
V2    V     V_3+5 0.250380 0.833580 0.256970 1.523049
V3    V     V_3+5 0.750380 0.666420 0.756970 1.523397
V4    V     V_3+5 0.249620 0.333580 0.243030 1.523051
C9    C     C_R   0.393022 0.117746 0.040396 -0.147353
C10   C     C_R   0.608934 0.919291 0.961485 -0.144423
C11   C     C_R   0.106993 0.617727 0.459618 -0.147351
C12   C     C_R   0.891081 0.419284 0.538524 -0.144412
H1    H     H_    0.387076 0.183175 0.996755 0.147049
H2    H     H_    0.617678 0.885419 0.008561 0.149834
H3    H     H_    0.112944 0.683133 0.503262 0.147068
H4    H     H_    0.882342 0.385410 0.491446 0.149851
C13   C     C_R   0.352624 0.130569 0.079509 -0.028722
C14   C     C_R   0.650341 0.911740 0.923594 -0.028204
C15   C     C_R   0.147389 0.630547 0.420502 -0.028727
C16   C     C_R   0.849670 0.411726 0.576408 -0.028230
C17   C     C_R   0.360529 0.043531 0.136715 -0.180884
C18   C     C_R   0.638796 0.957114 0.861961 -0.182510
C19   C     C_R   0.139477 0.543537 0.363292 -0.180894
C20   C     C_R   0.861208 0.457106 0.638044 -0.182514
C21   C     C_R   0.409494 0.944941 0.152973 -0.023609
C22   C     C_R   0.585794 0.016902 0.840240 -0.025746
C23   C     C_R   0.090508 0.444972 0.347035 -0.023639
C24   C     C_R   0.914208 0.516908 0.659771 -0.025751
C25   C     C_R   0.448164 0.930784 0.111874 -0.146492
C26   C     C_R   0.545782 0.027873 0.879931 -0.149659
C27   C     C_R   0.051840 0.430820 0.388137 -0.146486
C28   C     C_R   0.954224 0.527889 0.620085 -0.149663
H5    H     H_    0.485441 0.855850 0.124072 0.147530
H6    H     H_    0.505350 0.073400 0.863704 0.148075
H7    H     H_    0.014561 0.355906 0.375939 0.147542
H8    H     H_    0.994654 0.573431 0.636315 0.148079
C29   C     C_R   0.440291 0.017014 0.055996 0.074520
C30   C     C_R   0.556975 0.978060 0.940113 0.069503
C31   C     C_R   0.059720 0.517027 0.444017 0.074507
C32   C     C_R   0.943038 0.478068 0.559901 0.069502
C33   C     C_1   0.481116 0.003099 0.014727 -0.019041
C34   C     C_1   0.515453 0.991505 0.980551 -0.019459
C35   C     C_1   0.018898 0.503115 0.485290 -0.019042
C36   C     C_1   0.984561 0.491519 0.519467 -0.019460
C37   C     C_3   0.962293 0.898323 0.019812 0.109397
C38   C     C_3   0.042029 0.081944 0.975610 0.098504
C39   C     C_3   0.537706 0.398320 0.480183 0.109380
C40   C     C_3   0.457966 0.581906 0.524399 0.098494
C41   C     C_3   0.988626 0.077984 0.046383 0.075450
C42   C     C_3   0.015212 0.903347 0.948916 0.081723
C43   C     C_3   0.511361 0.577978 0.453618 0.075463
C44   C     C_3   0.484793 0.403312 0.551087 0.081729
H9    H     H_    0.972695 0.306019 0.968837 0.114236
H10   H     H_    0.032406 0.673892 0.025195 0.113891
H11   H     H_    0.527291 0.806005 0.531163 0.114224
H12   H     H_    0.467601 0.173866 0.474807 0.113879
C45   C     C_1   0.129138 0.038048 0.124529 -0.163762
C46   C     C_1   0.872448 0.959068 0.873673 -0.156155
C47   C     C_1   0.370856 0.538032 0.375478 -0.163764
C48   C     C_1   0.627554 0.459078 0.626325 -0.156148
C49   C     C_3   0.018759 0.816057 0.012625 -0.207751
C50   C     C_3   0.985662 0.164823 0.982902 -0.241030
C51   C     C_3   0.481244 0.316032 0.487377 -0.207737
C52   C     C_3   0.514329 0.664805 0.517100 -0.241023
C53   C     C_3   0.044936 0.998174 0.038876 0.086235
C54   C     C_3   0.959266 0.984593 0.956694 0.081422
C55   C     C_3   0.455057 0.498147 0.461132 0.086234
C56   C     C_3   0.540735 0.484580 0.543303 0.081431
C57   C     C_1   0.091499 0.018721 0.085792 -0.064108
C58   C     C_1   0.911312 0.972627 0.911160 -0.061183
C59   C     C_1   0.408492 0.518695 0.414218 -0.064125
C60   C     C_1   0.588691 0.472630 0.588836 -0.061213
C61   C     C_2   0.302076 0.230899 0.058097 0.742807
O21   O     O_2   0.303637 0.362867 0.024312 -0.559788
O22   O     O_R   0.252494 0.172306 0.074944 -0.680979
H13   H     H_    0.221487 0.255235 0.058812 0.286377
C62   C     C_2   0.705924 0.868888 0.950861 0.731886
O23   O     O_2   0.712931 0.762251 0.993236 -0.560397
O24   O     O_R   0.750145 0.957490 0.930221 -0.681906
H14   H     H_    0.785545 0.925743 0.954664 0.274763
C63   C     C_2   0.197943 0.730830 0.441918 0.742769
O25   O     O_2   0.196394 0.862735 0.475732 -0.559805
O26   O     O_R   0.247518 0.672255 0.425045 -0.680983
H15   H     H_    0.278531 0.755140 0.441188 0.286373
C64   C     C_2   0.794089 0.368863 0.549130 0.731900
O27   O     O_2   0.787092 0.262282 0.506741 -0.560414
O28   O     O_R   0.749860 0.457405 0.569771 -0.681909
H16   H     H_    0.714464 0.425621 0.545329 0.274785
C65   C     C_2   0.422891 0.861995 0.213423 0.733836
O29   O     O_2   0.450753 0.722610 0.219303 -0.568125
O30   O     O_R   0.405479 0.946097 0.263953 -0.667874
H17   H     H_    0.417999 0.877646 0.302358 0.282295
C66   C     C_2   0.570668 0.068550 0.776432 0.715029
O31   O     O_2   0.535416 0.183970 0.763657 -0.573481
O32   O     O_R   0.595664 0.983862 0.730776 -0.668493
H18   H     H_    0.581570 0.031078 0.689512 0.280666
C67   C     C_2   0.077106 0.362036 0.286584 0.733848
O33   O     O_2   0.049233 0.222677 0.280704 -0.568112
O34   O     O_R   0.094524 0.446120 0.236053 -0.667875
H19   H     H_    0.082001 0.377676 0.197649 0.282300
C68   C     C_2   0.929327 0.568559 0.723580 0.715026
O35   O     O_2   0.964580 0.683969 0.736359 -0.573493
O36   O     O_R   0.904321 0.483890 0.769232 -0.668481
H20   H     H_    0.918409 0.531115 0.810497 0.280674
C69   C     C_3   0.978570 0.180211 0.104003 -0.361240
C70   C     C_3   0.918654 0.195927 0.112561 -0.323937
C71   C     C_3   0.909610 0.339113 0.160301 -0.717942
H21   H     H_    0.932141 0.299692 0.203871 0.251431
H22   H     H_    0.923372 0.477447 0.147036 0.224916
H23   H     H_    0.865933 0.346935 0.165805 0.218841
H24   H     H_    0.894858 0.233453 0.069758 0.207005
H25   H     H_    0.903693 0.061093 0.127383 0.196919
H26   H     H_    0.999431 0.105572 0.143146 0.198659
H27   H     H_    0.997027 0.319754 0.102525 0.174691
C72   C     C_3   0.026679 0.814182 0.889712 -0.332180
C73   C     C_3   0.063161 0.645070 0.899360 -0.353100
C74   C     C_3   0.083130 0.584117 0.840603 -0.711955
H28   H     H_    0.048675 0.537999 0.808526 0.257474
H29   H     H_    0.104495 0.699311 0.820564 0.233212
H30   H     H_    0.111814 0.467802 0.848866 0.210161
H31   H     H_    0.098423 0.674009 0.932687 0.197164
H32   H     H_    0.039383 0.531940 0.916981 0.187070
H33   H     H_    0.988082 0.769627 0.864359 0.192536
H34   H     H_    0.044895 0.919378 0.862083 0.190530
C75   C     C_3   0.521396 0.680240 0.395996 -0.361235
C76   C     C_3   0.581304 0.695923 0.387403 -0.323910
C77   C     C_3   0.590327 0.839096 0.339652 -0.717977
H35   H     H_    0.567768 0.799692 0.296094 0.251461
H36   H     H_    0.576582 0.977443 0.352928 0.224919
H37   H     H_    0.633998 0.846877 0.334112 0.218829
H38   H     H_    0.605119 0.733446 0.430195 0.207003
H39   H     H_    0.596254 0.561079 0.372573 0.196923
H40   H     H_    0.500515 0.605643 0.356856 0.198661
H41   H     H_    0.502947 0.819796 0.397496 0.174684
C78   C     C_3   0.473337 0.314123 0.610291 -0.332150
C79   C     C_3   0.436849 0.145028 0.600645 -0.353094
C80   C     C_3   0.416903 0.084032 0.659410 -0.711874
H42   H     H_    0.451368 0.037837 0.691465 0.257439
H43   H     H_    0.395556 0.199229 0.679479 0.233218
H44   H     H_    0.388204 0.967758 0.651146 0.210143
H45   H     H_    0.401577 0.174004 0.567334 0.197153
H46   H     H_    0.460619 0.031905 0.583002 0.187056
H47   H     H_    0.511938 0.269541 0.635633 0.192506
H48   H     H_    0.455128 0.419315 0.637930 0.190528
C81   C     C_3   0.914721 0.794611 0.041678 -0.362191
C82   C     C_3   0.904343 0.610649 0.008590 -0.345139
C83   C     C_3   0.847233 0.539993 0.012923 -0.692914
H49   H     H_    0.839341 0.528241 0.060440 0.239472
H50   H     H_    0.817311 0.635208 0.989253 0.248166
H51   H     H_    0.842122 0.402241 0.991276 0.214496
H52   H     H_    0.910051 0.624293 0.960462 0.204063
H53   H     H_    0.933885 0.508172 0.028848 0.197962
H54   H     H_    0.923516 0.767295 0.090370 0.166686
H55   H     H_    0.878426 0.884427 0.034238 0.180375
C84   C     C_3   0.087074 0.191654 0.950582 -0.390342
C85   C     C_3   0.139903 0.082568 0.950762 -0.318650
C86   C     C_3   0.183970 0.199516 0.927273 -0.715665
H56   H     H_    0.173675 0.227955 0.878843 0.219454
H57   H     H_    0.189098 0.332339 0.952011 0.239623
H58   H     H_    0.222846 0.123145 0.933172 0.235947
H59   H     H_    0.154339 0.036061 0.996731 0.215989
H60   H     H_    0.133467 0.959419 0.921720 0.206755
H61   H     H_    0.072598 0.231333 0.903922 0.185224
H62   H     H_    0.094716 0.318353 0.978125 0.175694
C87   C     C_3   0.585277 0.294634 0.458303 -0.362223
C88   C     C_3   0.595681 0.110685 0.491396 -0.345022
C89   C     C_3   0.652772 0.039960 0.486966 -0.693022
H63   H     H_    0.660588 0.028133 0.439424 0.239427
H64   H     H_    0.682734 0.135171 0.510568 0.248229
H65   H     H_    0.657905 0.902231 0.508627 0.214519
H66   H     H_    0.590045 0.124382 0.539544 0.204065
H67   H     H_    0.566105 0.008223 0.471192 0.197929
H68   H     H_    0.576468 0.267297 0.409615 0.166715
H69   H     H_    0.621567 0.384474 0.465728 0.180362
C90   C     C_3   0.412922 0.691608 0.549433 -0.390331
C91   C     C_3   0.360096 0.582517 0.549261 -0.318668
C92   C     C_3   0.316026 0.699483 0.572741 -0.715598
H70   H     H_    0.326321 0.727957 0.621170 0.219444
H71   H     H_    0.310894 0.832290 0.547993 0.239635
H72   H     H_    0.277153 0.623104 0.566848 0.235948
H73   H     H_    0.345661 0.535979 0.503294 0.215978
H74   H     H_    0.366536 0.459387 0.578313 0.206743
H75   H     H_    0.427402 0.731286 0.596091 0.185224
H76   H     H_    0.405274 0.818307 0.521890 0.175698

loop_
_geom_bond_atom_site_label_1
_geom_bond_atom_site_label_2
_ccdc_geom_bond_type
C87   H69   S    
O17   V3    S    
C21   C65   S    
C83   H49   S    
C44   C78   S    
O1    C5    A    
C88   C89   S    
C46   C58   T    
C51   C55   S    
O19   V1    S    
C22   C66   S    
O13   V1    S    
C92   H70   S    
O12   C8    A    
C63   O25   D    
O3    C7    A    
C70   H24   S    
C10   C14   A    
O1    V3    S    
C37   C54   S    
C40   C44   S    
C71   H23   S    
O15   V3    S    
C61   O21   D    
O34   H19   S    
C82   H53   S    
C86   H56   S    
O7    C3    A    
C63   O26   S    
C72   H33   S    
C62   O23   D    
C8    C17   S    
C32   C36   S    
C24   C68   S    
O9    V1    S    
C65   O29   D    
H12   C51   S    
C27   H7    S    
C64   O28   S    
C14   C18   A    
O4    C8    A    
C38   C84   S    
C84   H61   S    
C82   C83   S    
O30   H17   S    
C91   H73   S    
C2    C47   S    
C10   C30   A    
C78   H48   S    
O2    V4    S    
C15   C63   S    
C77   H37   S    
O3    V1    S    
C80   H43   S    
C25   C29   A    
C1    O15   A    
C39   C56   S    
O28   H16   S    
C2    O16   A    
C91   C92   S    
C27   C31   A    
C38   C42   S    
C91   H74   S    
O26   H15   S    
C28   C32   A    
C37   C41   S    
O14   V2    S    
C79   H46   S    
C11   C15   A    
C75   H41   S    
C64   O27   D    
C83   H50   S    
C88   H67   S    
C5    C20   S    
C16   C64   S    
C12   C32   A    
O11   C7    A    
C6    C19   S    
C77   H35   S    
C90   C91   S    
C62   O24   S    
C7    C18   S    
C76   H39   S    
C92   H71   S    
O10   V2    S    
C81   H54   S    
H11   C52   S    
C40   C52   S    
C69   H26   S    
C54   C58   S    
O5    V1    S    
C82   H52   S    
C86   H57   S    
C56   C60   S    
C83   H51   S    
C31   C35   S    
C72   H34   S    
O7    V3    S    
C30   C34   S    
C35   C36   T    
O8    V4    S    
C81   C82   S    
C52   C56   S    
C12   H4    S    
C73   C74   S    
C61   O22   S    
C74   H30   S    
C73   H32   S    
C40   C55   S    
C49   C53   S    
O18   V4    S    
C19   C23   A    
C84   H62   S    
C26   C30   A    
C9    H1    S    
C28   H8    S    
C74   H29   S    
C11   H3    S    
C89   H64   S    
O5    C1    A    
C45   C57   T    
C78   C79   S    
C17   C21   A    
O8    C4    A    
C47   C59   T    
C90   H75   S    
O9    C5    A    
C37   C81   S    
C79   H45   S    
C39   C87   S    
O32   H18   S    
C44   C51   S    
C67   O33   D    
C85   H60   S    
C88   H66   S    
C44   C56   S    
C39   C51   S    
H10   C49   S    
O6    V2    S    
H9    C50   S    
C76   H38   S    
C74   H28   S    
C50   C54   S    
C68   O35   D    
C23   C67   S    
C92   H72   S    
C13   C61   S    
C12   C16   A    
C38   C53   S    
C3    C46   S    
C69   H27   S    
O36   H20   S    
C38   C50   S    
C14   C62   S    
C48   C60   T    
C81   H55   S    
C80   H44   S    
C37   C49   S    
C85   C86   S    
C69   C70   S    
O16   V4    S    
C86   H58   S    
C87   H68   S    
C89   H63   S    
C3    O13   A    
C25   H5    S    
C10   H2    S    
C70   H25   S    
C71   H22   S    
C71   H21   S    
C73   H31   S    
O6    C2    A    
C72   C73   S    
O11   V3    S    
C43   C55   S    
O12   V4    S    
C42   C72   S    
C18   C22   A    
O22   H13   S    
C9    C13   A    
C79   C80   S    
O2    C6    A    
C66   O32   S    
C70   C71   S    
C89   H65   S    
C41   C53   S    
C22   C26   A    
C16   C20   A    
C80   H42   S    
C75   C76   S    
C40   C90   S    
C39   C43   S    
O10   C6    A    
C15   C19   A    
C43   C75   S    
C41   C69   S    
C21   C25   A    
C42   C54   S    
O20   V2    S    
C90   H76   S    
C78   H47   S    
C4    C45   S    
C23   C27   A    
C77   H36   S    
C42   C49   S    
C53   C57   S    
C87   C88   S    
C41   C50   S    
C67   O34   S    
C85   H59   S    
C1    C48   S    
C55   C59   S    
C84   C85   S    
C29   C33   S    
C43   C52   S    
C20   C24   A    
C26   H6    S    
C9    C29   A    
C33   C34   T    
C4    O14   A    
O24   H14   S    
C68   O36   S    
C13   C17   A    
C76   C77   S    
C11   C31   A    
C66   O31   D    
C75   H40   S    
O4    V2    S    
C24   C28   A    
C65   O30   S    
