data_mof_unit_17296.cif
_audit_creation_date              2012-12-10T17:07:13-0500
_audit_creation_method            fapswitch 2.2
_symmetry_space_group_name_H-M    P1
_symmetry_Int_Tables_number       1
_space_group_crystal_system       triclinic
_cell_length_a                    17.175235
_cell_length_b                    11.001641
_cell_length_c                    9.975314
_cell_angle_alpha                 112.605282
_cell_angle_beta                  93.534803
_cell_angle_gamma                 95.015033
_cell_volume                      1724.10056513

loop_
_atom_site_label
_atom_site_type_symbol
_atom_type_description
_atom_site_fract_x
_atom_site_fract_y
_atom_site_fract_z
_atom_type_partial_charge
C1    C     C_R   0.495144 0.252951 0.438203 0.838748
C2    C     C_R   0.504857 0.747049 0.561797 0.838771
C3    C     C_2   0.489735 0.108798 0.397326 -0.000220
C4    C     C_2   0.510269 0.891202 0.602673 -0.000119
C5    C     C_2   0.519284 0.061933 0.494486 0.182483
C6    C     C_2   0.480720 0.938069 0.505514 0.182473
C7    C     C_2   0.507953 0.512594 0.079965 0.245669
C8    C     C_2   0.492047 0.487406 0.920036 0.245765
C9    C     C_R   0.351734 0.500322 0.519339 0.868006
C10   C     C_R   0.648262 0.499689 0.480663 0.868255
C11   C     C_R   0.267073 0.492780 0.530684 -0.234660
C12   C     C_R   0.732915 0.507321 0.469327 -0.234566
C13   C     C_R   0.215409 0.402022 0.412055 0.419952
C14   C     C_R   0.784541 0.598374 0.587811 0.419881
C15   C     C_R   0.134795 0.393351 0.423790 -0.216556
C16   C     C_R   0.865151 0.607175 0.576044 -0.216450
C17   C     C_R   0.105124 0.479987 0.547349 -0.028860
C18   C     C_R   0.894854 0.520415 0.452600 -0.028891
C19   C     C_R   0.156002 0.569920 0.664955 -0.279662
C20   C     C_R   0.844008 0.430162 0.335157 -0.279755
C21   C     C_R   0.237661 0.574533 0.659868 0.428999
C22   C     C_R   0.762350 0.425395 0.340265 0.428986
C23   C     C_2   0.019484 0.482698 0.549482 0.395790
C24   C     C_2   0.980504 0.517834 0.450498 0.395731
Cu1   Cu    Cu3+1 0.513640 0.521550 0.643210 0.959725
Cu2   Cu    Cu3+1 0.486360 0.478450 0.356790 0.959676
H1    H     H_    0.131837 0.638628 0.758312 0.163341
H2    H     H_    0.868202 0.361336 0.241924 0.163169
H3    H     H_    0.905017 0.679689 0.664619 0.158058
H4    H     H_    0.094905 0.321037 0.335099 0.158169
H5    H     H_    0.578418 0.626990 0.919233 0.187000
H6    H     H_    0.421583 0.373010 0.080767 0.187041
N1    N     N_2   0.465840 0.446060 0.141630 -0.286268
N2    N     N_2   0.534160 0.553940 0.858370 -0.286240
O1    O     O_R   0.507280 0.332200 0.576490 -0.596830
O2    O     O_R   0.492720 0.667800 0.423510 -0.596829
O3    O     O_R   0.484240 0.295800 0.334620 -0.552246
O4    O     O_R   0.515760 0.704200 0.665380 -0.552222
O5    O     O_R   0.399260 0.520290 0.634950 -0.556196
O6    O     O_R   0.600740 0.479710 0.365050 -0.556371
O7    O     O_R   0.376220 0.483890 0.393080 -0.552285
O8    O     O_R   0.623780 0.516110 0.606920 -0.552396
O9    O     O_3   0.244650 0.314257 0.290230 -0.571521
C25   C     C_3   0.224871 0.346049 0.169093 -0.267520
H7    H     H_    0.242876 0.452712 0.192944 0.159722
H8    H     H_    0.161026 0.319675 0.132026 0.158546
H9    H     H_    0.257002 0.286966 0.077454 0.170767
O10   O     O_3   0.755251 0.686284 0.709476 -0.571648
C26   C     C_3   0.775130 0.654927 0.830879 -0.267560
H10   H     H_    0.838968 0.681549 0.867932 0.158516
H11   H     H_    0.757247 0.548298 0.807363 0.159721
H12   H     H_    0.742960 0.714091 0.922411 0.170855
O11   O     O_3   0.710820 0.331513 0.228218 -0.556736
C27   C     C_3   0.723013 0.340477 0.093410 -0.279989
H13   H     H_    0.733847 0.445061 0.103159 0.134069
H14   H     H_    0.669145 0.293682 0.016850 0.188589
H15   H     H_    0.772052 0.284767 0.044687 0.154853
O12   O     O_3   0.289231 0.668118 0.772100 -0.556553
C28   C     C_3   0.276889 0.658949 0.906758 -0.280235
H16   H     H_    0.330789 0.705317 0.983354 0.188579
H17   H     H_    0.265787 0.554320 0.896754 0.133936
H18   H     H_    0.227970 0.714944 0.955585 0.154999
O13   O     O_3   0.020225 0.535750 0.340168 -0.607146
C29   C     C_3   0.989505 0.631834 0.297591 -0.330501
H19   H     H_    0.982707 0.723594 0.393568 0.160269
H20   H     H_    0.932817 0.590634 0.227875 0.169691
H21   H     H_    0.031385 0.660068 0.231190 0.188828
O14   O     O_3   0.979779 0.464872 0.659866 -0.607094
C30   C     C_3   0.010214 0.368246 0.701857 -0.330565
H22   H     H_    0.067028 0.408823 0.771294 0.169704
H23   H     H_    0.016676 0.276505 0.605588 0.160206
H24   H     H_    0.968321 0.340178 0.768350 0.188812
C31   C     C_3   0.400564 0.872240 0.423089 -0.844642
H25   H     H_    0.406399 0.801581 0.310698 0.240260
H26   H     H_    0.368466 0.815841 0.478563 0.224796
H27   H     H_    0.362647 0.948197 0.420899 0.230929
C32   C     C_3   0.599441 0.127760 0.576907 -0.844571
H28   H     H_    0.593607 0.198421 0.689298 0.240247
H29   H     H_    0.637358 0.051803 0.579097 0.230937
H30   H     H_    0.631538 0.184157 0.521431 0.224860
C33   C     C_3   0.541946 0.981310 0.757806 -0.860448
H31   H     H_    0.516678 0.942851 0.835674 0.252555
H32   H     H_    0.606854 0.985791 0.772564 0.241955
H33   H     H_    0.523883 0.082027 0.788727 0.234435
C34   C     C_3   0.458063 0.018689 0.242191 -0.860270
H34   H     H_    0.483333 0.057150 0.164326 0.252541
H35   H     H_    0.476129 0.917973 0.211273 0.234461
H36   H     H_    0.393155 0.014203 0.227427 0.241941
C35   C     C_3   0.424834 0.380673 0.835816 -0.766749
H37   H     H_    0.438412 0.284355 0.837430 0.183384
H38   H     H_    0.369990 0.407225 0.887612 0.169797
H39   H     H_    0.410231 0.362425 0.721909 0.277794
C36   C     C_3   0.575165 0.619329 0.164185 -0.766865
H40   H     H_    0.630010 0.592777 0.112389 0.169756
H41   H     H_    0.561587 0.715646 0.162571 0.183428
H42   H     H_    0.589769 0.637576 0.278091 0.277803

loop_
_geom_bond_atom_site_label_1
_geom_bond_atom_site_label_2
_ccdc_geom_bond_type
C36   H40   S    
C3    C34   S    
C7    N1    D    
C31   H25   S    
C33   H31   S    
C7    C8    S    
C32   H28   S    
C17   C23   S    
C6    C31   S    
C18   C24   S    
C19   C21   A    
C5    C6    S    
C32   H30   S    
C10   O8    A    
C12   C22   A    
C9    O5    A    
C10   O6    A    
C30   H23   S    
C4    C33   S    
O14   C30   S    
C26   H11   S    
C23   C24   D    
C35   H38   S    
C19   H1    S    
C25   H9    S    
C1    O3    A    
Cu1   N2    S    
C32   H29   S    
C28   H16   S    
C36   H41   S    
C31   H26   S    
C33   H32   S    
C25   H8    S    
C22   O11   S    
C34   H35   S    
C7    C36   S    
C27   H14   S    
C28   H17   S    
C29   H21   S    
C4    C6    D    
C14   O10   S    
C20   H2    S    
O12   C28   S    
C34   H34   S    
C11   C21   A    
C1    C3    S    
C29   H20   S    
C23   O14   S    
C30   H24   S    
C2    C4    S    
O9    C25   S    
Cu1   O4    S    
C2    O4    A    
Cu2   N1    S    
C26   H12   S    
H5    N2    S    
Cu1   Cu2   S    
C8    N2    D    
C35   H39   S    
C9    C11   S    
C10   C12   S    
Cu1   O1    S    
Cu2   O2    S    
O10   C26   S    
C12   C14   A    
C36   H42   S    
C13   C15   A    
C31   H27   S    
C14   C16   A    
C5    C32   S    
C13   O9    S    
C33   H33   S    
C25   H7    S    
C1    O1    A    
C15   H4    S    
C34   H36   S    
C2    O2    A    
C15   C17   A    
C27   H13   S    
C28   H18   S    
C20   C22   A    
C3    C5    D    
Cu1   O8    S    
Cu2   O3    S    
O11   C27   S    
C24   O13   S    
C9    O7    A    
H6    N1    S    
C16   H3    S    
C21   O12   S    
C29   H19   S    
C11   C13   A    
Cu2   O6    S    
C17   C19   A    
C18   C20   A    
C30   H22   S    
O13   C29   S    
C16   C18   A    
C26   H10   S    
C8    C35   S    
C35   H37   S    
Cu1   O5    S    
Cu2   O7    S    
C27   H15   S    
