data_mof_unit_22628.cif
_audit_creation_date              2012-12-11T14:52:40-0500
_audit_creation_method            fapswitch 2.2
_symmetry_space_group_name_H-M    P1
_symmetry_Int_Tables_number       1
_space_group_crystal_system       triclinic
_cell_length_a                    18.862085
_cell_length_b                    10.867946
_cell_length_c                    18.797436
_cell_angle_alpha                 89.765774
_cell_angle_beta                  91.240344
_cell_angle_gamma                 89.677063
_cell_volume                      3852.32805478

loop_
_atom_site_label
_atom_site_type_symbol
_atom_type_description
_atom_site_fract_x
_atom_site_fract_y
_atom_site_fract_z
_atom_type_partial_charge
C1    C     C_R   0.273724 0.039342 0.855024 0.541919
C2    C     C_R   0.691148 0.547127 0.035226 -0.144561
C3    C     C_3   0.021138 0.325550 0.065613 0.056401
C4    C     C_R   0.799093 0.017159 0.960632 -0.144743
C5    C     C_R   0.191150 0.047124 0.035226 -0.144561
C6    C     C_R   0.287498 0.487641 0.031839 -0.134305
C7    C     C_R   0.697373 0.533803 0.961846 -0.142000
C8    C     C_R   0.787504 0.987661 0.031842 -0.134302
C9    C     C_R   0.197373 0.033802 0.961846 -0.142001
C10   C     C_R   0.222874 0.519707 0.063279 0.022570
C11   C     C_R   0.760607 0.567423 0.929253 0.030261
C12   C     C_R   0.722877 0.019715 0.063280 0.022582
C13   C     C_R   0.710199 0.997878 0.138874 0.543072
C14   C     C_R   0.260606 0.067427 0.929252 0.030258
C15   C     C_R   0.168490 0.572123 0.021461 -0.147458
C16   C     C_R   0.818020 0.609715 0.970931 -0.143424
C17   C     C_R   0.668490 0.072121 0.021460 -0.147457
C18   C     C_R   0.318018 0.109726 0.970929 -0.143426
C19   C     C_R   0.179482 0.599290 0.950680 -0.133006
C20   C     C_R   0.812636 0.619022 0.043429 -0.143668
C21   C     C_R   0.679482 0.099284 0.950678 -0.133006
C22   C     C_R   0.312634 0.119030 0.043428 -0.143672
C23   C     C_R   0.245618 0.576532 0.920192 0.029226
C24   C     C_R   0.773724 0.539340 0.855025 0.541914
C25   C     C_R   0.748738 0.591625 0.076133 0.030656
C26   C     C_R   0.745619 0.076534 0.920192 0.029225
C27   C     C_R   0.248739 0.091626 0.076133 0.030658
C28   C     C_R   0.529213 0.728988 0.546416 0.398815
C29   C     C_R   0.534778 0.723398 0.473696 0.397579
C30   C     C_R   0.029283 0.229037 0.546438 0.398846
C31   C     C_R   0.034879 0.223447 0.473719 0.397611
C32   C     C_R   0.518345 0.827320 0.430993 -0.027458
C33   C     C_R   0.501838 0.834965 0.577789 -0.027671
C34   C     C_R   0.018383 0.327327 0.431004 -0.027439
C35   C     C_R   0.210198 0.497876 0.138874 0.543076
C36   C     C_R   0.001846 0.334980 0.577794 -0.027666
C37   C     C_R   0.497717 0.937487 0.463011 -0.216645
C38   C     C_R   0.488518 0.940928 0.536232 -0.213878
C39   C     C_R   0.997695 0.437470 0.463007 -0.216695
C40   C     C_R   0.988486 0.440917 0.536226 -0.213919
C41   C     C_R   0.441184 0.817211 0.862896 0.553959
C42   C     C_R   0.553934 0.818163 0.136703 0.533148
C43   C     C_R   0.941186 0.317211 0.862896 0.553957
C44   C     C_R   0.053939 0.318162 0.136703 0.533149
C45   C     C_R   0.198797 0.665849 0.529322 -0.133693
C46   C     C_3   0.514201 0.718850 0.969564 -0.108535
C47   C     C_R   0.786455 0.694425 0.474602 -0.132422
C48   C     C_R   0.698994 0.166391 0.529221 -0.133577
C49   C     C_R   0.286335 0.194566 0.474615 -0.132359
C50   C     C_R   0.199471 0.664879 0.456906 -0.139456
C51   C     C_R   0.786399 0.684139 0.547081 -0.143749
C52   C     C_R   0.699677 0.165316 0.456800 -0.139449
C53   C     C_R   0.286294 0.184206 0.547092 -0.143726
C54   C     C_R   0.249424 0.592527 0.422396 0.028030
C55   C     C_R   0.748108 0.589664 0.577802 0.041477
C56   C     C_R   0.749508 0.092647 0.422341 0.028047
C57   C     C_3   0.469104 0.728670 0.036639 -0.106703
C58   C     C_R   0.248119 0.089559 0.577780 0.041656
C59   C     C_R   0.305411 0.536264 0.460740 -0.131176
C60   C     C_R   0.703164 0.514523 0.536310 -0.054652
C61   C     C_R   0.805413 0.036202 0.460723 -0.131010
C62   C     C_R   0.203294 0.014244 0.536260 -0.054480
C63   C     C_R   0.307281 0.543564 0.534273 -0.133590
C64   C     C_R   0.702823 0.525525 0.463203 -0.078718
C65   C     C_R   0.807267 0.043552 0.534254 -0.133526
C66   C     C_R   0.202944 0.025311 0.463158 -0.078511
C67   C     C_R   0.252908 0.606435 0.568738 0.031037
C68   C     C_3   0.014209 0.218852 0.969561 -0.108534
C69   C     C_R   0.745814 0.613657 0.432307 0.030461
C70   C     C_R   0.752969 0.106677 0.568679 0.031106
C71   C     C_R   0.245813 0.113656 0.432296 0.030640
C72   C     C_R   0.260289 0.634312 0.851475 0.537578
C73   C     C_R   0.739014 0.636524 0.148099 0.533374
C74   C     C_R   0.760289 0.134312 0.851475 0.537599
C75   C     C_R   0.239014 0.136523 0.148099 0.533361
C76   C     C_R   0.270190 0.047704 0.647020 0.554576
C77   C     C_R   0.729694 0.048627 0.352849 0.560853
C78   C     C_R   0.770185 0.547729 0.647029 0.554560
C79   C     C_3   0.969113 0.228669 0.036638 -0.106704
C80   C     C_R   0.229680 0.548605 0.352864 0.560833
C81   C     C_R   0.471337 0.824262 0.647813 0.587244
C82   C     C_R   0.534092 0.822651 0.355584 0.579340
C83   C     C_R   0.971337 0.324264 0.647813 0.587276
C84   C     C_R   0.034108 0.322650 0.355591 0.579372
C85   C     C_R   0.260400 0.638687 0.642525 0.547443
C86   C     C_R   0.739364 0.640575 0.357933 0.551886
C87   C     C_R   0.760416 0.138753 0.642498 0.547474
C88   C     C_R   0.239366 0.140570 0.357928 0.551890
C89   C     C_3   0.476586 0.930321 0.032384 -0.117988
C90   C     C_R   0.299088 0.517142 0.960629 -0.144739
C91   C     C_3   0.521262 0.920390 0.964533 -0.113680
C92   C     C_3   0.976593 0.430321 0.032383 -0.117986
C93   C     C_3   0.021267 0.420393 0.964531 -0.113684
C94   C     C_3   0.424209 0.833251 0.002146 -0.138693
C95   C     C_3   0.566230 0.815834 0.999082 -0.142565
C96   C     C_3   0.924216 0.333248 0.002146 -0.138694
C97   C     C_3   0.066238 0.315838 0.999080 -0.142564
C98   C     C_3   0.469616 0.823317 0.935805 0.057366
C99   C     C_3   0.521130 0.825550 0.065614 0.056401
C100  C     C_3   0.969622 0.323318 0.935804 0.057367
Cr1   Cr    Cr6+3 0.229630 0.835900 0.747350 1.034131
Cr2   Cr    Cr6+3 0.614200 0.677120 0.250660 1.054058
Cr3   Cr    Cr6+3 0.885800 0.177120 0.749340 1.048007
Cr4   Cr    Cr6+3 0.114200 0.177120 0.250660 1.054079
Cr5   Cr    Cr6+3 0.770370 0.835900 0.252650 1.015706
Cr6   Cr    Cr6+3 0.729630 0.335900 0.747350 1.034097
Cr7   Cr    Cr6+3 0.270370 0.335900 0.252650 1.015732
Cr8   Cr    Cr6+3 0.387410 0.989850 0.750850 1.017890
Cr9   Cr    Cr6+3 0.612590 0.989850 0.249150 1.018624
Cr10  Cr    Cr6+3 0.887410 0.489850 0.750850 1.017867
Cr11  Cr    Cr6+3 0.112590 0.489850 0.249150 1.018595
Cr12  Cr    Cr6+3 0.385800 0.677120 0.749340 1.047995
F1    F     F_    0.546405 0.627303 0.585621 -0.600994
F2    F     F_    0.556443 0.614975 0.445663 -0.605964
F3    F     F_    0.046513 0.127389 0.585659 -0.600895
F4    F     F_    0.056635 0.115071 0.445697 -0.605852
H1    H     H_    0.365434 0.839923 0.001744 0.121754
H2    H     H_    0.820484 0.743760 0.578598 0.132862
H3    H     H_    0.656844 0.212293 0.428270 0.141384
H4    H     H_    0.320291 0.243936 0.578635 0.132836
H5    H     H_    0.345225 0.481898 0.434357 0.141124
H6    H     H_    0.672355 0.441717 0.559734 0.161958
H7    H     H_    0.845152 0.981620 0.434374 0.141030
H8    H     H_    0.172594 0.941263 0.559654 0.161765
H9    H     H_    0.350892 0.501064 0.563886 0.148798
H10   H     H_    0.669620 0.465590 0.431015 0.159933
H11   H     H_    0.850788 0.000843 0.563898 0.148596
H12   H     H_    0.624973 0.808442 0.999057 0.116721
H13   H     H_    0.169832 0.965260 0.430947 0.159609
H14   H     H_    0.462527 0.016969 0.059799 0.113944
H15   H     H_    0.540774 0.998728 0.932698 0.120377
H16   H     H_    0.962536 0.516970 0.059797 0.113943
H17   H     H_    0.040774 0.498735 0.932698 0.120377
H18   H     H_    0.529724 0.631522 0.943532 0.126002
H19   H     H_    0.447549 0.649789 0.066872 0.132459
H20   H     H_    0.029731 0.131523 0.943532 0.126001
H21   H     H_    0.947561 0.149783 0.066867 0.132455
H22   H     H_    0.350602 0.499015 0.938435 0.124871
H23   H     H_    0.865441 0.339919 0.001746 0.121754
H24   H     H_    0.640809 0.527324 0.059318 0.132221
H25   H     H_    0.850608 0.999041 0.938440 0.124870
H26   H     H_    0.140811 0.027316 0.059319 0.132219
H27   H     H_    0.329885 0.444224 0.062735 0.132839
H28   H     H_    0.653125 0.498059 0.930777 0.125371
H29   H     H_    0.829893 0.944255 0.062740 0.132837
H30   H     H_    0.153127 0.998055 0.930777 0.125373
H31   H     H_    0.117586 0.594438 0.043887 0.129000
H32   H     H_    0.868502 0.632776 0.948061 0.138087
H33   H     H_    0.617584 0.094431 0.043885 0.129000
H34   H     H_    0.124981 0.308454 0.999054 0.116726
H35   H     H_    0.368498 0.132793 0.948059 0.138088
H36   H     H_    0.136958 0.644579 0.920909 0.131110
H37   H     H_    0.857877 0.653863 0.073398 0.129380
H38   H     H_    0.636955 0.144562 0.920905 0.131109
H39   H     H_    0.357875 0.153873 0.073397 0.129380
H40   H     H_    0.487027 0.019303 0.431368 0.155753
H41   H     H_    0.467312 0.023988 0.559536 0.166439
H42   H     H_    0.986962 0.519260 0.431354 0.155694
H43   H     H_    0.967235 0.523953 0.559517 0.166414
H44   H     H_    0.156745 0.717495 0.554045 0.143940
H45   H     H_    0.818204 0.766637 0.451923 0.143104
H46   H     H_    0.657019 0.218267 0.553914 0.143866
H47   H     H_    0.317978 0.266938 0.451954 0.143169
H48   H     H_    0.156554 0.711702 0.428418 0.141512
O1    O     O_R   0.214270 0.709000 0.827470 -0.522040
O2    O     O_R   0.543270 0.717630 0.330160 -0.436565
O3    O     O_R   0.956730 0.217630 0.669840 -0.440227
O4    O     O_R   0.043270 0.217630 0.330160 -0.436604
O5    O     O_R   0.320620 0.625640 0.672920 -0.503582
O6    O     O_R   0.679380 0.625640 0.327080 -0.472140
O7    O     O_R   0.820620 0.125640 0.672920 -0.503573
O8    O     O_R   0.179380 0.125640 0.327080 -0.472010
O9    O     O_3   0.334280 0.834290 0.749180 -0.275005
O10   O     O_3   0.665720 0.834290 0.250820 -0.287462
O11   O     O_3   0.834280 0.334290 0.749180 -0.274999
O12   O     O_R   0.785730 0.709000 0.172530 -0.531663
O13   O     O_3   0.165720 0.334290 0.250820 -0.287481
O14   O     O_R   0.236160 0.958490 0.823130 -0.500949
O15   O     O_R   0.763840 0.958490 0.176870 -0.501258
O16   O     O_R   0.736160 0.458490 0.823130 -0.500958
O17   O     O_R   0.263840 0.458490 0.176870 -0.501242
O18   O     O_R   0.332080 0.075470 0.831280 -0.532478
O19   O     O_R   0.667920 0.075470 0.168720 -0.516047
O20   O     O_R   0.832080 0.575470 0.831280 -0.532479
O21   O     O_R   0.167920 0.575470 0.168720 -0.516034
O22   O     O_R   0.446300 0.918110 0.826620 -0.505187
O23   O     O_R   0.714270 0.209000 0.827470 -0.522026
O24   O     O_R   0.553700 0.918110 0.173380 -0.516789
O25   O     O_R   0.946300 0.418110 0.826620 -0.505187
O26   O     O_R   0.053700 0.418110 0.173380 -0.516784
O27   O     O_R   0.457110 0.716200 0.831760 -0.518325
O28   O     O_R   0.542890 0.716200 0.168240 -0.519212
O29   O     O_R   0.957110 0.216200 0.831760 -0.518318
O30   O     O_R   0.042890 0.216200 0.168240 -0.519215
O31   O     O_R   0.320980 0.624310 0.823030 -0.520968
O32   O     O_R   0.679020 0.624310 0.176970 -0.521281
O33   O     O_R   0.820980 0.124310 0.823030 -0.520960
O34   O     O_R   0.285730 0.209000 0.172530 -0.531667
O35   O     O_R   0.179020 0.124310 0.176970 -0.521296
O36   O     O_R   0.213890 0.710430 0.665540 -0.525177
O37   O     O_R   0.786110 0.710430 0.334460 -0.529297
O38   O     O_R   0.713890 0.210430 0.665540 -0.525144
O39   O     O_R   0.286110 0.210430 0.334460 -0.529319
O40   O     O_R   0.235810 0.959820 0.673020 -0.496229
O41   O     O_R   0.764190 0.959820 0.326980 -0.500877
O42   O     O_R   0.735810 0.459820 0.673020 -0.496301
O43   O     O_R   0.264190 0.459820 0.326980 -0.500853
O44   O     O_R   0.331700 0.076900 0.669350 -0.524226
O45   O     O_R   0.445950 0.919440 0.676520 -0.512330
O46   O     O_R   0.668300 0.076900 0.330650 -0.518473
O47   O     O_R   0.831700 0.576900 0.669350 -0.524231
O48   O     O_R   0.168300 0.576900 0.330650 -0.518544
O49   O     O_R   0.554050 0.919440 0.323480 -0.507283
O50   O     O_R   0.945950 0.419440 0.676520 -0.512337
O51   O     O_R   0.054050 0.419440 0.323480 -0.507305
O52   O     O_R   0.456730 0.717630 0.669840 -0.440201

loop_
_geom_bond_atom_site_label_1
_geom_bond_atom_site_label_2
_ccdc_geom_bond_type
C59   H5    S    
C81   O45   A    
C21   C26   A    
C58   C62   A    
C88   O8    A    
C53   C58   A    
C24   O20   A    
C72   O1    A    
C11   C24   S    
C40   H43   S    
Cr1   O9    S    
Cr10  O47   S    
C4    C8    A    
C3    C79   S    
C96   H23   S    
C68   C100  S    
Cr8   O45   S    
Cr1   O36   S    
C58   C76   S    
Cr12  O5    S    
Cr10  O11   S    
Cr3   O3    S    
C5    C9    A    
C50   C54   A    
C21   H38   S    
Cr7   O17   S    
C65   H11   S    
Cr8   O22   S    
C16   C20   A    
Cr10  O50   S    
C25   C73   S    
Cr11  O51   S    
Cr6   O23   S    
C15   C19   A    
C29   C32   A    
Cr9   O49   S    
C10   C15   A    
C30   C31   A    
C94   H1    S    
C95   C99   S    
C81   O52   A    
Cr6   O38   S    
C20   C25   A    
C94   C98   S    
C36   C83   S    
C65   C70   A    
C57   C99   S    
Cr6   O42   S    
C9    H30   S    
C92   C96   S    
C51   H2    S    
C76   O44   A    
Cr3   O33   S    
C89   C94   S    
C14   C18   A    
C68   C97   S    
C47   C69   A    
Cr1   O14   S    
C29   F2    S    
C44   O26   A    
C5    C27   A    
C95   H12   S    
C46   C95   S    
C2    C7    A    
C13   O19   A    
Cr5   O12   S    
C12   C17   A    
Cr8   O44   S    
Cr2   O28   S    
C97   H34   S    
C10   C35   S    
C89   C91   S    
C87   O38   A    
Cr7   O43   S    
C84   O51   A    
C35   O21   A    
C54   C59   A    
C66   H13   S    
Cr9   O19   S    
C68   C79   S    
Cr12  O9    S    
C46   C98   S    
C48   H46   S    
Cr10  O20   S    
Cr2   O2    S    
C18   C22   A    
C55   C60   A    
Cr7   O13   S    
Cr3   O7    S    
C37   H40   S    
Cr7   O39   S    
C45   H44   S    
C34   C84   S    
C72   O31   A    
C27   C75   S    
C70   C87   S    
Cr6   O16   S    
C7    H28   S    
C90   H22   S    
Cr5   O15   S    
C60   C64   A    
C54   C80   S    
C30   F3    S    
Cr9   O24   S    
C4    C26   A    
Cr11  O48   S    
C63   C67   A    
C3    C44   S    
C67   C85   S    
Cr11  O21   S    
C20   H37   S    
C62   C66   A    
C50   H48   S    
C34   C39   A    
C57   C94   S    
C68   H20   S    
C43   C100  S    
C39   C40   A    
C55   C78   S    
C41   O27   A    
Cr9   O10   S    
C92   C93   S    
C47   C51   A    
C6    C90   A    
C83   O3    A    
C42   O28   A    
C85   O5    A    
C89   H14   S    
C3    C92   S    
C16   H32   S    
C31   F4    S    
C7    C11   A    
C9    C14   A    
C78   O42   A    
Cr12  O31   S    
C24   O16   A    
C37   C38   A    
C84   O4    A    
Cr8   O18   S    
C77   O41   A    
Cr4   O4    S    
C82   O49   A    
C1    O14   A    
C3    C97   S    
C85   O36   A    
Cr5   O37   S    
Cr4   O13   S    
C93   C100  S    
C74   O33   A    
C36   C40   A    
C8    C12   A    
C87   O7    A    
Cr8   O9    S    
C8    H29   S    
Cr3   O11   S    
C19   H36   S    
C23   C90   A    
C56   C61   A    
C32   C37   A    
Cr1   O1    S    
C86   O37   A    
C63   H9    S    
C66   C71   A    
C77   O46   A    
C79   H21   S    
C89   C99   S    
C28   C33   A    
C64   H10   S    
Cr5   O10   S    
C39   H42   S    
C22   C27   A    
Cr4   O35   S    
C35   O17   A    
Cr9   O46   S    
C93   C97   S    
Cr4   O8    S    
C4    H25   S    
C83   O50   A    
C31   C34   A    
C19   C23   A    
C74   O23   A    
C82   O2    A    
C75   O34   A    
C42   O24   A    
C28   C29   A    
C92   H16   S    
C86   O6    A    
C59   C63   A    
C23   C72   S    
C17   H33   S    
C62   H8    S    
C38   H41   S    
C48   C70   A    
Cr1   O40   S    
Cr2   O32   S    
C6    C10   A    
Cr6   O11   S    
C61   C65   A    
C1    O18   A    
C76   O40   A    
Cr5   O41   S    
C45   C67   A    
C46   H18   S    
C75   O35   A    
Cr2   O10   S    
C64   C69   A    
C43   O29   A    
Cr10  O25   S    
C93   H17   S    
C33   C38   A    
C30   C36   A    
C61   H7    S    
C2    H24   S    
C73   O12   A    
Cr2   O6    S    
C79   C96   S    
C46   C57   S    
C13   O15   A    
C42   C99   S    
C32   C82   S    
C15   H31   S    
C91   C98   S    
C5    H26   S    
C52   C56   A    
C45   C50   A    
C49   C53   A    
C96   C100  S    
C22   H39   S    
C44   O30   A    
C26   C74   S    
C41   O22   A    
C2    C25   A    
C51   C55   A    
Cr12  O52   S    
C88   O39   A    
C80   O48   A    
C17   C21   A    
C49   H47   S    
C11   C16   A    
C28   F1    S    
C56   C77   S    
C91   C95   S    
C71   C88   S    
C47   H45   S    
C52   H3    S    
C60   H6    S    
C48   C52   A    
C80   O43   A    
C91   H15   S    
C12   C13   S    
C43   O25   A    
Cr11  O26   S    
C49   C71   A    
C73   O32   A    
C53   H4    S    
Cr11  O13   S    
Cr4   O30   S    
C41   C98   S    
C57   H19   S    
C1    C14   S    
Cr3   O29   S    
C6    H27   S    
C33   C81   S    
C78   O47   A    
C69   C86   S    
C18   H35   S    
Cr7   O34   S    
Cr12  O27   S    
