data_mof_unit_17665.cif
_audit_creation_date              2013-03-05T16:01:45-0500
_audit_creation_method            fapswitch 2.2
_symmetry_space_group_name_H-M    P1
_symmetry_Int_Tables_number       1
_space_group_crystal_system       triclinic
_cell_length_a                    14.784656
_cell_length_b                    14.795842
_cell_length_c                    27.72979
_cell_angle_alpha                 73.79711
_cell_angle_beta                  101.593439
_cell_angle_gamma                 115.439116
_cell_volume                      5237.1555227

loop_
_atom_site_label
_atom_site_type_symbol
_atom_site_description
_atom_site_fract_x
_atom_site_fract_y
_atom_site_fract_z
_atom_type_partial_charge
O1    O     O_R   0.977900 0.338120 0.517190 -0.532326
O2    O     O_R   0.022100 0.661880 0.482810 -0.537272
O3    O     O_R   0.839850 0.379180 0.495160 -0.515813
O4    O     O_R   0.160150 0.620820 0.504840 -0.513386
C1    C     C_R   0.880600 0.311323 0.508754 0.897720
C2    C     C_R   0.119199 0.688488 0.491383 0.913423
O5    O     O_R   0.069030 0.479490 0.580750 -0.520929
O6    O     O_R   0.930970 0.520510 0.419250 -0.525555
O7    O     O_R   0.930970 0.520550 0.558720 -0.557872
O8    O     O_R   0.069030 0.479450 0.441280 -0.551782
C3    C     C_R   0.998621 0.498918 0.592261 0.909299
C4    C     C_R   0.001087 0.501027 0.407759 0.915747
Cu1   Cu    Cu3+1 0.081740 0.475690 0.513040 1.162748
Cu2   Cu    Cu3+1 0.918260 0.524310 0.486960 1.154918
C5    C     C_R   0.915715 0.436008 0.823590 0.721367
C6    C     C_R   0.113519 0.534698 0.184895 0.703934
O9    O     O_2   0.829375 0.384882 0.797804 -0.399194
O10   O     O_2   0.202848 0.576979 0.210922 -0.357856
N1    N     N_R   0.997837 0.499702 0.797863 -0.436004
N2    N     N_R   0.029341 0.472278 0.209907 -0.446820
C7    C     C_R   0.085213 0.559064 0.821047 0.677699
C8    C     C_R   0.967669 0.385582 0.192153 0.665161
C9    C     C_R   0.987409 0.582288 0.706735 0.317224
C10   C     C_R   0.923070 0.429934 0.281357 0.322790
C11   C     C_R   0.988624 0.579714 0.656686 -0.239816
C12   C     C_R   0.923246 0.431510 0.331676 -0.278984
C13   C     C_R   0.997559 0.412202 0.683907 0.198031
C14   C     C_R   0.078643 0.582767 0.325597 0.234116
C15   C     C_R   0.999090 0.415535 0.734040 0.602382
C16   C     C_R   0.079992 0.578179 0.275907 0.616535
C17   C     C_R   0.994046 0.499482 0.745703 0.041048
C18   C     C_R   0.012362 0.491299 0.256196 0.004002
C19   C     C_R   0.009332 0.489530 0.900621 -0.106830
C20   C     C_R   0.030275 0.469579 0.109845 -0.113152
C21   C     C_R   0.921074 0.424735 0.876216 -0.138017
C22   C     C_R   0.110000 0.544617 0.132668 -0.146736
C23   C     C_R   0.840750 0.352739 0.904967 0.345398
C24   C     C_R   0.184231 0.625415 0.103161 0.342243
C25   C     C_R   0.091379 0.560128 0.872375 -0.125203
C26   C     C_R   0.958593 0.386853 0.140245 -0.124565
C27   C     C_R   0.994800 0.496332 0.645093 -0.247821
C28   C     C_R   0.003379 0.503605 0.354836 -0.248535
C29   C     C_R   0.945642 0.398252 0.035120 0.025087
C30   C     C_R   0.101688 0.552111 0.977050 0.024646
C31   C     C_R   0.103970 0.551376 0.028740 0.026856
C32   C     C_R   0.936051 0.408628 0.981977 0.025580
C33   C     C_R   0.026379 0.473370 0.057717 0.097836
C34   C     C_R   0.015649 0.483511 0.953303 0.095532
C35   C     C_R   0.877570 0.314176 0.066600 -0.210932
C36   C     C_R   0.182797 0.619902 0.948215 -0.207934
C37   C     C_R   0.882621 0.307924 0.118148 0.350482
C38   C     C_R   0.177979 0.626181 0.896791 0.346268
O11   O     O_2   0.922441 0.296961 0.224820 -0.407537
O12   O     O_2   0.165931 0.614834 0.794418 -0.421573
C39   C     C_R   0.848497 0.346895 0.956517 -0.205780
C40   C     C_R   0.180599 0.627556 0.052240 -0.207823
H1    H     H_    0.858129 0.380092 0.352084 0.229832
H2    H     H_    0.984764 0.643065 0.626401 0.226567
H3    H     H_    0.819185 0.250610 0.052270 0.189225
H4    H     H_    0.252454 0.669915 0.964586 0.189564
H5    H     H_    0.783145 0.292986 0.975715 0.187882
H6    H     H_    0.236327 0.693905 0.031306 0.188706
C41   C     C_R   0.813311 0.200635 0.518297 -0.317733
C42   C     C_R   0.185637 0.798991 0.483528 -0.321335
C43   C     C_R   0.771771 0.024378 0.565793 0.298405
C44   C     C_R   0.229391 0.976574 0.437897 0.308772
C45   C     C_R   0.843410 0.124757 0.551602 0.176698
C46   C     C_R   0.158973 0.874466 0.447686 0.172830
C47   C     C_R   0.713808 0.172413 0.496671 0.702075
C48   C     C_R   0.280308 0.827873 0.510656 0.700229
C49   C     C_R   0.638040 0.076355 0.515465 -0.079782
C50   C     C_R   0.357487 0.925296 0.495469 -0.083799
C51   C     C_R   0.669137 0.999561 0.547707 -0.321533
C52   C     C_R   0.328553 0.002623 0.462020 -0.309551
C53   C     C_R   0.532967 0.052833 0.501223 -0.176179
C54   C     C_R   0.461723 0.949162 0.512889 -0.189936
C55   C     C_R   0.498620 0.872889 0.538882 0.685919
C56   C     C_R   0.495925 0.129800 0.477482 0.705649
C57   C     C_R   0.598313 0.897986 0.557844 0.623463
C58   C     C_R   0.397385 0.105146 0.456402 0.605922
N3    N     N_R   0.795430 0.560780 0.467350 -0.329059
N4    N     N_R   0.204570 0.439220 0.532650 -0.327468
C59   C     C_R   0.697242 0.626137 0.398739 0.187325
C60   C     C_R   0.275115 0.324245 0.588016 0.196959
C61   C     C_R   0.788026 0.618595 0.420445 0.723579
C62   C     C_R   0.198569 0.360650 0.573102 0.723644
C63   C     C_R   0.714805 0.512321 0.496250 0.479697
C64   C     C_R   0.288121 0.486996 0.505811 0.474424
C65   C     C_R   0.617479 0.511193 0.475049 -0.109364
C66   C     C_R   0.361341 0.443626 0.514694 -0.134423
C67   C     C_R   0.610653 0.571692 0.425616 -0.331221
C68   C     C_R   0.356136 0.363888 0.557917 -0.317606
C69   C     C_R   0.527388 0.455368 0.501360 -0.135403
C70   C     C_R   0.441592 0.479500 0.483087 -0.156313
C71   C     C_R   0.434145 0.528423 0.431911 0.649368
C72   C     C_R   0.513739 0.368248 0.541301 0.668876
C73   C     C_R   0.517105 0.575393 0.404097 0.678901
C74   C     C_R   0.429913 0.323160 0.568614 0.654405
N5    N     N_R   0.992020 0.320876 0.672594 0.210305
O13   O     O_R   0.042366 0.269183 0.701692 -0.136603
O14   O     O_R   0.926568 0.281949 0.637083 -0.293543
N6    N     N_R   0.149458 0.671589 0.344263 0.197686
O15   O     O_R   0.239759 0.719511 0.329607 -0.137456
O16   O     O_R   0.121851 0.710069 0.372675 -0.313914
F1    F     F_    0.289613 0.765760 0.556092 -0.572206
F2    F     F_    0.695934 0.234129 0.452719 -0.586578
N7    N     N_R   0.060044 0.849289 0.421745 0.205841
O17   O     O_R   0.986110 0.836002 0.445345 -0.254116
O18   O     O_R   0.048788 0.864107 0.372797 -0.163195
N8    N     N_R   0.946894 0.146875 0.569826 0.206005
O19   O     O_R   0.010222 0.163964 0.538552 -0.279946
O20   O     O_R   0.971740 0.124507 0.618054 -0.141159
N9    N     N_R   0.804434 0.948546 0.599296 0.224363
O21   O     O_R   0.781526 0.915370 0.645726 -0.169681
O22   O     O_R   0.866178 0.921430 0.585194 -0.207235
N10   N     N_R   0.200454 0.052116 0.401471 0.218402
O23   O     O_R   0.241916 0.094916 0.359179 -0.192445
O24   O     O_R   0.125652 0.070198 0.408148 -0.214724
F3    F     F_    0.442072 0.771554 0.543768 -0.521890
F4    F     F_    0.551731 0.230277 0.477027 -0.534281
F5    F     F_    0.504059 0.625014 0.355753 -0.511066
F6    F     F_    0.419711 0.235758 0.604068 -0.531017
N11   N     N_R   0.310895 0.588982 0.475586 0.187191
O25   O     O_R   0.400816 0.659509 0.480524 -0.270683
O26   O     O_R   0.250481 0.607162 0.436953 -0.244834
N12   N     N_R   0.732805 0.477129 0.549496 0.163833
O27   O     O_R   0.720859 0.521820 0.580606 -0.298929
O28   O     O_R   0.752872 0.395864 0.567361 -0.229177
F7    F     F_    0.119966 0.320974 0.601223 -0.547523
F8    F     F_    0.869048 0.667221 0.393367 -0.547380
N13   N     N_R   0.694150 0.686330 0.348541 0.227737
O29   O     O_R   0.748080 0.784550 0.339688 -0.180316
O30   O     O_R   0.656666 0.640745 0.310869 -0.179489
N14   N     N_R   0.270824 0.249955 0.634536 0.225214
O31   O     O_R   0.189897 0.166633 0.643163 -0.149613
O32   O     O_R   0.341140 0.272874 0.671182 -0.187614
F9    F     F_    0.343601 0.521066 0.406497 -0.559924
F10   F     F_    0.570670 0.313849 0.548976 -0.536190
F11   F     F_    0.002525 0.335510 0.771958 -0.554067
F12   F     F_    0.136087 0.665838 0.245119 -0.524352
N15   N     N_R   0.752044 0.280455 0.883444 0.176342
O33   O     O_R   0.663805 0.271892 0.890056 -0.241829
O34   O     O_R   0.758791 0.208948 0.867518 -0.203987
N16   N     N_R   0.259370 0.710772 0.122921 0.179464
O35   O     O_R   0.351176 0.749815 0.110677 -0.239671
O36   O     O_R   0.232575 0.760651 0.145328 -0.183774
N17   N     N_R   0.827831 0.381110 0.254455 0.196790
O37   O     O_R   0.758523 0.298914 0.277431 -0.211078
O38   O     O_R   0.804208 0.428090 0.209775 -0.269567
N18   N     N_R   0.979271 0.668527 0.717191 0.191979
O39   O     O_R   0.002517 0.755277 0.684211 -0.216381
O40   O     O_R   0.941209 0.659144 0.757627 -0.269521
N19   N     N_R   0.805454 0.223706 0.146341 0.177731
O41   O     O_R   0.744228 0.241277 0.166643 -0.189990
O42   O     O_R   0.783159 0.130532 0.142715 -0.236205
N20   N     N_R   0.260508 0.704507 0.869861 0.177045
O43   O     O_R   0.246591 0.779849 0.836256 -0.202161
O44   O     O_R   0.351955 0.712649 0.886271 -0.245427
F13   F     F_    0.625687 0.819114 0.582694 -0.528481
F14   F     F_    0.368655 0.183903 0.433500 -0.556946

loop_
_geom_bond_atom_site_label_1
_geom_bond_atom_site_label_2
_geom_bond_distance
_ccdc_geom_bond_type
C44   C46   1.404805 A    
C53   C54   1.427927 A    
C69   C70   1.422325 A    
C13   C15   1.400071 A    
N17   O37   1.301674 A    
C50   C54   1.435788 A    
N1    C17   1.437037 S    
C23   N15   1.434108 S    
C68   C74   1.405629 A    
N11   O25   1.299937 A    
C55   F3    1.349287 S    
O5    C3    1.307660 A    
C13   N5    1.436034 S    
C19   C25   1.418734 A    
C44   N10   1.435148 S    
O1    C1    1.306843 A    
C42   C46   1.411234 A    
N20   O43   1.301388 A    
N17   O38   1.301613 A    
C60   C62   1.397574 A    
N15   O34   1.301340 A    
C57   F13   1.358434 S    
C7    O12   1.348507 S    
C56   C58   1.384698 A    
C58   F14   1.358462 S    
C44   C52   1.417631 A    
C43   C51   1.416715 A    
N10   O23   1.301189 A    
C1    C41   1.485289 S    
C5    O9    1.348474 S    
C2    C42   1.480868 S    
O4    Cu1   1.923919 S    
C47   C49   1.414191 A    
N8    O19   1.301247 A    
C4    C28   1.464197 S    
C5    N1    1.364242 A    
C37   N19   1.434931 S    
C41   C47   1.398433 A    
C31   C40   1.412347 A    
N10   O24   1.301168 A    
C73   F5    1.357128 S    
C43   C45   1.404424 A    
C72   C74   1.392701 A    
C32   C39   1.408955 A    
C36   C38   1.392123 A    
N7    O17   1.301110 A    
C46   N7    1.433217 S    
C42   C48   1.396405 A    
N19   O42   1.301121 A    
C6    N2    1.372902 A    
C55   C57   1.383498 A    
C25   C38   1.413750 A    
C52   C58   1.402350 A    
Cu1   Cu2   2.717209 S    
N7    O18   1.300974 A    
O2    C2    1.304576 A    
C43   N9    1.434794 S    
C64   N11   1.436641 S    
C5    C21   1.411645 A    
C53   C56   1.415151 A    
C66   C70   1.440478 A    
C8    O11   1.346958 S    
C32   C34   1.417391 A    
C31   C33   1.417464 A    
C15   F11   1.358487 S    
C41   C45   1.413057 A    
C71   F9    1.356076 S    
C16   F12   1.356993 S    
N6    O15   1.301660 A    
C16   C18   1.420988 A    
C54   C55   1.416891 A    
N16   O36   1.301406 A    
C11   C27   1.401293 A    
C49   C51   1.420707 A    
C29   C35   1.412061 A    
C72   F10   1.347606 S    
N14   O32   1.301235 A    
O6    Cu2   1.942574 S    
C35   C37   1.395195 A    
N4    C62   1.356906 A    
Cu1   N4    2.041058 S    
C10   N17   1.437256 S    
C9    C17   1.414276 A    
C12   H1    1.084140 S    
C56   F4    1.353132 S    
O7    Cu2   1.948072 S    
C10   C18   1.428606 A    
C59   N13   1.431922 S    
N18   O40   1.301089 A    
C61   F8    1.354975 S    
C13   C27   1.409897 A    
C45   N8    1.433420 S    
C66   C68   1.415727 A    
N5    O13   1.301300 A    
C7    C25   1.411928 A    
O6    C4    1.303864 A    
C8    C26   1.414093 A    
C51   C57   1.401685 A    
C67   C73   1.409641 A    
N6    O16   1.300271 A    
O7    C3    1.304949 A    
N3    C63   1.380654 A    
O3    Cu2   1.923918 S    
O8    C4    1.307511 A    
C50   C52   1.421636 A    
C59   C61   1.393822 A    
C9    N18   1.441881 S    
C64   C66   1.430274 A    
C69   C72   1.413713 A    
C63   C65   1.435714 A    
C40   H6    1.076505 S    
O4    C2    1.315176 A    
O1    Cu1   1.941384 S    
C11   H2    1.083748 S    
N13   O29   1.300790 A    
O3    C1    1.315394 A    
C30   C31   1.424064 A    
C12   C28   1.394534 A    
N9    O21   1.301159 A    
N2    C18   1.477033 S    
C30   C36   1.409922 A    
C74   F6    1.357983 S    
C60   N14   1.434560 S    
N12   O28   1.301584 A    
C14   C28   1.407288 A    
N1    C7    1.363851 A    
C24   N16   1.437211 S    
C10   C12   1.401477 A    
N2    C8    1.373449 A    
N16   O35   1.301326 A    
N13   O30   1.301042 A    
O8    Cu1   1.948069 S    
C47   F2    1.358612 S    
C71   C73   1.389623 A    
C62   F7    1.351265 S    
N14   O31   1.300723 A    
C38   N20   1.434563 S    
C26   C37   1.413052 A    
C59   C67   1.416237 A    
C35   H3    1.077412 S    
C48   F1    1.357846 S    
C36   H4    1.076632 S    
C22   C24   1.411020 A    
C21   C23   1.414375 A    
C15   C17   1.402250 A    
N15   O33   1.301070 A    
C6    C22   1.406883 A    
C49   C53   1.433881 A    
N12   O27   1.300977 A    
N4    C64   1.380304 A    
C39   H5    1.077420 S    
N20   O44   1.301123 A    
C19   C21   1.418512 A    
C14   C16   1.402830 A    
C3    C27   1.466656 S    
C20   C22   1.410879 A    
C9    C11   1.402849 A    
C65   C69   1.448388 A    
C70   C71   1.407964 A    
O2    Cu2   1.941384 S    
C29   C32   1.422581 A    
N8    O20   1.301133 A    
N11   O26   1.295682 A    
C23   C39   1.392014 A    
C14   N6    1.439079 S    
O5    Cu1   1.942575 S    
C24   C40   1.394197 A    
C6    O10   1.347426 S    
C65   C67   1.423977 A    
C19   C34   1.424933 A    
N18   O39   1.301632 A    
C20   C26   1.414503 A    
C48   C50   1.413685 A    
C20   C33   1.421246 A    
C60   C68   1.414416 A    
Cu2   N3    2.041055 S    
N19   O41   1.300990 A    
C29   C33   1.414594 A    
N5    O14   1.300953 A    
C63   N12   1.433210 S    
N3    C61   1.355643 A    
C30   C34   1.417423 A    
N9    O22   1.301101 A    
