data_mof_unit_18620.cif
_audit_creation_date              2012-12-11T16:45:50-0500
_audit_creation_method            fapswitch 2.2
_symmetry_space_group_name_H-M    P1
_symmetry_Int_Tables_number       1
_space_group_crystal_system       triclinic
_cell_length_a                    19.896883
_cell_length_b                    17.171898
_cell_length_c                    15.325009
_cell_angle_alpha                 90.000015
_cell_angle_beta                  52.132816
_cell_angle_gamma                 89.999989
_cell_volume                      4133.52809531

loop_
_atom_site_label
_atom_site_type_symbol
_atom_type_description
_atom_site_fract_x
_atom_site_fract_y
_atom_site_fract_z
_atom_type_partial_charge
C1    C     C_R   0.846656 0.679488 0.031474 0.566657
C2    C     C_R   0.148303 0.311014 0.070674 0.077240
C3    C     C_3   0.427095 0.358495 0.654307 -0.274989
C4    C     C_3   0.416835 0.424629 0.727853 -1.036502
C5    C     C_3   0.634351 0.288991 0.275013 0.213255
C6    C     C_3   0.574304 0.357033 0.342228 -0.281733
C7    C     C_3   0.586037 0.422471 0.266945 -1.027079
C8    C     C_3   0.744902 0.547090 0.895363 0.225758
C9    C     C_3   0.676811 0.513573 0.011296 -0.349124
C10   C     C_3   0.588147 0.523166 0.042358 -1.021973
C11   C     C_3   0.254871 0.548323 0.104871 0.229330
C12   C     C_3   0.323367 0.517353 0.987356 -0.351369
C13   C     C_R   0.351696 0.811015 0.929327 0.077241
C14   C     C_3   0.411933 0.526172 0.956792 -1.023054
C15   C     C_3   0.245128 0.048322 0.895128 0.229329
C16   C     C_3   0.176632 0.017354 0.012645 -0.351370
C17   C     C_3   0.088066 0.026168 0.043206 -1.023043
C18   C     C_3   0.755098 0.047091 0.104637 0.225762
C19   C     C_3   0.823190 0.013577 0.988703 -0.349129
C20   C     C_3   0.911854 0.023170 0.957640 -1.021988
C21   C     C_R   0.648755 0.811105 0.070137 0.075481
C22   C     C_R   0.883922 0.684868 0.307312 0.041471
C23   C     C_R   0.115679 0.685023 0.692959 0.037671
C24   C     C_R   0.384320 0.185023 0.307041 0.037674
C25   C     C_R   0.616078 0.184868 0.692687 0.041474
C26   C     C_R   0.868505 0.731236 0.474118 0.127664
C27   C     C_R   0.131279 0.731545 0.526067 0.125880
C28   C     C_R   0.368721 0.231544 0.473933 0.125884
C29   C     C_R   0.152155 0.680176 0.969989 0.568662
C30   C     C_R   0.631496 0.231236 0.525882 0.127662
C31   C     C_R   0.868296 0.745800 0.384748 0.057544
C32   C     C_R   0.131484 0.745972 0.615461 0.057212
C33   C     C_R   0.368516 0.245972 0.384539 0.057212
C34   C     C_R   0.631704 0.245799 0.615251 0.057544
C35   C     C_R   0.344143 0.321419 0.377751 -0.209763
C36   C     C_R   0.655781 0.321358 0.622129 -0.209780
C37   C     C_R   0.844219 0.821358 0.377871 -0.209783
C38   C     C_R   0.155857 0.821419 0.622249 -0.209762
C39   C     C_R   0.300044 0.369656 0.470912 -0.150405
C40   C     C_R   0.347843 0.180176 0.030012 0.568660
C41   C     C_R   0.699736 0.369618 0.528992 -0.149499
C42   C     C_R   0.800264 0.869618 0.471008 -0.149498
C43   C     C_R   0.199956 0.869656 0.529088 -0.150406
C44   C     C_R   0.278814 0.342160 0.571947 -0.004082
C45   C     C_R   0.721160 0.341990 0.427909 -0.004558
C46   C     C_R   0.778840 0.841990 0.572090 -0.004558
C47   C     C_R   0.221186 0.842160 0.428053 -0.004080
C48   C     C_R   0.829086 0.780187 0.563943 -0.031289
C49   C     C_R   0.170771 0.780519 0.436296 -0.031862
C50   C     C_R   0.329229 0.280519 0.563704 -0.031862
C51   C     C_R   0.653344 0.179488 0.968527 0.566655
C52   C     C_R   0.670914 0.280187 0.436056 -0.031290
C53   C     C_3   0.824839 0.715971 0.634743 0.449985
C54   C     C_3   0.174556 0.716588 0.365538 0.451453
C55   C     C_3   0.325443 0.216587 0.634462 0.451452
C56   C     C_3   0.675161 0.215971 0.365256 0.449984
C57   C     C_R   0.847711 0.331596 0.220661 -0.143762
C58   C     C_R   0.152385 0.331710 0.779314 -0.144998
C59   C     C_R   0.347615 0.831710 0.220686 -0.144998
C60   C     C_R   0.652289 0.831596 0.779339 -0.143761
C61   C     C_3   0.862334 0.661693 0.536150 -0.558090
C62   C     C_R   0.803400 0.366250 0.324387 0.063810
C63   C     C_3   0.136965 0.662185 0.464079 -0.557513
C64   C     C_3   0.363034 0.162184 0.535922 -0.557514
C65   C     C_3   0.637665 0.161693 0.463850 -0.558090
C66   C     C_2   0.759359 0.203781 0.997954 -0.143748
C67   C     C_2   0.241538 0.204800 0.000430 -0.165158
C68   C     C_2   0.258459 0.704802 0.999573 -0.165153
C69   C     C_2   0.740640 0.703780 0.002047 -0.143742
C70   C     C_2   0.308563 0.752555 0.914175 -0.141470
C71   C     C_2   0.690961 0.752365 0.086499 -0.123617
C72   C     C_2   0.809039 0.252365 0.913501 -0.123614
C73   C     C_R   0.196630 0.366375 0.675571 0.064437
C74   C     C_2   0.191434 0.252554 0.085828 -0.141465
C75   C     C_R   0.868727 0.387120 0.893715 -0.097537
C76   C     C_R   0.131234 0.387139 0.106349 -0.105042
C77   C     C_R   0.368765 0.887139 0.893651 -0.105042
C78   C     C_R   0.631273 0.887120 0.106285 -0.097536
C79   C     C_R   0.905369 0.607988 0.305184 -0.132794
C80   C     C_R   0.094478 0.608074 0.694909 -0.132609
C81   C     C_R   0.405522 0.108074 0.305091 -0.132610
C82   C     C_R   0.594631 0.107988 0.694816 -0.132795
C83   C     C_R   0.878895 0.299007 0.990834 -0.156883
C84   C     C_R   0.303370 0.866375 0.324429 0.064436
C85   C     C_R   0.120671 0.298931 0.009686 -0.151829
C86   C     C_R   0.379328 0.798931 0.990315 -0.151830
C87   C     C_R   0.621105 0.799007 0.009166 -0.156883
C88   C     C_R   0.894042 0.697119 0.210967 -0.109996
C89   C     C_R   0.105497 0.697268 0.789326 -0.100224
C90   C     C_R   0.394502 0.197267 0.210675 -0.100221
C91   C     C_R   0.605958 0.197119 0.789033 -0.109990
C92   C     C_R   0.856229 0.424490 0.315680 -0.109129
C93   C     C_R   0.143746 0.424550 0.684328 -0.109404
C94   C     C_R   0.356254 0.924550 0.315672 -0.109403
C95   C     C_R   0.696600 0.866250 0.675612 0.063809
C96   C     C_R   0.643771 0.924490 0.684320 -0.109129
C97   C     C_R   0.838190 0.586261 0.935287 0.492457
C98   C     C_R   0.160756 0.587350 0.066499 0.496798
C99   C     C_R   0.339243 0.087349 0.933502 0.496798
C100  C     C_R   0.661810 0.086262 0.064713 0.492458
C101  C     C_R   0.799740 0.654127 0.998057 -0.236969
C102  C     C_R   0.198304 0.655860 0.005093 -0.235684
C103  C     C_R   0.301694 0.155859 0.994909 -0.235683
C104  C     C_R   0.700259 0.154128 0.001944 -0.236964
C105  C     C_3   0.917189 0.794368 0.990257 -0.322232
C106  C     C_R   0.851246 0.311105 0.929862 0.075480
C107  C     C_3   0.106893 0.805262 0.015149 -0.325460
C108  C     C_3   0.393101 0.305263 0.984865 -0.325448
C109  C     C_3   0.582812 0.294368 0.009727 -0.322232
C110  C     C_3   0.865648 0.788989 0.724989 0.213252
C111  C     C_3   0.925696 0.857031 0.657776 -0.281731
C112  C     C_3   0.913962 0.922468 0.733062 -1.027082
C113  C     C_3   0.133140 0.790879 0.276890 0.208669
C114  C     C_3   0.072903 0.858497 0.345697 -0.274988
C115  C     C_3   0.083163 0.924632 0.272153 -1.036506
C116  C     C_3   0.366859 0.290877 0.723112 0.208672
H1    H     H_    0.272953 0.422437 0.466165 0.117871
H2    H     H_    0.073167 0.638411 0.498055 0.234993
H3    H     H_    0.254027 0.508157 0.162379 0.118751
H4    H     H_    0.271984 0.604800 0.120505 0.096504
H5    H     H_    0.310567 0.455027 0.983633 0.200615
H6    H     H_    0.322920 0.549250 0.924846 0.213779
H7    H     H_    0.427601 0.588860 0.952337 0.272469
H8    H     H_    0.460284 0.499352 0.874875 0.274900
H9    H     H_    0.414962 0.497382 0.019177 0.258603
H10   H     H_    0.245973 0.008155 0.837622 0.118755
H11   H     H_    0.228016 0.104798 0.879493 0.096502
H12   H     H_    0.189433 0.955029 0.016369 0.200615
H13   H     H_    0.426831 0.138409 0.501946 0.234992
H14   H     H_    0.177077 0.049252 0.075154 0.213779
H15   H     H_    0.072398 0.088855 0.047654 0.272465
H16   H     H_    0.039715 0.999352 0.125126 0.274898
H17   H     H_    0.085039 0.997373 0.980823 0.258604
H18   H     H_    0.753179 0.008201 0.164076 0.120088
H19   H     H_    0.773346 0.103805 0.117960 0.096109
H20   H     H_    0.810152 0.950753 0.987903 0.211783
H21   H     H_    0.822730 0.043599 0.925036 0.211489
H22   H     H_    0.927834 0.085987 0.950771 0.271717
H23   H     H_    0.960081 0.994995 0.876772 0.274275
H24   H     H_    0.574028 0.137604 0.497622 0.234627
H25   H     H_    0.914760 0.996114 0.021069 0.259091
H26   H     H_    0.815278 0.618510 0.549148 0.142357
H27   H     H_    0.183882 0.618729 0.450859 0.142330
H28   H     H_    0.316117 0.118729 0.549141 0.142330
H29   H     H_    0.684721 0.118509 0.450852 0.142357
H30   H     H_    0.752431 0.209564 0.073205 0.117943
H31   H     H_    0.247938 0.210760 0.925541 0.123914
H32   H     H_    0.252060 0.710762 0.074461 0.123914
H33   H     H_    0.726634 0.422530 0.533773 0.117804
H34   H     H_    0.747567 0.709562 0.926797 0.117942
H35   H     H_    0.310818 0.753054 0.841564 0.175235
H36   H     H_    0.687852 0.752889 0.159761 0.169777
H37   H     H_    0.812150 0.252888 0.840238 0.169780
H38   H     H_    0.189179 0.253052 0.158439 0.175239
H39   H     H_    0.827306 0.284966 0.195839 0.078850
H40   H     H_    0.172958 0.285214 0.804136 0.078900
H41   H     H_    0.327042 0.785213 0.195864 0.078900
H42   H     H_    0.672695 0.784966 0.804161 0.078850
H43   H     H_    0.866435 0.411163 0.830537 0.152470
H44   H     H_    0.773366 0.922531 0.466227 0.117804
H45   H     H_    0.133992 0.411387 0.169039 0.153920
H46   H     H_    0.366007 0.911387 0.830962 0.153920
H47   H     H_    0.633565 0.911163 0.169463 0.152470
H48   H     H_    0.918042 0.581127 0.357349 0.117091
H49   H     H_    0.081922 0.581191 0.642633 0.117246
H50   H     H_    0.418078 0.081191 0.357366 0.117245
H51   H     H_    0.581958 0.081127 0.642651 0.117091
H52   H     H_    0.886856 0.243681 0.017376 0.095916
H53   H     H_    0.112777 0.243636 0.983007 0.096306
H54   H     H_    0.387222 0.743636 0.016994 0.096306
H55   H     H_    0.227048 0.922437 0.533835 0.117871
H56   H     H_    0.613144 0.743680 0.982624 0.095916
H57   H     H_    0.896123 0.752950 0.177873 0.141221
H58   H     H_    0.103139 0.753143 0.822680 0.144896
H59   H     H_    0.396859 0.253143 0.177322 0.144895
H60   H     H_    0.603877 0.252950 0.822126 0.141217
H61   H     H_    0.842993 0.463783 0.379307 0.091455
H62   H     H_    0.156926 0.463860 0.620749 0.091461
H63   H     H_    0.343074 0.963861 0.379251 0.091460
H64   H     H_    0.657007 0.963783 0.620693 0.091455
H65   H     H_    0.348903 0.340348 0.306936 0.126655
H66   H     H_    0.761558 0.695310 0.707116 0.002501
H67   H     H_    0.650899 0.340387 0.692998 0.126273
H68   H     H_    0.849101 0.840387 0.307002 0.126275
H69   H     H_    0.151098 0.840347 0.693064 0.126656
H70   H     H_    0.931602 0.792380 0.907591 0.146379
H71   H     H_    0.971512 0.772152 0.985709 0.153810
H72   H     H_    0.907998 0.856169 0.015773 0.183599
H73   H     H_    0.139673 0.820750 0.050759 0.166235
H74   H     H_    0.042097 0.782905 0.081085 0.133341
H75   H     H_    0.099353 0.859117 0.982237 0.181358
H76   H     H_    0.360331 0.320741 0.949238 0.166227
H77   H     H_    0.237704 0.695825 0.293006 0.002083
H78   H     H_    0.457905 0.282913 0.918940 0.133335
H79   H     H_    0.400624 0.359123 0.017790 0.181360
H80   H     H_    0.568411 0.292406 0.092388 0.146396
H81   H     H_    0.528486 0.272131 0.014295 0.153801
H82   H     H_    0.591995 0.356163 0.984184 0.183586
H83   H     H_    0.876943 0.769993 0.784268 0.129564
H84   H     H_    0.798273 0.808495 0.774668 0.066410
H85   H     H_    0.992628 0.836489 0.607197 0.218786
H86   H     H_    0.913362 0.880349 0.601298 0.195337
H87   H     H_    0.847572 0.944664 0.783505 0.269433
H88   H     H_    0.262295 0.195824 0.706994 0.002083
H89   H     H_    0.958214 0.970984 0.682421 0.278214
H90   H     H_    0.928149 0.900862 0.788448 0.268785
H91   H     H_    0.121587 0.772644 0.217641 0.125002
H92   H     H_    0.200494 0.810497 0.227171 0.065062
H93   H     H_    0.006076 0.837601 0.396975 0.219176
H94   H     H_    0.085960 0.881354 0.401651 0.194816
H95   H     H_    0.149862 0.946152 0.219170 0.269822
H96   H     H_    0.040138 0.973406 0.324253 0.280177
H97   H     H_    0.066100 0.904099 0.219373 0.266377
H98   H     H_    0.378413 0.272640 0.782360 0.125001
H99   H     H_    0.738442 0.195310 0.292883 0.002501
H100  H     H_    0.299504 0.310495 0.772831 0.065062
H101  H     H_    0.493923 0.337599 0.603028 0.219175
H102  H     H_    0.414038 0.381353 0.598354 0.194816
H103  H     H_    0.350135 0.446148 0.780837 0.269821
H104  H     H_    0.459858 0.473403 0.675754 0.280178
H105  H     H_    0.433899 0.404094 0.780632 0.266375
H106  H     H_    0.623055 0.269996 0.215734 0.129562
H107  H     H_    0.701726 0.308496 0.225333 0.066408
H108  H     H_    0.507372 0.336492 0.392809 0.218787
H109  H     H_    0.586639 0.380349 0.398705 0.195338
H110  H     H_    0.925971 0.637603 0.502377 0.234627
H111  H     H_    0.652427 0.444666 0.216499 0.269432
H112  H     H_    0.541787 0.470987 0.317588 0.278213
H113  H     H_    0.571847 0.400867 0.211561 0.268784
H114  H     H_    0.746822 0.508200 0.835923 0.120089
H115  H     H_    0.726653 0.603803 0.882042 0.096108
H116  H     H_    0.689851 0.450750 0.012094 0.211786
H117  H     H_    0.677270 0.543595 0.074964 0.211486
H118  H     H_    0.572165 0.585982 0.049231 0.271713
H119  H     H_    0.539920 0.494988 0.123225 0.274272
H120  H     H_    0.585242 0.496111 0.978927 0.259086
N1    N     N_R   0.908660 0.628630 0.995840 -0.136796
N2    N     N_R   0.096530 0.421430 0.063580 -0.041834
N3    N     N_R   0.403470 0.921430 0.936420 -0.041833
N4    N     N_R   0.596530 0.921430 0.063580 -0.042608
N5    N     N_R   0.927500 0.575670 0.211370 -0.046398
N6    N     N_R   0.072500 0.575670 0.788630 -0.046463
N7    N     N_R   0.427500 0.075670 0.211370 -0.046463
N8    N     N_R   0.572500 0.075670 0.788630 -0.046398
N9    N     N_R   0.908660 0.365680 0.995820 -0.045193
N10   N     N_R   0.091340 0.365680 0.004180 -0.045821
N11   N     N_R   0.408660 0.865680 0.995820 -0.045821
N12   N     N_R   0.091340 0.628630 0.004160 -0.134214
N13   N     N_R   0.591340 0.865680 0.004180 -0.045193
N14   N     N_R   0.922310 0.631420 0.151980 -0.049245
N15   N     N_R   0.077690 0.631420 0.848020 -0.048264
N16   N     N_R   0.422310 0.131420 0.151980 -0.048266
N17   N     N_R   0.577690 0.131420 0.848020 -0.049246
N18   N     N_R   0.927500 0.426330 0.211360 -0.041018
N19   N     N_R   0.072500 0.426330 0.788640 -0.041289
N20   N     N_R   0.427500 0.926330 0.211360 -0.041289
N21   N     N_R   0.572500 0.926330 0.788640 -0.041018
N22   N     N_R   0.903470 0.570760 0.936440 -0.117565
N23   N     N_R   0.408660 0.128630 0.995840 -0.134216
N24   N     N_R   0.096530 0.570760 0.063560 -0.118980
N25   N     N_R   0.403470 0.070760 0.936440 -0.118979
N26   N     N_R   0.596530 0.070760 0.063560 -0.117564
N27   N     N_R   0.591340 0.128630 0.004160 -0.136801
N28   N     N_R   0.922310 0.368460 0.151950 -0.038303
N29   N     N_R   0.077690 0.368460 0.848050 -0.038427
N30   N     N_R   0.422310 0.868460 0.151950 -0.038427
N31   N     N_R   0.577690 0.868460 0.848050 -0.038303
N32   N     N_R   0.903470 0.421430 0.936420 -0.042609
Ni1   Ni    Ni4+2 1.000000 0.630300 0.000000 0.194406
Ni2   Ni    Ni4+2 0.500000 0.130300 0.000000 0.194399
Ni3   Ni    Ni4+2 0.000000 0.369700 0.000000 0.200057
Ni4   Ni    Ni4+2 0.500000 0.869700 0.000000 0.200058
Ni5   Ni    Ni4+2 0.988090 0.497570 0.863760 0.224920
Ni6   Ni    Ni4+2 0.011910 0.497570 0.136240 0.225014
Ni7   Ni    Ni4+2 0.488090 0.997570 0.863760 0.225015
Ni8   Ni    Ni4+2 0.511910 0.997570 0.136240 0.224920
O1    O     O_3   0.842392 0.753221 0.070725 -0.626940
O2    O     O_3   0.171099 0.548494 0.137236 -0.671901
O3    O     O_3   0.328900 0.048494 0.862765 -0.671901
O4    O     O_3   0.671505 0.047950 0.136427 -0.671229
O5    O     O_3   0.155840 0.752132 0.927319 -0.633882
O6    O     O_3   0.344153 0.252129 0.072691 -0.633882
O7    O     O_3   0.657612 0.253219 0.929268 -0.626939
O8    O     O_3   0.885191 0.725231 0.654662 -0.632713
O9    O     O_3   0.114108 0.726339 0.345867 -0.631482
O10   O     O_3   0.385891 0.226337 0.654134 -0.631483
O11   O     O_3   0.614809 0.225232 0.345338 -0.632713
O12   O     O_3   0.828496 0.547950 0.863572 -0.671228

loop_
_geom_bond_atom_site_label_1
_geom_bond_atom_site_label_2
_ccdc_geom_bond_type
N5    Ni6   S    
C99   C103  A    
C21   C87   A    
C57   N28   A    
C86   N11   A    
N3    Ni7   S    
C17   H15   S    
C105  O1    S    
C109  H81   S    
C95   C96   A    
N21   N31   A    
C73   C93   A    
C79   H48   S    
C116  H100  S    
C11   H3    S    
C94   H63   S    
N15   Ni1   S    
C39   H1    S    
C114  C115  S    
C109  H82   S    
C108  O6    S    
C57   C62   A    
C47   C49   A    
C54   O9    S    
C57   H39   S    
C40   O6    S    
C10   H119  S    
C14   H9    S    
C7    H111  S    
C115  H96   S    
C21   C71   S    
C9    H116  S    
C69   H34   S    
C113  H91   S    
C20   H23   S    
N3    N11   A    
N9    Ni3   S    
C26   C61   S    
C68   C102  S    
C112  H89   S    
C3    C116  S    
N4    N13   A    
C5    C6    S    
C109  O7    S    
C8    H115  S    
C109  H80   S    
C110  O8    S    
C13   C70   S    
C87   H56   S    
C75   H43   S    
C49   C54   S    
C7    H112  S    
C6    H109  S    
C45   C62   S    
C100  C104  A    
C115  H97   S    
C2    C85   A    
C76   N2    A    
C18   C19   S    
C42   C46   A    
C20   H22   S    
C37   C42   A    
C69   C71   D    
C110  C111  S    
C56   H99   S    
N20   N30   A    
C113  O9    S    
N12   N24   A    
C65   H24   S    
C8    H114  S    
C98   N24   A    
N27   Ni2   S    
C66   C72   D    
N12   Ni1   S    
C111  C112  S    
C16   C17   S    
C4    H104  S    
C15   H10   S    
C62   C92   A    
C21   C78   A    
C29   C102  A    
N8    Ni7   S    
C81   H50   S    
C23   C89   A    
C116  O10   S    
C14   H7    S    
C22   C88   A    
C23   C80   A    
C16   H14   S    
C9    C10   S    
C11   O2    S    
C68   H32   S    
C26   C48   A    
C25   C34   S    
C82   H51   S    
N20   Ni8   S    
N24   Ni6   S    
C5    H106  S    
C27   C32   A    
N18   N28   A    
C78   H47   S    
C54   H77   S    
C15   H11   S    
C105  H71   S    
C100  O4    S    
C17   H16   S    
C100  N26   A    
N13   Ni4   S    
C51   O7    S    
C76   H45   S    
C107  O5    S    
C99   O3    S    
C89   H58   S    
C11   H4    S    
C111  H86   S    
C107  H74   S    
C40   N23   A    
C97   N22   A    
C6    C7    S    
C6    H108  S    
C75   N32   A    
N18   Ni6   S    
C48   C53   S    
N26   Ni8   S    
C13   C77   A    
N21   Ni7   S    
C25   C91   A    
C22   C31   S    
C30   C34   A    
C110  H84   S    
C113  H92   S    
C66   C104  S    
C58   H40   S    
C14   H8    S    
C59   C84   A    
N6    Ni5   S    
C12   H6    S    
C116  H98   S    
N10   Ni3   S    
C98   O2    S    
C36   H67   S    
C63   H2    S    
C43   H55   S    
C96   N21   A    
C52   C56   S    
C64   H28   S    
C45   C52   A    
C1    N1    A    
C19   H20   S    
C98   C102  A    
C37   H68   S    
C9    H117  S    
C90   H59   S    
N5    N14   A    
C55   O10   S    
C85   H53   S    
C88   H57   S    
N4    Ni8   S    
C24   C90   A    
C111  H85   S    
C5    O11   S    
C74   H38   S    
C105  H70   S    
C13   C86   A    
C35   C39   A    
C24   C81   A    
C60   C95   A    
C1    O1    S    
C24   C33   S    
C94   N20   A    
N31   Ni4   S    
C58   C73   A    
C71   H36   S    
C72   H37   S    
N17   Ni2   S    
C19   H21   S    
C4    H103  S    
C97   C101  A    
C55   C64   S    
C107  H73   S    
C8    C9    S    
C82   N8    A    
C18   H19   S    
C67   C74   D    
C84   C94   A    
C47   C84   S    
C96   H64   S    
C108  H79   S    
C16   H12   S    
C39   C44   A    
N23   Ni2   S    
C27   C63   S    
N16   Ni2   S    
C18   O4    S    
C28   C64   S    
C29   O5    S    
C5    H107  S    
C72   C106  S    
C28   C33   A    
N28   Ni3   S    
C32   C38   A    
N8    N17   A    
C67   H31   S    
C85   N10   A    
C29   N12   A    
N9    N32   A    
N6    N15   A    
C60   N31   A    
C53   C61   S    
C3    C4    S    
C97   O12   S    
C1    C101  A    
C80   H49   S    
C2    C76   A    
C27   C49   A    
C105  H72   S    
C53   O8    S    
C88   N14   A    
C113  C114  S    
C7    H113  S    
C44   C50   A    
C77   H46   S    
C87   N13   A    
C30   C52   A    
C12   H5    S    
C78   N4    A    
N7    N16   A    
C89   N15   A    
C59   N30   A    
C114  H93   S    
C110  H83   S    
C86   H54   S    
C20   H25   S    
C42   H44   S    
C70   H35   S    
C61   H110  S    
N32   Ni5   S    
C60   H42   S    
C43   C47   A    
N23   N25   A    
C10   H118  S    
C2    C74   S    
C15   C16   S    
C22   C79   A    
C93   H62   S    
C93   N19   A    
N26   N27   A    
N25   Ni7   S    
C69   C101  S    
C67   C103  S    
C35   H65   S    
C38   H69   S    
C91   N17   A    
C83   H52   S    
C10   H120  S    
C50   C55   S    
N14   Ni1   S    
C83   C106  A    
C115  H95   S    
N19   N29   A    
C108  H78   S    
C23   C32   S    
C114  H94   S    
C19   C20   S    
C15   O3    S    
C12   C14   S    
C112  H90   S    
C38   C43   A    
N30   Ni4   S    
C53   H66   S    
C40   C103  A    
C17   H17   S    
N11   Ni4   S    
C59   H41   S    
C81   N7    A    
C4    H105  S    
C25   C82   A    
C51   N27   A    
C51   C104  A    
C3    H102  S    
C63   H27   S    
C55   H88   S    
C58   N29   A    
C33   C35   A    
C80   N6    A    
C91   H60   S    
C18   H18   S    
C56   O11   S    
C34   C36   A    
C83   N9    A    
C79   N5    A    
N29   Ni3   S    
C44   C73   S    
C46   C95   S    
C28   C50   A    
C66   H30   S    
C30   C65   S    
C92   H61   S    
N2    N10   A    
C107  H75   S    
C8    O12   S    
C46   C48   A    
C31   C37   A    
C61   H26   S    
C26   C31   A    
C41   H33   S    
C64   H13   S    
C99   N25   A    
C75   C106  A    
C68   C70   D    
C54   C63   S    
C36   C41   A    
N1    N22   A    
C77   N3    A    
C3    H101  S    
C41   C45   A    
C108  H76   S    
N1    Ni1   S    
N19   Ni5   S    
C112  H87   S    
N2    Ni6   S    
C65   H29   S    
N7    Ni8   S    
C90   N16   A    
C56   C65   S    
C11   C12   S    
N22   Ni5   S    
C92   N18   A    
