data_mof_unit_12062.cif
_audit_creation_date              2012-12-11T15:17:52-0500
_audit_creation_method            fapswitch 2.2
_symmetry_space_group_name_H-M    P1
_symmetry_Int_Tables_number       1
_space_group_crystal_system       triclinic
_cell_length_a                    15.663241
_cell_length_b                    15.663224
_cell_length_c                    34.553944
_cell_angle_alpha                 89.999176
_cell_angle_beta                  90.000666
_cell_angle_gamma                 120.000308
_cell_volume                      7341.5827428

loop_
_atom_site_label
_atom_site_type_symbol
_atom_type_description
_atom_site_fract_x
_atom_site_fract_y
_atom_site_fract_z
_atom_type_partial_charge
C1    C     C_R   0.576877 0.442274 0.554585 0.576172
C2    C     C_R   0.557725 0.134602 0.554585 0.576161
C3    C     C_R   0.865400 0.423124 0.554584 0.576167
C4    C     C_R   0.442275 0.576876 0.054584 0.576163
C5    C     C_R   0.134601 0.557724 0.054584 0.576168
C6    C     C_R   0.423123 0.865398 0.054584 0.576165
C7    C     C_R   0.996013 0.502117 0.710594 0.380271
C8    C     C_R   0.497917 0.493829 0.710607 0.380262
C9    C     C_R   0.506079 0.003962 0.710594 0.380241
C10   C     C_R   0.502094 0.995858 0.210612 0.380252
C11   C     C_R   0.493820 0.497882 0.210602 0.380280
C12   C     C_R   0.004102 0.506183 0.210608 0.380286
C13   C     C_R   0.024497 0.439056 0.850222 0.220023
C14   C     C_R   0.560970 0.585408 0.850230 0.220020
C15   C     C_R   0.414543 0.975498 0.850224 0.220052
C16   C     C_R   0.439057 0.024441 0.350224 0.219997
C17   C     C_R   0.585414 0.560938 0.350220 0.219999
C18   C     C_R   0.975545 0.414590 0.350227 0.219999
C19   C     C_R   0.042935 0.445296 0.890021 0.138551
C20   C     C_R   0.554717 0.597629 0.890026 0.138570
C21   C     C_R   0.402351 0.957066 0.890023 0.138454
C22   C     C_R   0.445301 0.042924 0.390019 0.138575
C23   C     C_R   0.597637 0.554699 0.390016 0.138576
C24   C     C_R   0.957078 0.402370 0.390023 0.138591
C25   C     C_R   0.063093 0.609932 0.891081 0.123418
C26   C     C_R   0.390086 0.453141 0.891089 0.123439
C27   C     C_R   0.546841 0.936926 0.891083 0.123448
C28   C     C_R   0.609929 0.063057 0.391094 0.123340
C29   C     C_R   0.453137 0.390075 0.391089 0.123434
C30   C     C_R   0.936941 0.546862 0.391089 0.123430
C31   C     C_R   0.034763 0.599356 0.852071 0.213108
C32   C     C_R   0.400680 0.435364 0.852085 0.213158
C33   C     C_R   0.564596 0.965268 0.852075 0.213111
C34   C     C_R   0.599341 0.034677 0.352091 0.213107
C35   C     C_R   0.435360 0.400655 0.352083 0.213141
C36   C     C_R   0.965306 0.564638 0.352084 0.213145
C37   C     C_R   0.021847 0.516881 0.830904 -0.030288
C38   C     C_R   0.483156 0.504917 0.830915 -0.030334
C39   C     C_R   0.495023 0.978160 0.830906 -0.030277
C40   C     C_R   0.516869 0.021743 0.330917 -0.030271
C41   C     C_R   0.504914 0.483122 0.330910 -0.030320
C42   C     C_R   0.978228 0.495086 0.330914 -0.030325
C43   C     C_R   0.074728 0.535625 0.909689 -0.058807
C44   C     C_R   0.464384 0.539098 0.909693 -0.058861
C45   C     C_R   0.460893 0.925278 0.909691 -0.058806
C46   C     C_R   0.535626 0.074719 0.409692 -0.058848
C47   C     C_R   0.539099 0.464376 0.409690 -0.058861
C48   C     C_R   0.925283 0.460904 0.409692 -0.058865
C49   C     C_R   0.576883 0.443101 0.445751 0.586247
C50   C     C_R   0.556899 0.133783 0.445752 0.586253
C51   C     C_R   0.866219 0.423117 0.445752 0.586242
C52   C     C_R   0.443102 0.576883 0.945752 0.586245
C53   C     C_R   0.133781 0.556898 0.945752 0.586258
C54   C     C_R   0.423117 0.866220 0.945752 0.586263
C55   C     C_R   0.925193 0.460935 0.590513 -0.059854
C56   C     C_R   0.539074 0.464246 0.590518 -0.059838
C57   C     C_R   0.535743 0.074808 0.590514 -0.059857
C58   C     C_R   0.460926 0.925168 0.090519 -0.059837
C59   C     C_R   0.464250 0.539066 0.090516 -0.059845
C60   C     C_R   0.074825 0.535748 0.090518 -0.059836
C61   C     C_R   0.966921 0.408435 0.608222 0.150520
C62   C     C_R   0.591585 0.558464 0.608233 0.150497
C63   C     C_R   0.441510 0.033067 0.608219 0.150504
C64   C     C_R   0.408402 0.966848 0.108242 0.150465
C65   C     C_R   0.558466 0.591579 0.108233 0.150461
C66   C     C_R   0.033138 0.441536 0.108237 0.150463
C67   C     C_R   0.995136 0.425381 0.647337 0.129945
C68   C     C_R   0.574652 0.569715 0.647351 0.129915
C69   C     C_R   0.430231 0.004839 0.647333 0.129942
C70   C     C_R   0.425337 0.995017 0.147362 0.129874
C71   C     C_R   0.569716 0.574630 0.147350 0.129880
C72   C     C_R   0.004961 0.430289 0.147356 0.129870
C73   C     C_R   0.983851 0.495778 0.668488 -0.017248
C74   C     C_R   0.504255 0.488023 0.668500 -0.017259
C75   C     C_R   0.511913 0.016129 0.668488 -0.017238
C76   C     C_R   0.495746 0.983728 0.168504 -0.017267
C77   C     C_R   0.488023 0.504224 0.168495 -0.017243
C78   C     C_R   0.016243 0.511980 0.168501 -0.017260
C79   C     C_R   0.954778 0.556636 0.649735 0.247968
C80   C     C_R   0.443384 0.398105 0.649741 0.247956
C81   C     C_R   0.601852 0.045221 0.649739 0.247955
C82   C     C_R   0.556627 0.954707 0.149738 0.247961
C83   C     C_R   0.398109 0.443354 0.149734 0.247981
C84   C     C_R   0.045272 0.601889 0.149739 0.247981
C85   C     C_R   0.930517 0.542850 0.610378 0.125969
C86   C     C_R   0.457159 0.387649 0.610382 0.125969
C87   C     C_R   0.612334 0.069491 0.610383 0.125967
C88   C     C_R   0.542853 0.930498 0.110377 0.125985
C89   C     C_R   0.387657 0.457139 0.110375 0.125969
C90   C     C_R   0.069495 0.612339 0.110379 0.125975
C91   C     C_R   0.008762 0.512861 0.788650 0.349863
C92   C     C_R   0.487175 0.495835 0.788662 0.349798
C93   C     C_R   0.504073 0.991226 0.788651 0.350013
C94   C     C_R   0.512851 0.008609 0.288667 0.349893
C95   C     C_R   0.495819 0.487136 0.288658 0.349811
C96   C     C_R   0.991342 0.504178 0.288662 0.349798
Cr1   Cr    Cr6+3 0.522350 0.263930 0.500020 1.182417
Cr2   Cr    Cr6+3 0.736070 0.258420 0.500020 1.182426
Cr3   Cr    Cr6+3 0.741580 0.477650 0.500020 1.182421
Cr4   Cr    Cr6+3 0.263930 0.522350 0.000020 1.182415
Cr5   Cr    Cr6+3 0.258420 0.736070 0.000020 1.182418
Cr6   Cr    Cr6+3 0.477650 0.741580 0.000020 1.182413
N1    N     N_R   0.949479 0.425701 0.770815 -0.192661
N2    N     N_R   0.574334 0.523705 0.770828 -0.192657
N3    N     N_R   0.476161 0.050477 0.770812 -0.192687
N4    N     N_R   0.425689 0.949314 0.270834 -0.192652
N5    N     N_R   0.523679 0.574294 0.270823 -0.192636
N6    N     N_R   0.050648 0.476325 0.270831 -0.192644
N7    N     N_R   0.942915 0.420515 0.732485 -0.250962
N8    N     N_R   0.579518 0.522326 0.732498 -0.250924
N9    N     N_R   0.477540 0.057034 0.732481 -0.251078
N10   N     N_R   0.420499 0.942749 0.232504 -0.250918
N11   N     N_R   0.522303 0.579480 0.232492 -0.250937
N12   N     N_R   0.057217 0.477704 0.232501 -0.250888
N13   N     N_R   0.053984 0.589836 0.728316 -0.142355
N14   N     N_R   0.410200 0.464086 0.728329 -0.142340
N15   N     N_R   0.535861 0.946022 0.728321 -0.142301
N16   N     N_R   0.589814 0.053835 0.228332 -0.142349
N17   N     N_R   0.464085 0.410165 0.228325 -0.142361
N18   N     N_R   0.946110 0.535908 0.228327 -0.142354
N19   N     N_R   0.060736 0.594968 0.766725 -0.197193
N20   N     N_R   0.405069 0.465706 0.766738 -0.197167
N21   N     N_R   0.534241 0.939277 0.766730 -0.197111
N22   N     N_R   0.594952 0.060586 0.266741 -0.197117
N23   N     N_R   0.465702 0.405033 0.266734 -0.197198
N24   N     N_R   0.939354 0.534289 0.266736 -0.197192
O1    O     O_R   0.498680 0.159540 0.541860 -0.450366
O2    O     O_R   0.840460 0.339140 0.541860 -0.450351
O3    O     O_R   0.660860 0.501320 0.541860 -0.450357
O4    O     O_R   0.159540 0.498680 0.041860 -0.450366
O5    O     O_R   0.339140 0.840460 0.041860 -0.450360
O6    O     O_R   0.501320 0.660860 0.041860 -0.450367
O7    O     O_R   0.532760 0.358060 0.540030 -0.472459
O8    O     O_R   0.641940 0.174700 0.540030 -0.472446
O9    O     O_R   0.825300 0.467240 0.540030 -0.472457
O10   O     O_R   0.358060 0.532760 0.040030 -0.472462
O11   O     O_R   0.174700 0.641940 0.040030 -0.472460
O12   O     O_R   0.467240 0.825300 0.040030 -0.472468
O13   O     O_R   0.498590 0.161190 0.456930 -0.446760
O14   O     O_R   0.838810 0.337400 0.456930 -0.446753
O15   O     O_R   0.662600 0.501410 0.456930 -0.446754
O16   O     O_R   0.161190 0.498590 0.956930 -0.446775
O17   O     O_R   0.337400 0.838810 0.956930 -0.446771
O18   O     O_R   0.501410 0.662600 0.956930 -0.446774
O19   O     O_R   0.532680 0.359580 0.461300 -0.464438
O20   O     O_R   0.640420 0.173100 0.461300 -0.464427
O21   O     O_R   0.826900 0.467320 0.461300 -0.464438
O22   O     O_R   0.359580 0.532680 0.961300 -0.464433
O23   O     O_R   0.173100 0.640420 0.961300 -0.464428
O24   O     O_R   0.467320 0.826900 0.961300 -0.464438
O25   O     O_3   0.666667 0.333333 0.499990 -0.323403
O26   O     O_3   0.333333 0.666667 0.999990 -0.323403
Br1   Br    Br    0.992019 0.317562 0.579283 -0.227623
Br2   Br    Br    0.682458 0.674447 0.579298 -0.227655
Br3   Br    Br    0.325543 0.007970 0.579275 -0.227642
Br4   Br    Br    0.317507 0.991945 0.079317 -0.227622
Br5   Br    Br    0.674447 0.682479 0.079304 -0.227647
Br6   Br    Br    0.008043 0.325552 0.079307 -0.227625
Br7   Br    Br    0.908446 0.640794 0.585650 -0.273297
Br8   Br    Br    0.359198 0.267653 0.585647 -0.273309
Br9   Br    Br    0.732366 0.091590 0.585661 -0.273333
Br10  Br    Br    0.640829 0.908507 0.085632 -0.273236
Br11  Br    Br    0.267672 0.359176 0.085636 -0.273249
Br12  Br    Br    0.091499 0.732318 0.085639 -0.273237
Br13  Br    Br    0.020754 0.326465 0.915795 -0.313774
Br14  Br    Br    0.673537 0.694315 0.915796 -0.313659
Br15  Br    Br    0.305721 0.979268 0.915801 -0.313923
Br16  Br    Br    0.326477 0.020809 0.415779 -0.313749
Br17  Br    Br    0.694334 0.673526 0.415779 -0.313846
Br18  Br    Br    0.979216 0.305684 0.415791 -0.313741
Br19  Br    Br    0.050793 0.353417 0.671971 -0.389005
Br20  Br    Br    0.646625 0.697324 0.671992 -0.388964
Br21  Br    Br    0.302601 0.949158 0.671959 -0.389181
Br22  Br    Br    0.353349 0.050620 0.172014 -0.389043
Br23  Br    Br    0.697321 0.646597 0.171995 -0.389022
Br24  Br    Br    0.949361 0.302691 0.172005 -0.388948
O27   O     O_3   0.951580 0.631313 0.669935 -0.481639
C97   C     C_3   0.856023 0.594467 0.685523 0.014867
H1    H     H_    0.830582 0.524030 0.701555 0.109659
H2    H     H_    0.802105 0.582204 0.662178 0.173584
C98   C     C_3   0.857861 0.669559 0.713868 -0.320763
H3    H     H_    0.878616 0.739723 0.698637 0.212782
H4    H     H_    0.784085 0.641003 0.727202 0.150327
H5    H     H_    0.912397 0.683724 0.737050 0.160984
O28   O     O_3   0.368703 0.320227 0.669938 -0.481640
C99   C     C_3   0.405533 0.261490 0.685515 0.014940
H6    H     H_    0.476007 0.306475 0.701535 0.109608
H7    H     H_    0.417742 0.219808 0.662161 0.173605
C100  C     C_3   0.330448 0.188261 0.713876 -0.320735
H8    H     H_    0.260244 0.138868 0.698658 0.212720
H9    H     H_    0.358988 0.143013 0.727198 0.150220
H10   H     H_    0.316345 0.228661 0.737069 0.161029
O29   O     O_3   0.679727 0.048423 0.669941 -0.481625
C101  C     C_3   0.738422 0.143976 0.685536 0.014861
H11   H     H_    0.693415 0.169344 0.701607 0.109720
H12   H     H_    0.779991 0.197936 0.662189 0.173419
C102  C     C_3   0.811782 0.142171 0.713836 -0.320667
H13   H     H_    0.861204 0.121494 0.698564 0.212860
H14   H     H_    0.856983 0.215940 0.727180 0.150258
H15   H     H_    0.771500 0.087590 0.737018 0.161007
O30   O     O_3   0.631314 0.951509 0.169930 -0.481642
C103  C     C_3   0.594490 0.855937 0.185502 0.014913
H16   H     H_    0.582329 0.802074 0.162147 0.173686
H17   H     H_    0.524001 0.830419 0.201507 0.109620
C104  C     C_3   0.669541 0.857795 0.213879 -0.320691
H18   H     H_    0.683561 0.912249 0.237083 0.161038
H19   H     H_    0.641012 0.783991 0.227186 0.150409
H20   H     H_    0.739783 0.878674 0.198680 0.212724
O31   O     O_3   0.320228 0.368673 0.169930 -0.481644
C105  C     C_3   0.261490 0.405503 0.185506 0.014914
H21   H     H_    0.219710 0.417576 0.162160 0.173806
H22   H     H_    0.306471 0.476039 0.201478 0.109555
C106  C     C_3   0.188392 0.330515 0.213920 -0.320832
H23   H     H_    0.228899 0.316567 0.237109 0.161054
H24   H     H_    0.143128 0.359046 0.227234 0.150371
H25   H     H_    0.139010 0.260240 0.198754 0.212668
O32   O     O_3   0.048471 0.679768 0.169935 -0.481647
C107  C     C_3   0.144043 0.738514 0.185507 0.014905
H26   H     H_    0.197885 0.780299 0.162159 0.173820
H27   H     H_    0.169611 0.693541 0.201477 0.109554
C108  C     C_3   0.142152 0.811603 0.213922 -0.320835
H28   H     H_    0.087728 0.771091 0.237121 0.161027
H29   H     H_    0.215960 0.856895 0.227224 0.150394
H30   H     H_    0.121215 0.860958 0.198761 0.212671
O33   O     O_3   0.010550 0.356594 0.830115 -0.533700
C109  C     C_3   0.103373 0.373525 0.817082 0.030086
H31   H     H_    0.152281 0.382191 0.841967 0.202628
H32   H     H_    0.140545 0.440634 0.798550 0.149380
C110  C     C_3   0.089182 0.286127 0.792982 -0.321739
H33   H     H_    0.037493 0.273151 0.768739 0.183718
H34   H     H_    0.161105 0.301382 0.780847 0.168056
H35   H     H_    0.059106 0.218975 0.811290 0.154029
O34   O     O_3   0.643433 0.653924 0.830124 -0.533602
C111  C     C_3   0.626469 0.729782 0.817067 0.030142
H36   H     H_    0.617553 0.769909 0.841939 0.202399
H37   H     H_    0.559487 0.699819 0.798460 0.149510
C112  C     C_3   0.713996 0.803138 0.793065 -0.321698
H38   H     H_    0.727214 0.764549 0.768838 0.183464
H39   H     H_    0.698726 0.859782 0.780907 0.168048
H40   H     H_    0.781010 0.840223 0.811450 0.154249
O35   O     O_3   0.346016 0.989411 0.830108 -0.533748
C113  C     C_3   0.270079 0.896551 0.817122 0.030069
H41   H     H_    0.229553 0.847931 0.842048 0.203155
H42   H     H_    0.300003 0.859029 0.798767 0.148992
C114  C     C_3   0.197223 0.910774 0.792784 -0.321690
H43   H     H_    0.236242 0.962178 0.768484 0.184343
H44   H     H_    0.140504 0.838783 0.780709 0.168133
H45   H     H_    0.160155 0.941226 0.810907 0.153501
O36   O     O_3   0.356604 0.010502 0.330111 -0.533669
C115  C     C_3   0.373594 0.103319 0.317040 0.030117
H46   H     H_    0.440574 0.140300 0.298430 0.149510
H47   H     H_    0.382534 0.152391 0.341904 0.202366
C116  C     C_3   0.286070 0.089158 0.293033 -0.321671
H48   H     H_    0.219058 0.059265 0.311419 0.154219
H49   H     H_    0.301362 0.161069 0.280865 0.168069
H50   H     H_    0.272828 0.037324 0.268813 0.183487
O37   O     O_3   0.653930 0.643394 0.330109 -0.533699
C117  C     C_3   0.729765 0.626411 0.317042 0.030116
H51   H     H_    0.699775 0.559426 0.298436 0.149515
H52   H     H_    0.769901 0.617487 0.341908 0.202393
C118  C     C_3   0.803119 0.713930 0.293032 -0.321669
H53   H     H_    0.840237 0.780948 0.311415 0.154174
H54   H     H_    0.859740 0.698641 0.280865 0.168074
H55   H     H_    0.764521 0.727161 0.268810 0.183503
O38   O     O_3   0.989490 0.346073 0.330120 -0.533660
C119  C     C_3   0.896674 0.270229 0.317055 0.030159
H56   H     H_    0.859714 0.300204 0.298418 0.149561
H57   H     H_    0.847581 0.230148 0.341923 0.202309
C120  C     C_3   0.910836 0.196805 0.293090 -0.321671
H58   H     H_    0.940700 0.159704 0.311508 0.154260
H59   H     H_    0.838925 0.140175 0.280923 0.168110
H60   H     H_    0.962700 0.235344 0.268867 0.183379
Br25  Br    Br    0.080812 0.726395 0.917391 -0.339844
Br26  Br    Br    0.273609 0.354411 0.917396 -0.339688
Br27  Br    Br    0.645588 0.919207 0.917391 -0.339656
Br28  Br    Br    0.726411 0.080826 0.417406 -0.339805
Br29  Br    Br    0.354401 0.273612 0.417403 -0.339611
Br30  Br    Br    0.919203 0.645595 0.417399 -0.339643
O39   O     O_3   0.026828 0.674134 0.834190 -0.539858
C121  C     C_3   0.926351 0.647466 0.832767 0.022860
H61   H     H_    0.887548 0.615569 0.860700 0.176758
H62   H     H_    0.888232 0.593128 0.809171 0.138057
C122  C     C_3   0.918912 0.738892 0.824550 -0.345884
H63   H     H_    0.957794 0.774302 0.797246 0.133462
H64   H     H_    0.840293 0.717970 0.821769 0.167297
H65   H     H_    0.952601 0.792527 0.848635 0.205006
O40   O     O_3   0.325924 0.352624 0.834210 -0.539742
C123  C     C_3   0.352632 0.278841 0.832803 0.022796
H66   H     H_    0.384523 0.271965 0.860741 0.176735
H67   H     H_    0.406985 0.295067 0.809213 0.138045
C124  C     C_3   0.261236 0.179952 0.824590 -0.345851
H68   H     H_    0.225828 0.183392 0.797280 0.133417
H69   H     H_    0.282196 0.122278 0.821822 0.167541
H70   H     H_    0.207586 0.159996 0.848672 0.205001
O41   O     O_3   0.647335 0.973258 0.834198 -0.539735
C125  C     C_3   0.721109 0.073751 0.832788 0.022809
H71   H     H_    0.727965 0.112527 0.860721 0.176707
H72   H     H_    0.704890 0.111862 0.809189 0.138065
C126  C     C_3   0.820011 0.081258 0.824590 -0.345899
H73   H     H_    0.816608 0.042444 0.797276 0.133352
H74   H     H_    0.877691 0.159894 0.821836 0.167533
H75   H     H_    0.839937 0.047539 0.848671 0.204994
O42   O     O_3   0.674099 0.026697 0.334216 -0.539782
C127  C     C_3   0.647497 0.926231 0.332898 0.022890
H76   H     H_    0.593024 0.887905 0.309362 0.138084
H77   H     H_    0.615789 0.887631 0.360881 0.176887
C128  C     C_3   0.738920 0.918811 0.324651 -0.345955
H78   H     H_    0.792778 0.952888 0.348639 0.204835
H79   H     H_    0.718069 0.840188 0.322034 0.167720
H80   H     H_    0.774037 0.957320 0.297256 0.133243
O43   O     O_3   0.352623 0.325892 0.334209 -0.539722
C129  C     C_3   0.278820 0.352572 0.332816 0.022858
H81   H     H_    0.295038 0.406958 0.309239 0.138033
H82   H     H_    0.271927 0.384414 0.360763 0.176789
C130  C     C_3   0.179945 0.261169 0.324587 -0.345979
H83   H     H_    0.160013 0.207475 0.348649 0.204914
H84   H     H_    0.122249 0.282102 0.321842 0.167497
H85   H     H_    0.183392 0.225827 0.297262 0.133388
O44   O     O_3   0.973278 0.647372 0.334207 -0.539736
C131  C     C_3   0.073761 0.721180 0.332817 0.022849
H86   H     H_    0.111934 0.704965 0.309241 0.138038
H87   H     H_    0.112494 0.728076 0.360765 0.176791
C132  C     C_3   0.081230 0.820052 0.324586 -0.345972
H88   H     H_    0.047445 0.839976 0.348644 0.204918
H89   H     H_    0.159862 0.877757 0.321850 0.167524
H90   H     H_    0.042456 0.816604 0.297255 0.133378

loop_
_geom_bond_atom_site_label_1
_geom_bond_atom_site_label_2
_ccdc_geom_bond_type
C101  H12   S    
C6    C58   S    
C36   C42   A    
C124  H68   S    
C32   O40   S    
C7    C73   S    
C52   O18   A    
Cr6   O18   S    
C27   Br27  S    
C1    C56   S    
Cr6   O6    S    
C1    O3    A    
C13   O33   S    
Cr4   O4    S    
C98   H5    S    
C101  C102  S    
C115  H47   S    
C38   C92   S    
C102  H14   S    
N5    N11   A    
C80   C86   A    
C127  C128  S    
C66   C72   A    
C113  H42   S    
C69   Br21  S    
C21   C45   A    
C22   Br16  S    
C51   O14   A    
C115  C116  S    
C54   O17   A    
C96   N6    A    
C114  H43   S    
C111  H37   S    
C98   H4    S    
C113  C114  S    
C103  H16   S    
Cr3   O3    S    
C132  H88   S    
C123  C124  S    
Cr5   O11   S    
C34   O42   S    
C98   H3    S    
C31   C37   A    
C90   Br12  S    
C111  C112  S    
C110  H33   S    
C14   C38   A    
C56   C86   A    
O42   C127  S    
C8    C74   S    
N16   N22   A    
C15   C39   A    
C83   O31   S    
N14   N20   A    
C16   C40   A    
C5    O4    A    
C120  H59   S    
C56   C62   A    
C79   C85   A    
C26   Br26  S    
Cr3   O21   S    
Cr1   O19   S    
Cr3   O15   S    
C93   N21   A    
C91   N1    A    
C58   C88   A    
C5    O11   A    
C60   C90   A    
C36   O44   S    
C29   C35   A    
C30   C36   A    
N2    N8    A    
C88   Br10  S    
C11   N11   A    
C92   N2    A    
C35   O43   S    
C7    N7    A    
O29   C101  S    
C114  H45   S    
C19   Br13  S    
C99   H6    S    
C29   Br29  S    
C131  H87   S    
C25   C31   A    
C26   C32   A    
N13   N19   A    
Cr1   O7    S    
C25   C43   A    
C97   H1    S    
C2    C57   S    
C26   C44   A    
C54   O24   A    
C27   C33   A    
C28   C46   A    
O36   C115  S    
C17   C23   A    
C29   C47   A    
C18   C24   A    
C30   C48   A    
C124  H69   S    
C110  H35   S    
C8    N8    A    
C18   C42   A    
C116  H48   S    
C68   C74   A    
C129  H81   S    
O37   C117  S    
C59   C89   A    
C100  H9    S    
C72   C78   A    
C11   C77   S    
C3    C55   S    
C125  C126  S    
C63   C69   A    
C129  H82   S    
C79   O27   S    
C24   Br18  S    
O34   C111  S    
C2    O1    A    
C44   C52   S    
C127  H77   S    
C52   O22   A    
C112  H38   S    
C122  H65   S    
C53   O23   A    
C84   C90   A    
C1    O7    A    
C20   C44   A    
C57   C63   A    
C12   N12   A    
C104  H19   S    
C58   C64   A    
C83   C89   A    
C30   Br30  S    
C23   C47   A    
C24   C48   A    
C121  H61   S    
C76   C82   A    
C8    N14   A    
C3    O2    A    
O32   C107  S    
C81   O29   S    
C57   C87   A    
C132  H89   S    
C123  H67   S    
C108  H28   S    
C92   N20   A    
C4    O6    A    
C61   C67   A    
C107  H27   S    
C23   Br17  S    
O31   C105  S    
C73   C79   A    
C96   N24   A    
C70   Br22  S    
C119  H57   S    
C105  H22   S    
C17   O37   S    
C71   C77   A    
C107  C108  S    
C130  H85   S    
C5    C60   S    
C40   C94   S    
C119  C120  S    
C118  H55   S    
C16   O36   S    
C2    O8    A    
C105  C106  S    
C109  H32   S    
C129  C130  S    
C128  H80   S    
C117  H51   S    
C106  H24   S    
C59   C65   A    
C50   O20   A    
C82   C88   A    
C55   C61   A    
Cr2   O2    S    
C62   C68   A    
C102  H13   S    
C35   C41   A    
C126  H75   S    
C60   C66   A    
C109  H31   S    
C91   N19   A    
C112  H40   S    
C122  H63   S    
Cr1   O13   S    
C14   O34   S    
Cr4   O10   S    
Cr6   O26   S    
C15   O35   S    
C118  H53   S    
C121  C122  S    
C106  H23   S    
C103  H17   S    
C42   C96   S    
C108  H30   S    
N18   N24   A    
N6    N12   A    
C39   C93   S    
C25   Br25  S    
C43   C53   S    
C94   N4    A    
C103  C104  S    
C49   O15   A    
O39   C121  S    
C10   N10   A    
C67   C73   A    
C4    O10   A    
C27   C45   A    
C125  H72   S    
C101  H11   S    
N3    N9    A    
C28   C34   A    
C130  H83   S    
C74   C80   A    
C120  H58   S    
C19   C43   A    
Cr2   O25   S    
C13   C19   A    
C128  H78   S    
C14   C20   A    
C65   Br5   S    
O41   C125  S    
C50   O13   A    
C115  H46   S    
Cr4   O26   S    
C55   C85   A    
C102  H15   S    
C126  H73   S    
C131  C132  S    
C116  H50   S    
O40   C123  S    
C18   O38   S    
C113  H41   S    
Cr1   O25   S    
Cr3   O9    S    
C81   C87   A    
C95   N5    A    
Cr6   O24   S    
N17   N23   A    
C22   C46   A    
C114  H44   S    
C111  H36   S    
C99   H7    S    
C106  H25   S    
Cr2   O8    S    
C16   C22   A    
C6    O5    A    
C82   O30   S    
C97   H2    S    
C20   Br14  S    
Cr5   O26   S    
C21   Br15  S    
N1    N7    A    
C99   C100  S    
C110  H34   S    
C123  H66   S    
C68   Br20  S    
O28   C99   S    
C41   C95   S    
C71   Br23  S    
C64   Br4   S    
C69   C75   A    
C3    O9    A    
C72   Br24  S    
C100  H8    S    
C97   C98   S    
C84   O32   S    
O44   C131  S    
O27   C97   S    
C120  H60   S    
C85   Br7   S    
C86   Br8   S    
C89   Br11  S    
C9    N9    A    
O43   C129  S    
C122  H64   S    
C9    N15   A    
O30   C103  S    
Cr1   O1    S    
C11   N17   A    
C47   C49   S    
N4    N10   A    
C104  H18   S    
C33   C39   A    
C34   C40   A    
C121  H62   S    
C53   O16   A    
C28   Br28  S    
C77   C83   A    
O35   C113  S    
Cr6   O12   S    
C7    N13   A    
C93   N3    A    
C12   N18   A    
C10   C76   S    
C48   C51   S    
C12   C78   S    
C80   O28   S    
C32   C38   A    
C31   O39   S    
O38   C119  S    
C13   C37   A    
C130  H84   S    
C37   C91   S    
C49   O19   A    
C124  H70   S    
C118  H54   S    
C75   C81   A    
Cr2   O20   S    
C67   Br19  S    
C65   C71   A    
Cr3   O25   S    
C62   Br2   S    
Cr2   O14   S    
C128  H79   S    
C6    O12   A    
C100  H10   S    
C117  H52   S    
C10   N16   A    
C95   N23   A    
C116  H49   S    
C51   O21   A    
O33   C109  S    
C33   O41   S    
C126  H74   S    
C127  H76   S    
C87   Br9   S    
C45   C54   S    
C64   C70   A    
C112  H39   S    
C70   C76   A    
C117  C118  S    
Cr5   O5    S    
C66   Br6   S    
C104  H20   S    
C125  H71   S    
C61   Br1   S    
C109  C110  S    
C46   C50   S    
C132  H90   S    
C131  H86   S    
N15   N21   A    
C63   Br3   S    
C108  H29   S    
Cr4   O16   S    
Cr5   O17   S    
C107  H26   S    
Cr4   O22   S    
C4    C59   S    
Cr5   O23   S    
C17   C41   A    
C119  H56   S    
C78   C84   A    
C15   C21   A    
C105  H21   S    
C9    C75   S    
C94   N22   A    
