data_mof_unit_8614.cif
_audit_creation_date              2012-12-10T18:25:40-0500
_audit_creation_method            fapswitch 2.2
_symmetry_space_group_name_H-M    P1
_symmetry_Int_Tables_number       1
_space_group_crystal_system       triclinic
_cell_length_a                    14.888239
_cell_length_b                    14.294758
_cell_length_c                    19.164951
_cell_angle_alpha                 89.916877
_cell_angle_beta                  87.349861
_cell_angle_gamma                 89.917988
_cell_volume                      4074.38683472

loop_
_atom_site_label
_atom_site_type_symbol
_atom_type_description
_atom_site_fract_x
_atom_site_fract_y
_atom_site_fract_z
_atom_type_partial_charge
C1    C     C_R   0.327808 0.499938 0.497960 0.882334
C2    C     C_R   0.092659 0.520507 0.559160 0.133125
C3    C     C_R   0.952456 0.542782 0.624627 -0.235771
C4    C     C_R   0.047565 0.464072 0.373739 -0.230308
C5    C     C_R   0.045482 0.541143 0.621763 -0.219727
C6    C     C_R   0.954588 0.464211 0.376869 -0.227244
C7    C     C_R   0.558549 0.799384 0.454884 0.135975
C8    C     C_R   0.433771 0.198905 0.537573 0.131634
C9    C     C_R   0.441702 0.799435 0.545362 0.145966
C10   C     C_R   0.566164 0.198708 0.462440 0.130772
C11   C     C_R   0.444921 0.899579 0.548572 0.008237
C12   C     C_R   0.672260 0.500018 0.501495 0.881606
C13   C     C_R   0.557193 0.099846 0.454006 -0.004526
C14   C     C_R   0.555566 0.899516 0.451845 0.013135
C15   C     C_R   0.442976 0.099991 0.546288 -0.005120
C16   C     C_R   0.500213 0.949317 0.500208 0.045349
C17   C     C_R   0.500184 0.049709 0.500218 0.059769
C18   C     C_R   0.393661 0.952042 0.598842 -0.213899
C19   C     C_R   0.607523 0.049338 0.402734 -0.223671
C20   C     C_R   0.606816 0.951914 0.401614 -0.218567
C21   C     C_R   0.392456 0.049528 0.597460 -0.225047
C22   C     C_R   0.500905 0.500168 0.365735 0.843780
C23   C     C_R   0.809752 0.521138 0.566761 0.022432
C24   C     C_R   0.497660 0.499949 0.634229 0.844172
C25   C     C_R   0.498153 0.586124 0.254031 -0.229503
C26   C     C_R   0.497078 0.415620 0.746696 -0.241437
C27   C     C_R   0.477085 0.583979 0.746141 -0.255159
C28   C     C_R   0.503576 0.416525 0.253055 -0.255181
C29   C     C_R   0.495182 0.588059 0.181589 0.095506
C30   C     C_R   0.491930 0.414655 0.819335 0.101134
C31   C     C_R   0.473924 0.585770 0.818759 0.095867
C32   C     C_R   0.501526 0.415988 0.180579 0.090370
C33   C     C_R   0.496757 0.502344 0.144898 0.038109
C34   C     C_R   0.190269 0.480363 0.432399 0.026943
C35   C     C_R   0.481935 0.500516 0.855373 0.036395
C36   C     C_R   0.501597 0.500904 0.289814 -0.077924
C37   C     C_R   0.490933 0.499854 0.710123 -0.087436
C38   C     C_R   0.485201 0.501455 0.930453 0.262765
C39   C     C_R   0.492706 0.502788 0.069803 0.276619
C40   C     C_R   0.815021 0.481408 0.442324 -0.326430
C41   C     C_R   0.185132 0.518406 0.557191 -0.309626
C42   C     C_R   0.767364 0.500151 0.504452 -0.068601
C43   C     C_R   0.232733 0.499414 0.495047 -0.080354
C44   C     C_3   0.490054 0.682147 0.145211 -0.433665
C45   C     C_R   0.904542 0.522473 0.564805 0.094768
C46   C     C_3   0.581744 0.710724 0.112215 -0.328996
C47   C     C_3   0.575400 0.803346 0.073057 -0.889021
C48   C     C_3   0.496447 0.320953 0.856297 -0.427260
C49   C     C_3   0.593097 0.283515 0.854293 -0.323291
C50   C     C_3   0.598970 0.191771 0.894620 -0.885839
C51   C     C_3   0.465931 0.680080 0.854699 -0.423751
C52   C     C_3   0.368658 0.715461 0.855929 -0.327168
C53   C     C_3   0.359536 0.809553 0.893083 -0.889172
C54   C     C_3   0.499820 0.322422 0.143434 -0.424336
C55   C     C_3   0.403546 0.295718 0.126422 -0.337670
C56   C     C_R   0.095498 0.481904 0.433987 0.095113
C57   C     C_3   0.401721 0.203363 0.086728 -0.885080
C58   C     C_3   0.754359 0.540300 0.634186 -0.411352
C59   C     C_3   0.747166 0.645817 0.648559 -0.328270
C60   C     C_3   0.717582 0.665098 0.724426 -0.892326
C61   C     C_3   0.245137 0.459265 0.364972 -0.432785
C62   C     C_3   0.249594 0.544939 0.316273 -0.340057
C63   C     C_3   0.265795 0.516162 0.240060 -0.876289
C64   C     C_3   0.628976 0.749163 0.408692 -0.375730
C65   C     C_3   0.724415 0.763400 0.434481 -0.361230
C66   C     C_3   0.795111 0.722568 0.382918 -0.877958
C67   C     C_R   0.952986 0.502378 0.500913 0.038936
C68   C     C_3   0.340531 0.238288 0.556622 -0.346506
C69   C     C_3   0.332883 0.288934 0.627421 -0.304101
C70   C     C_3   0.236176 0.289648 0.657690 -0.942379
C71   C     C_3   0.372272 0.749587 0.592780 -0.379324
C72   C     C_3   0.275405 0.767008 0.570550 -0.352904
C73   C     C_3   0.207211 0.749727 0.631147 -0.907321
C74   C     C_3   0.658372 0.238454 0.440977 -0.343372
C75   C     C_3   0.662436 0.287097 0.369281 -0.298209
C76   C     C_3   0.754712 0.276378 0.331790 -0.967183
C77   C     C_R   0.047108 0.501789 0.497937 0.031065
C78   C     C_R   0.907460 0.482498 0.439878 0.136185
H1    H     H_    0.496938 0.651559 0.282545 0.156230
H2    H     H_    0.438599 0.680312 0.105140 0.216849
H3    H     H_    0.467521 0.737118 0.183186 0.194419
H4    H     H_    0.578754 0.202802 0.950520 0.261341
H5    H     H_    0.554598 0.138257 0.872243 0.260072
H6    H     H_    0.669261 0.165531 0.891156 0.249712
H7    H     H_    0.617149 0.271439 0.799259 0.215561
H8    H     H_    0.638119 0.335618 0.877695 0.238238
H9    H     H_    0.470146 0.325729 0.911356 0.213473
H10   H     H_    0.452290 0.270271 0.830318 0.193799
H11   H     H_    0.402904 0.862685 0.865908 0.259052
H12   H     H_    0.506166 0.350106 0.718851 0.159583
H13   H     H_    0.288602 0.833606 0.892898 0.248999
H14   H     H_    0.379066 0.802863 0.948126 0.263182
H15   H     H_    0.346541 0.723545 0.801604 0.213958
H16   H     H_    0.323789 0.663943 0.883534 0.236283
H17   H     H_    0.489352 0.677200 0.908817 0.214500
H18   H     H_    0.510636 0.731097 0.826285 0.196704
H19   H     H_    0.440752 0.209573 0.036132 0.260914
H20   H     H_    0.430571 0.146291 0.118143 0.260590
H21   H     H_    0.331191 0.185211 0.076034 0.250175
H22   H     H_    0.361745 0.288863 0.175766 0.219859
H23   H     H_    0.471434 0.649254 0.717845 0.162434
H24   H     H_    0.373339 0.350892 0.094060 0.237723
H25   H     H_    0.543944 0.323991 0.095172 0.217814
H26   H     H_    0.527603 0.266815 0.176974 0.194820
H27   H     H_    0.779410 0.467655 0.395260 0.143501
H28   H     H_    0.220902 0.530675 0.604407 0.141532
H29   H     H_    0.653957 0.628122 0.738345 0.277589
H30   H     H_    0.770097 0.641120 0.759722 0.257683
H31   H     H_    0.706933 0.741359 0.732054 0.247197
H32   H     H_    0.812803 0.680939 0.637332 0.220056
H33   H     H_    0.697461 0.677164 0.613824 0.236910
H34   H     H_    0.504084 0.350598 0.280831 0.157569
H35   H     H_    0.685562 0.511226 0.632374 0.191650
H36   H     H_    0.783654 0.502324 0.678333 0.196292
H37   H     H_    0.324232 0.468369 0.234229 0.276931
H38   H     H_    0.205639 0.479833 0.221258 0.250150
H39   H     H_    0.279035 0.579180 0.207256 0.255907
H40   H     H_    0.186192 0.586091 0.320649 0.227653
H41   H     H_    0.304998 0.591481 0.331786 0.226954
H42   H     H_    0.314819 0.437474 0.374841 0.204192
H43   H     H_    0.216479 0.397307 0.339124 0.199861
H44   H     H_    0.919517 0.560305 0.674271 0.161885
H45   H     H_    0.528259 0.796853 0.030042 0.262087
H46   H     H_    0.080457 0.450024 0.323463 0.165044
H47   H     H_    0.080673 0.556301 0.668715 0.146946
H48   H     H_    0.919391 0.449788 0.329785 0.149400
H49   H     H_    0.780148 0.648171 0.371961 0.265609
H50   H     H_    0.796255 0.762487 0.333120 0.253484
H51   H     H_    0.862511 0.726940 0.405208 0.257141
H52   H     H_    0.739457 0.838654 0.441733 0.221606
H53   H     H_    0.730179 0.728713 0.485966 0.239633
H54   H     H_    0.617691 0.674574 0.405838 0.265110
H55   H     H_    0.624316 0.771768 0.353557 0.160475
H56   H     H_    0.551643 0.859769 0.109219 0.260029
H57   H     H_    0.190920 0.322779 0.620298 0.278742
H58   H     H_    0.213017 0.217165 0.669127 0.261490
H59   H     H_    0.232522 0.330281 0.707090 0.255555
H60   H     H_    0.376459 0.254516 0.665432 0.204039
H61   H     H_    0.353456 0.362515 0.621463 0.259209
H62   H     H_    0.313465 0.277558 0.513000 0.214497
H63   H     H_    0.290853 0.180294 0.558317 0.174265
H64   H     H_    0.218087 0.680163 0.655048 0.255773
H65   H     H_    0.213877 0.804244 0.671813 0.255387
H66   H     H_    0.137996 0.752653 0.611999 0.262880
H67   H     H_    0.642745 0.822683 0.050238 0.250147
H68   H     H_    0.266110 0.839593 0.551533 0.224765
H69   H     H_    0.260439 0.719745 0.526655 0.246467
H70   H     H_    0.381450 0.674485 0.594608 0.257659
H71   H     H_    0.380938 0.771199 0.647697 0.163258
H72   H     H_    0.808484 0.300732 0.365644 0.276601
H73   H     H_    0.767285 0.201989 0.317798 0.263220
H74   H     H_    0.757226 0.318657 0.283080 0.256713
H75   H     H_    0.611276 0.256925 0.335466 0.207067
H76   H     H_    0.649432 0.362677 0.375648 0.249125
H77   H     H_    0.686975 0.278960 0.483071 0.214270
H78   H     H_    0.630864 0.718116 0.153830 0.218679
H79   H     H_    0.708697 0.180918 0.439534 0.175863
H80   H     H_    0.352254 0.919418 0.639631 0.160603
H81   H     H_    0.647906 0.084764 0.362479 0.159624
H82   H     H_    0.648266 0.919411 0.360825 0.154115
H83   H     H_    0.351480 0.085095 0.637316 0.157148
H84   H     H_    0.607227 0.656456 0.074954 0.236756
N1    N     N_R   0.566689 0.480596 0.029592 -0.193959
N2    N     N_R   0.411164 0.523859 0.970602 -0.182904
N3    N     N_R   0.562965 0.479985 0.960650 -0.182239
N4    N     N_R   0.414887 0.524442 0.039619 -0.193940
N5    N     N_R   0.500000 0.750030 0.500000 -0.136122
N6    N     N_R   0.500000 0.249970 0.500000 -0.119877
O1    O     O_R   0.367850 0.580280 0.500020 -0.631212
O2    O     O_R   0.632150 0.419720 0.499980 -0.632799
O3    O     O_R   0.632150 0.580280 0.499980 -0.631571
O4    O     O_R   0.367850 0.419720 0.500020 -0.637933
O5    O     O_R   0.499990 0.580300 0.398140 -0.643561
O6    O     O_R   0.500010 0.419700 0.601860 -0.628659
O7    O     O_R   0.500010 0.580300 0.601860 -0.639042
O8    O     O_R   0.499990 0.419700 0.398140 -0.630761
Zn1   Zn    Zn3+2 0.500000 0.607200 0.500000 0.906464
Zn2   Zn    Zn3+2 0.500000 0.392800 0.500000 0.917854

loop_
_geom_bond_atom_site_label_1
_geom_bond_atom_site_label_2
_ccdc_geom_bond_type
C69   H61   S    
C23   C58   S    
C47   H67   S    
C11   C18   A    
C34   C56   A    
C23   C45   A    
C38   N3    A    
C18   C21   A    
C19   C20   A    
C67   C77   A    
C44   H2    S    
C24   O6    A    
C65   H52   S    
C50   H6    S    
O7    Zn1   S    
C28   H34   S    
C55   H24   S    
C33   C39   S    
C23   C42   A    
C30   C35   A    
O2    Zn2   S    
C30   C48   S    
N1    N3    A    
C63   H39   S    
C72   H68   S    
C6    C78   A    
C76   H74   S    
C2    C41   A    
C57   H21   S    
C29   C33   A    
C59   H32   S    
C66   H49   S    
C4    H46   S    
C61   H43   S    
C46   C47   S    
O1    Zn1   S    
C49   C50   S    
C12   C42   S    
C60   H31   S    
C8    N6    A    
C64   H55   S    
C1    C43   S    
C7    C14   A    
C64   H54   S    
C68   C69   S    
C55   H22   S    
C53   H13   S    
C58   H35   S    
C59   H33   S    
C48   H10   S    
C52   H16   S    
O5    Zn1   S    
O6    Zn2   S    
C60   H30   S    
C3    H44   S    
C51   H18   S    
C66   H51   S    
C63   H37   S    
C40   C42   A    
C71   H70   S    
C59   C60   S    
C4    C56   A    
C61   H42   S    
C70   H58   S    
C41   C43   A    
C61   C62   S    
C67   C78   A    
C32   C54   S    
C65   H53   S    
C44   C46   S    
C50   H5    S    
C12   O3    A    
C73   H64   S    
C25   C29   A    
C21   H83   S    
C41   H28   S    
C13   C19   A    
C27   C31   A    
C51   C52   S    
C49   H7    S    
C54   H25   S    
C28   C32   A    
C35   C38   S    
C6    H48   S    
C4    C6    A    
C44   H3    S    
C74   C75   S    
C46   H84   S    
C16   C17   A    
C12   O2    A    
C76   H73   S    
C58   C59   S    
C27   H23   S    
C34   C61   S    
C56   C77   A    
C75   C76   S    
C45   C67   A    
C62   C63   S    
C18   H80   S    
C14   C20   A    
C11   C16   A    
C75   H75   S    
C47   H45   S    
C76   H72   S    
C57   H19   S    
C53   H14   S    
C24   C37   S    
C48   H9    S    
C68   H63   S    
C9    C11   A    
C62   H41   S    
C60   H29   S    
C63   H38   S    
C48   C49   S    
N5    Zn1   S    
C26   C30   A    
C8    C15   A    
C55   C57   S    
C47   H56   S    
C53   H11   S    
C70   H57   S    
C14   C16   A    
C68   H62   S    
C2    C5    A    
C39   N1    A    
C22   O5    A    
C46   H78   S    
C52   C53   S    
C50   H4    S    
C73   H65   S    
O4    Zn2   S    
C69   H60   S    
C15   C17   A    
C7    N5    A    
C54   C55   S    
C74   H79   S    
C25   H1    S    
C49   H8    S    
C34   C43   A    
C9    C71   S    
C31   C51   S    
C72   C73   S    
C3    C5    A    
C10   C13   A    
C22   O8    A    
C26   C37   A    
C8    C68   S    
C13   C17   A    
C26   H12   S    
C72   H69   S    
C22   C36   S    
C54   H26   S    
C1    O4    A    
C52   H15   S    
C19   H81   S    
C64   C65   S    
C39   N4    A    
N2    N4    A    
C3    C45   A    
C71   C72   S    
C29   C44   S    
C2    C77   A    
C32   C33   A    
C10   C74   S    
C75   H76   S    
C71   H71   S    
C27   C37   A    
N6    Zn2   S    
C57   H20   S    
C31   C35   A    
C1    O1    A    
C66   H50   S    
C74   H77   S    
C40   C78   A    
C69   C70   S    
C7    C64   S    
C62   H40   S    
C25   C36   A    
C15   C21   A    
C38   N2    A    
C28   C36   A    
C70   H59   S    
C10   N6    A    
C65   C66   S    
C20   H82   S    
C5    H47   S    
C58   H36   S    
O3    Zn1   S    
C9    N5    A    
C24   O7    A    
C51   H17   S    
O8    Zn2   S    
C73   H66   S    
C40   H27   S    
