data_mof_unit_17142.cif
_audit_creation_date              2012-12-10T17:29:21-0500
_audit_creation_method            fapswitch 2.2
_symmetry_space_group_name_H-M    P1
_symmetry_Int_Tables_number       1
_space_group_crystal_system       triclinic
_cell_length_a                    12.005989
_cell_length_b                    12.863132
_cell_length_c                    13.200158
_cell_angle_alpha                 87.18827
_cell_angle_beta                  113.794548
_cell_angle_gamma                 93.67538
_cell_volume                      1860.84287228

loop_
_atom_site_label
_atom_site_type_symbol
_atom_type_description
_atom_site_fract_x
_atom_site_fract_y
_atom_site_fract_z
_atom_type_partial_charge
C1    C     C_R   0.477532 0.299519 0.499432 0.884553
C2    C     C_R   0.611023 0.495103 0.830267 -0.187221
C3    C     C_R   0.535882 0.812122 0.499402 -0.173865
C4    C     C_R   0.568046 0.500070 0.709019 0.860509
C5    C     C_R   0.462334 0.188409 0.495886 -0.042022
C6    C     C_R   0.335754 0.033644 0.428003 -0.145182
C7    C     C_R   0.346633 0.140127 0.442590 -0.231740
C8    C     C_R   0.566763 0.131002 0.538667 -0.221713
C9    C     C_R   0.557022 0.025038 0.524417 0.103982
C10   C     C_R   0.440664 0.975916 0.467703 0.060549
C11   C     C_R   0.431193 0.869770 0.453011 0.533974
C12   C     C_R   0.533110 0.473617 0.974623 -0.056448
C13   C     C_R   0.651354 0.860970 0.553014 -0.259287
C14   C     C_R   0.661994 0.967815 0.565134 -0.209522
C15   C     C_R   0.016702 0.613175 0.414297 -0.258587
C16   C     C_R   0.521974 0.700609 0.499337 0.932472
C17   C     C_R   0.134771 0.600316 0.420357 0.013961
C18   C     C_R   0.153398 0.448703 0.534067 -0.006448
C19   C     C_R   0.034112 0.457838 0.529279 0.014862
C20   C     C_R   0.965247 0.541901 0.469483 -0.034402
C21   C     C_R   0.846447 0.551678 0.466031 0.697478
C22   C     C_R   0.863771 0.397682 0.576277 -0.062203
C23   C     C_R   0.530867 0.524546 0.876684 0.012467
C24   C     C_R   0.981904 0.385097 0.582249 -0.325934
C25   C     C_R   0.432875 0.504161 0.291617 0.896860
C26   C     C_R   0.277440 0.605500 0.002221 -0.197960
C27   C     C_R   0.391094 0.513542 0.172442 -0.098991
C28   C     C_R   0.713321 0.437230 0.895433 -0.091753
C29   C     C_R   0.712846 0.384532 0.990172 -0.246513
C30   C     C_R   0.618872 0.395345 0.024147 0.595274
C31   C     C_R   0.822458 0.432982 0.869368 0.185270
C32   C     C_R   0.876093 0.525623 0.844210 -0.095672
C33   C     C_R   0.984158 0.523843 0.828302 -0.151151
C34   C     C_R   0.450162 0.503849 0.018400 0.097944
C35   C     C_R   0.041724 0.430288 0.840424 -0.087846
C36   C     C_R   0.989003 0.337676 0.864626 -0.161210
C37   C     C_R   0.879608 0.338695 0.878540 -0.183810
C38   C     C_R   0.359059 0.575237 0.958637 0.150684
C39   C     C_R   0.357732 0.622980 0.861512 -0.245377
C40   C     C_R   0.446659 0.602438 0.824685 -0.132540
C41   C     C_R   0.464883 0.475581 0.125943 -0.172640
C42   C     C_R   0.292658 0.573702 0.108997 -0.158224
F1    F     F_    0.778517 0.631673 0.407705 -0.663152
F2    F     F_    0.611506 0.325159 0.101532 -0.687030
F3    F     F_    0.320121 0.822593 0.394636 -0.697105
H1    H     H_    0.234977 0.603762 0.145029 0.166876
H2    H     H_    0.173078 0.655461 0.377274 0.196516
H3    H     H_    0.292362 0.681020 0.817526 0.148040
H4    H     H_    0.207762 0.385102 0.581067 0.128337
H5    H     H_    0.207688 0.659643 0.957063 0.136500
H6    H     H_    0.542446 0.434167 0.180352 0.229130
H7    H     H_    0.784407 0.332581 0.037306 0.175970
H8    H     H_    0.449176 0.648557 0.754706 0.158976
H9    H     H_    0.834760 0.599407 0.837917 0.117598
H10   H     H_    0.023646 0.595200 0.807240 0.122659
H11   H     H_    0.126193 0.429310 0.829324 0.142929
H12   H     H_    0.732403 0.816288 0.588634 0.190953
H13   H     H_    0.032865 0.265014 0.872481 0.140566
H14   H     H_    0.840152 0.266109 0.897253 0.134420
H15   H     H_    0.245871 0.997092 0.385119 0.196313
H16   H     H_    0.751415 0.005272 0.608080 0.153814
H17   H     H_    0.265641 0.184996 0.409030 0.166049
H18   H     H_    0.656012 0.169160 0.581341 0.144316
H19   H     H_    0.824492 0.341023 0.617266 0.162038
H20   H     H_    0.966346 0.678466 0.366669 0.201910
H21   H     H_    0.032033 0.319036 0.628280 0.159148
N1    N     N_R   0.798200 0.480260 0.519790 -0.143970
N2    N     N_R   0.201820 0.519740 0.480210 -0.106289
O1    O     O_R   0.579910 0.341070 0.505280 -0.626716
O2    O     O_R   0.388440 0.353740 0.492580 -0.628413
O3    O     O_R   0.643280 0.490550 0.663120 -0.618217
O4    O     O_R   0.451810 0.503220 0.650420 -0.615513
O5    O     O_R   0.611560 0.646260 0.507420 -0.578173
O6    O     O_R   0.420090 0.658930 0.494720 -0.583640
O7    O     O_R   0.548190 0.496780 0.349580 -0.573575
O8    O     O_R   0.356720 0.509450 0.336880 -0.620653
Zn1   Zn    Zn3+2 0.627850 0.491540 0.508480 1.003300
Zn2   Zn    Zn3+2 0.372150 0.508460 0.491520 0.963509

loop_
_geom_bond_atom_site_label_1
_geom_bond_atom_site_label_2
_ccdc_geom_bond_type
C33   H10   S    
O2    Zn2   S    
O1    Zn1   S    
C35   C36   A    
N1    Zn1   S    
C4    O4    A    
C12   C23   A    
C16   O6    A    
C36   C37   A    
O8    Zn2   S    
C36   H13   S    
C26   H5    S    
C38   C39   A    
C13   H12   S    
C18   N2    A    
C23   C40   A    
C15   H20   S    
C18   C19   A    
C42   H1    S    
O4    Zn2   S    
C21   F1    S    
C19   C20   A    
C8    C9    A    
C9    C10   A    
C3    C13   A    
C24   H21   S    
C13   C14   A    
C21   N1    A    
C30   F2    S    
C34   C41   A    
C32   H9    S    
N2    Zn2   S    
C15   C20   A    
C16   O5    A    
C6    H15   S    
C39   C40   A    
C5    C7    A    
C26   C38   A    
C14   H16   S    
C1    O1    A    
C31   C37   A    
C25   O7    A    
C2    C4    S    
C9    C14   A    
C7    H17   S    
C29   C30   A    
C27   C41   A    
C31   C32   A    
O7    Zn1   S    
C37   H14   S    
C1    C5    S    
C11   F3    S    
C12   C34   A    
O3    Zn1   S    
C26   C42   A    
C15   C17   A    
C28   C29   A    
C17   N2    A    
C12   C30   A    
C35   H11   S    
C34   C38   A    
C28   C31   S    
C17   H2    S    
C6    C10   A    
C5    C8    A    
C6    C7    A    
C25   C27   S    
C1    O2    A    
C25   O8    A    
C32   C33   A    
C19   C24   A    
C27   C42   A    
C33   C35   A    
C22   C24   A    
C22   N1    A    
C3    C11   A    
C10   C11   A    
C8    H18   S    
C22   H19   S    
C20   C21   A    
C40   H8    S    
O6    Zn2   S    
C2    C23   A    
O5    Zn1   S    
C2    C28   A    
C41   H6    S    
C4    O3    A    
C3    C16   S    
C18   H4    S    
C39   H3    S    
C29   H7    S    
