data_mof_unit_50775.cif
_audit_creation_date              2012-12-10T17:01:37-0500
_audit_creation_method            fapswitch 2.2
_symmetry_space_group_name_H-M    P1
_symmetry_Int_Tables_number       1
_space_group_crystal_system       triclinic
_cell_length_a                    10.105732
_cell_length_b                    11.120013
_cell_length_c                    13.047889
_cell_angle_alpha                 88.796665
_cell_angle_beta                  72.652423
_cell_angle_gamma                 110.639199
_cell_volume                      1296.62962113

loop_
_atom_site_label
_atom_site_type_symbol
_atom_type_description
_atom_site_fract_x
_atom_site_fract_y
_atom_site_fract_z
_atom_type_partial_charge
C1    C     C_R   0.439932 0.255555 0.512184 0.825546
C2    C     C_R   0.557646 0.745363 0.495682 0.791694
C3    C     C_2   0.083008 0.510219 0.491607 0.458310
C4    C     C_2   0.916977 0.487732 0.506519 0.436130
C5    C     C_R   0.470673 0.501100 0.703396 0.882283
C6    C     C_R   0.529402 0.499147 0.296567 0.892307
C7    C     C_R   0.549421 0.494361 0.179299 -0.282194
C8    C     C_R   0.450912 0.506557 0.820563 -0.283440
C9    C     C_R   0.298462 0.447249 0.011673 0.424891
C10   C     C_R   0.702088 0.554397 0.988216 0.426925
C11   C     C_R   0.309043 0.459969 0.902108 0.297036
C12   C     C_R   0.691389 0.542292 0.097823 0.291023
C13   C     C_R   0.578969 0.560819 0.851795 0.394790
C14   C     C_R   0.421567 0.439781 0.147877 0.400449
C15   C     C_R   0.571573 0.530490 0.959423 -0.186859
C16   C     C_R   0.428984 0.470419 0.040307 -0.188317
C17   C     C_2   0.407461 0.121143 0.546573 0.222350
C18   C     C_2   0.581482 0.884327 0.490698 0.175818
C19   C     C_2   0.479749 0.055704 0.481313 0.265597
C20   C     C_2   0.462874 0.923606 0.518542 0.301753
Cu1   Cu    Cu3+1 0.647370 0.522180 0.481340 1.214468
Cu2   Cu    Cu3+1 0.352630 0.477820 0.518660 1.212574
N1    N     N_2   0.131210 0.444490 0.546730 -0.048002
N2    N     N_2   0.868790 0.555510 0.453270 -0.049865
O1    O     O_R   0.578710 0.332530 0.490040 -0.549439
O2    O     O_R   0.421290 0.667470 0.509960 -0.548787
O3    O     O_R   0.329810 0.295070 0.521560 -0.510564
O4    O     O_R   0.670190 0.704930 0.478440 -0.494551
O5    O     O_R   0.604230 0.515670 0.637800 -0.532643
O6    O     O_R   0.395770 0.484330 0.362200 -0.532747
O7    O     O_R   0.355330 0.478200 0.669330 -0.507909
O8    O     O_R   0.644670 0.521800 0.330670 -0.507310
Cl1   Cl    Cl    0.267700 0.307044 0.236019 -0.395168
Cl2   Cl    Cl    0.732928 0.693236 0.763316 -0.403011
Cl3   Cl    Cl    0.858745 0.577176 0.128083 -0.324199
Cl4   Cl    Cl    0.142139 0.428924 0.871959 -0.323455
Cl5   Cl    Cl    0.122384 0.419521 0.110485 -0.289438
Cl6   Cl    Cl    0.878551 0.582805 0.889653 -0.278372
Cl7   Cl    Cl    0.275014 0.817580 0.591262 -0.382489
Cl8   Cl    Cl    0.575713 0.117526 0.341775 -0.429721
Cl9   Cl    Cl    0.768171 0.997359 0.440371 -0.362567
Cl10  Cl    Cl    0.315983 0.071283 0.687592 -0.418257
Cl11  Cl    Cl    0.770034 0.361228 0.601130 -0.425730
Cl12  Cl    Cl    0.229947 0.633134 0.393654 -0.424368
S1    S     S_3+6 0.979769 0.689422 0.353166 0.241082
O9    O     O_2   0.073005 0.796769 0.399848 -0.174608
O10   O     O_2   0.077003 0.651407 0.258526 -0.152483
O11   O     O_3   0.876838 0.749182 0.303337 -0.435388
H1    H     H_    0.949667 0.829221 0.253848 0.399976
S2    S     S_3+6 0.020391 0.312052 0.648042 0.237376
O12   O     O_2   0.921140 0.350798 0.740871 -0.152919
O13   O     O_2   0.929358 0.202411 0.602031 -0.173898
O14   O     O_3   0.123807 0.255288 0.699780 -0.428586
H2    H     H_    0.050834 0.178128 0.752642 0.404907

loop_
_geom_bond_atom_site_label_1
_geom_bond_atom_site_label_2
_ccdc_geom_bond_type
C5    C8    S    
S2    O13   D    
Cu1   O5    S    
C6    C7    S    
C4    Cl11  S    
C2    C18   S    
Cu2   O6    S    
C6    O8    A    
C19   C20   S    
C10   Cl6   S    
C14   Cl1   S    
C9    Cl5   S    
S2    O12   D    
C13   Cl2   S    
C2    O2    A    
O14   H2    S    
C12   Cl3   S    
C1    O1    A    
C9    C11   A    
C8    C13   A    
C10   C12   A    
C8    C11   A    
C19   Cl8   S    
N2    S1    S    
Cu1   Cu2   S    
C11   Cl4   S    
C17   C19   D    
C9    C16   A    
C18   C20   D    
Cu2   O3    S    
C13   C15   A    
C7    C12   A    
C4    N2    D    
Cu1   O8    S    
C14   C16   A    
C3    Cl12  S    
Cu1   N2    S    
S2    O14   S    
Cu2   O7    S    
C15   C16   A    
C5    O5    A    
C17   Cl10  S    
Cu2   O2    S    
S1    O10   D    
C1    O3    A    
C20   Cl7   S    
Cu1   O1    S    
Cu2   N1    S    
O11   H1    S    
N1    S2    S    
C2    O4    A    
S1    O11   S    
C6    O6    A    
C3    N1    D    
S1    O9    D    
C1    C17   S    
Cu1   O4    S    
C7    C14   A    
C3    C4    S    
C18   Cl9   S    
C10   C15   A    
C5    O7    A    
