data_mof_unit_57722.cif
_audit_creation_date              2012-12-11T17:14:01-0500
_audit_creation_method            fapswitch 2.2
_symmetry_space_group_name_H-M    P1
_symmetry_Int_Tables_number       1
_space_group_crystal_system       triclinic
_cell_length_a                    18.190325
_cell_length_b                    7.104263
_cell_length_c                    12.953683
_cell_angle_alpha                 90.000365
_cell_angle_beta                  72.880138
_cell_angle_gamma                 90.000072
_cell_volume                      1599.81683314

loop_
_atom_site_label
_atom_site_type_symbol
_atom_type_description
_atom_site_fract_x
_atom_site_fract_y
_atom_site_fract_z
_atom_type_partial_charge
O1    O     O_R   0.453880 0.506200 0.150010 -0.536199
O2    O     O_R   0.546120 0.006200 0.849990 -0.536231
O3    O     O_R   0.604080 0.177770 0.007280 -0.538580
O4    O     O_R   0.395920 0.677770 0.992720 -0.538555
C1    C     C_R   0.635959 0.344502 0.001677 0.735619
C2    C     C_R   0.364042 0.844502 0.998317 0.735569
O5    O     O_R   0.458010 0.176640 0.159130 -0.544796
O6    O     O_R   0.541990 0.676640 0.840870 -0.544789
O7    O     O_R   0.399010 0.004010 0.002930 -0.535778
O8    O     O_R   0.600990 0.504010 0.997070 -0.535772
C3    C     C_R   0.441784 0.344934 0.201615 0.693455
C4    C     C_R   0.558220 0.844935 0.798387 0.693435
O9    O     O_3   0.480810 0.338440 0.948570 -0.373952
O10   O     O_3   0.519190 0.838440 0.051430 -0.373942
V1    V     V_3+5 0.503560 0.064490 0.009540 1.385784
V2    V     V_3+5 0.496440 0.564490 0.990460 1.385842
C5    C     C_R   0.576964 0.749701 0.507620 0.046478
C6    C     C_R   0.423008 0.249632 0.492380 0.046649
H1    H     H_    0.490755 0.710449 0.660564 0.141702
H2    H     H_    0.509237 0.210433 0.339456 0.141593
H3    H     H_    0.648067 0.776655 0.296401 0.119536
H4    H     H_    0.351914 0.276541 0.703579 0.119553
C7    C     C_R   0.590473 0.848717 0.680528 -0.091918
C8    C     C_R   0.409523 0.348706 0.319473 -0.092048
C9    C     C_R   0.943936 0.854673 0.387107 -0.138928
C10   C     C_R   0.056044 0.354686 0.612896 -0.138940
C11   C     C_R   0.911236 0.836799 0.498974 0.172861
C12   C     C_R   0.088740 0.336823 0.501027 0.172864
C13   C     C_R   0.831367 0.832446 0.540203 -0.255928
C14   C     C_R   0.168610 0.332472 0.459789 -0.255939
C15   C     C_R   0.782849 0.855925 0.473924 0.048331
C16   C     C_R   0.217131 0.355932 0.526066 0.048289
C17   C     C_R   0.815335 0.856355 0.359221 0.011529
C18   C     C_R   0.184648 0.356354 0.640770 0.011533
C19   C     C_R   0.701673 0.859935 0.520792 0.061361
C20   C     C_R   0.298309 0.359914 0.479198 0.061402
C21   C     C_R   0.654775 0.800311 0.457204 0.012589
C22   C     C_R   0.345200 0.300249 0.542787 0.012653
C23   C     C_R   0.685794 0.802148 0.344922 -0.166036
C24   C     C_R   0.314184 0.302074 0.655066 -0.165950
C25   C     C_R   0.763333 0.847302 0.294186 0.083126
C26   C     C_R   0.236651 0.347277 0.705804 0.083115
C27   C     C_R   0.665142 0.917346 0.629211 0.093020
C28   C     C_R   0.334848 0.417325 0.370782 0.093094
C29   C     C_R   0.548131 0.762077 0.619888 -0.180687
C30   C     C_R   0.451859 0.262059 0.380118 -0.180752
C31   C     C_R   0.897847 0.861567 0.317076 -0.118282
C32   C     C_R   0.102138 0.361569 0.682921 -0.118266
H5    H     H_    0.005812 0.859500 0.352745 0.106598
H6    H     H_    0.994168 0.359516 0.647264 0.106593
H7    H     H_    0.806870 0.807363 0.626023 0.112647
H8    H     H_    0.193101 0.307383 0.373968 0.112652
C33   C     C_1   0.216247 0.859235 0.000540 -0.188878
C34   C     C_1   0.783753 0.359234 0.999457 -0.188878
C35   C     C_1   0.283577 0.852896 0.999364 -0.206242
C36   C     C_1   0.716424 0.352895 0.000631 -0.206233
O11   O     O_R   0.899030 0.205490 0.002790 -0.539122
O12   O     O_R   0.100970 0.705490 0.997210 -0.539120
O13   O     O_R   0.042000 0.536370 0.840840 -0.543197
O14   O     O_R   0.958000 0.036370 0.159160 -0.543195
C37   C     C_R   0.060537 0.368730 0.798741 0.672718
C38   C     C_R   0.939456 0.868731 0.201257 0.672717
O15   O     O_R   0.895930 0.535070 0.992690 -0.543378
O16   O     O_R   0.104070 0.035070 0.007310 -0.543376
O17   O     O_R   0.953870 0.707520 0.150040 -0.539253
O18   O     O_R   0.046130 0.207520 0.849960 -0.539256
C39   C     C_R   0.864194 0.366874 0.998585 0.731965
C40   C     C_R   0.135806 0.866874 0.001415 0.731974
O19   O     O_3   0.019200 0.374340 0.051340 -0.372756
O20   O     O_3   0.980800 0.874340 0.948660 -0.372758
V3    V     V_3+5 0.996440 0.648350 0.990470 1.385719
V4    V     V_3+5 0.003560 0.148350 0.009530 1.385719
C41   C     C_2   0.525065 0.677049 0.447067 0.369792
H9    H     H_    0.547587 0.608748 0.369387 0.037588
O21   O     O_2   0.455372 0.691731 0.484528 -0.544829
C42   C     C_2   0.474880 0.176911 0.552947 0.369740
H10   H     H_    0.452336 0.108226 0.630507 0.037704
O22   O     O_2   0.544565 0.192003 0.515638 -0.544881
C43   C     C_3   0.698145 0.075247 0.682407 -0.396444
C44   C     C_3   0.657932 0.262635 0.676583 -0.610275
H11   H     H_    0.671094 0.308835 0.591099 0.234285
H12   H     H_    0.594630 0.251944 0.711046 0.245215
H13   H     H_    0.679173 0.371989 0.722078 0.179440
H14   H     H_    0.693356 0.039094 0.767530 0.170544
H15   H     H_    0.759643 0.103071 0.641970 0.181148
C45   C     C_3   0.301841 0.575163 0.317550 -0.396344
C46   C     C_3   0.342088 0.762553 0.323253 -0.610119
H16   H     H_    0.328658 0.809348 0.408652 0.233835
H17   H     H_    0.405402 0.751578 0.289239 0.245203
H18   H     H_    0.321130 0.871604 0.277271 0.179498
H19   H     H_    0.306607 0.538868 0.232451 0.170472
H20   H     H_    0.240349 0.603051 0.357993 0.181117
C47   C     C_3   0.957630 0.823189 0.579317 -0.353308
C48   C     C_3   0.045100 0.822172 0.531209 -0.735909
H21   H     H_    0.063840 0.708634 0.470909 0.224932
H22   H     H_    0.065648 0.958084 0.492240 0.229201
H23   H     H_    0.072314 0.799155 0.596497 0.230397
H24   H     H_    0.941813 0.942921 0.636801 0.172596
H25   H     H_    0.940732 0.693031 0.627995 0.170847
C49   C     C_3   0.042340 0.323210 0.420692 -0.353306
C50   C     C_3   0.954871 0.322156 0.468808 -0.735911
H26   H     H_    0.936144 0.208612 0.529106 0.224933
H27   H     H_    0.934316 0.458060 0.507781 0.229198
H28   H     H_    0.927654 0.299122 0.403525 0.230399
H29   H     H_    0.058147 0.442954 0.363215 0.172606
H30   H     H_    0.059243 0.193063 0.372006 0.170852
C51   C     C_3   0.788508 0.883031 0.172632 -0.350163
C52   C     C_3   0.725381 0.900560 0.116586 -0.730044
H31   H     H_    0.696398 0.763146 0.115887 0.218773
H32   H     H_    0.682748 0.009702 0.156559 0.227523
H33   H     H_    0.751784 0.942669 0.031108 0.221264
H34   H     H_    0.819659 0.018608 0.158649 0.199308
H35   H     H_    0.826188 0.767203 0.131743 0.207021
C53   C     C_3   0.211487 0.383035 0.827355 -0.350161
C54   C     C_3   0.274623 0.400575 0.883384 -0.730017
H36   H     H_    0.303601 0.263155 0.884096 0.218765
H37   H     H_    0.317260 0.509696 0.843389 0.227544
H38   H     H_    0.248229 0.442721 0.968858 0.221261
H39   H     H_    0.180339 0.518617 0.841333 0.199312
H40   H     H_    0.173807 0.267218 0.868259 0.207023

loop_
_geom_bond_atom_site_label_1
_geom_bond_atom_site_label_2
_ccdc_geom_bond_type
C22   C24   A    
C46   H16   S    
C47   C48   S    
C7    C29   A    
C11   C13   A    
C41   H9    S    
C1    C36   S    
O1    C3    A    
C2    C35   S    
O2    C4    A    
C2    O7    A    
C53   C54   S    
C23   C25   A    
C47   H25   S    
O5    C3    A    
C4    C7    S    
C49   H29   S    
C50   H26   S    
C16   C20   A    
C19   C21   A    
C5    C29   A    
C45   H19   S    
C10   H6    S    
C43   H14   S    
O12   V3    S    
O14   V4    S    
C27   C43   S    
C54   H36   S    
C3    C8    S    
C7    C27   A    
C52   H31   S    
O14   C38   A    
C51   H34   S    
O19   V3    S    
C33   C40   S    
C51   H35   S    
O5    V1    S    
C46   H18   S    
C37   O18   A    
C26   C53   S    
O18   V4    S    
C54   H37   S    
C18   C26   A    
C51   C52   S    
C15   C17   A    
O20   V3    S    
C19   C27   A    
C9    C31   A    
C53   H39   S    
C10   C32   A    
C31   C38   S    
C12   C49   S    
O6    V2    S    
C24   C26   A    
C50   H27   S    
C5    C41   S    
C41   O21   D    
O11   C39   A    
C44   H13   S    
C28   C45   S    
C6    C30   A    
O15   C39   A    
C33   C35   T    
C34   C36   T    
O13   C37   A    
C42   H10   S    
C44   H12   S    
C45   C46   S    
C34   C39   S    
C48   H23   S    
O17   V3    S    
C16   C18   A    
O4    V2    S    
O19   V4    S    
H3    C23   S    
O6    C4    A    
C54   H38   S    
H4    C24   S    
O1    V2    S    
C5    C21   A    
C48   H22   S    
O2    V1    S    
O4    C2    A    
O15   V3    S    
C50   H28   S    
C46   H17   S    
C17   C31   A    
C15   C19   A    
C20   C28   A    
C18   C32   A    
C45   H20   S    
O16   C40   A    
C43   H15   S    
O3    V1    S    
C13   H7    S    
O12   C40   A    
C53   H40   S    
C14   H8    S    
C6    C42   S    
C25   C51   S    
C38   O17   A    
C49   H30   S    
C42   O22   D    
C44   H11   S    
O3    C1    A    
H1    C29   S    
C9    C11   A    
C10   C12   A    
C52   H33   S    
C8    C30   A    
C20   C22   A    
C6    C22   A    
C17   C25   A    
C1    O8    A    
C21   C23   A    
O8    V2    S    
C14   C16   A    
C32   C37   S    
C8    C28   A    
C12   C14   A    
C49   C50   S    
C52   H32   S    
O16   V4    S    
O11   V4    S    
O7    V1    S    
C48   H21   S    
C9    H5    S    
C11   C47   S    
C43   C44   S    
C13   C15   A    
O9    V2    S    
O10   V1    S    
O20   V4    S    
C47   H24   S    
H2    C30   S    
O13   V3    S    
