data_mof_unit_19780.cif
_audit_creation_date              2012-12-10T18:16:29-0500
_audit_creation_method            fapswitch 2.2
_symmetry_space_group_name_H-M    P1
_symmetry_Int_Tables_number       1
_space_group_crystal_system       triclinic
_cell_length_a                    12.588122
_cell_length_b                    13.141012
_cell_length_c                    27.734272
_cell_angle_alpha                 90.859293
_cell_angle_beta                  102.984553
_cell_angle_gamma                 82.335566
_cell_volume                      4430.04303301

loop_
_atom_site_label
_atom_site_type_symbol
_atom_type_description
_atom_site_fract_x
_atom_site_fract_y
_atom_site_fract_z
_atom_type_partial_charge
C1    C     C_R   0.438743 0.691341 0.495918 0.860810
C2    C     C_R   0.449970 0.584392 0.021441 0.058799
C3    C     C_R   0.552666 0.409275 0.030085 0.021284
C4    C     C_R   0.501192 0.500499 0.594090 0.871090
C5    C     C_R   0.500275 0.495995 0.050911 0.031781
C6    C     C_R   0.393029 0.666243 0.042975 -0.214483
C7    C     C_R   0.388807 0.662673 0.092457 -0.137845
C8    C     C_R   0.441938 0.577873 0.122197 -0.008625
C9    C     C_R   0.498561 0.494650 0.101644 -0.056365
C10   C     C_R   0.553485 0.410205 0.131921 -0.068946
C11   C     C_R   0.549789 0.409934 0.181978 0.515927
C12   C     C_R   0.577326 0.536900 0.733454 -0.101538
C13   C     C_R   0.440438 0.574442 0.172406 0.503769
C14   C     C_R   0.399375 0.480974 0.268343 -0.101122
C15   C     C_R   0.400381 0.483371 0.318569 -0.217067
C16   C     C_R   0.561157 0.308823 0.506045 0.865959
C17   C     C_R   0.593602 0.506766 0.337021 -0.217831
C18   C     C_R   0.592316 0.504217 0.286834 -0.104967
C19   C     C_R   0.495274 0.491521 0.252512 0.318068
C20   C     C_R   0.456873 0.587412 0.971320 0.044571
C21   C     C_R   0.493749 0.495660 0.949160 0.073929
C22   C     C_R   0.534445 0.404713 0.977830 0.048018
C23   C     C_R   0.492813 0.493674 0.747095 0.273058
C24   C     C_R   0.426778 0.678550 0.942297 -0.218871
C25   C     C_R   0.541289 0.309756 0.902192 -0.142784
C26   C     C_R   0.620857 0.331717 0.062705 0.175381
C27   C     C_R   0.615528 0.330645 0.112445 -0.146820
C28   C     C_R   0.499066 0.499270 0.406127 0.866824
C29   C     C_R   0.548806 0.311287 0.952927 -0.224230
C30   C     C_R   0.702684 0.067532 0.573356 -0.190902
C31   C     C_R   0.597458 0.200690 0.516660 -0.055172
C32   C     C_R   0.299884 0.836249 0.459662 -0.184100
C33   C     C_R   0.271993 0.940213 0.448224 -0.138354
C34   C     C_R   0.488811 0.494397 0.897767 -0.054204
C35   C     C_R   0.345891 0.008494 0.467200 -0.183004
C36   C     C_R   0.447490 0.973818 0.500254 0.088433
C37   C     C_R   0.467118 0.871306 0.517431 0.095198
C38   C     C_R   0.530265 0.037229 0.516968 0.083292
C39   C     C_R   0.622513 0.003027 0.555716 0.177227
C40   C     C_R   0.457529 0.583667 0.819182 0.505934
C41   C     C_R   0.631892 0.906060 0.577004 -0.246596
C42   C     C_R   0.554806 0.841088 0.558211 -0.201211
C43   C     C_R   0.524321 0.133605 0.495775 -0.246944
C44   C     C_R   0.689091 0.167235 0.554449 -0.189196
C45   C     C_R   0.457383 0.586054 0.869581 -0.023358
C46   C     C_R   0.399127 0.800963 0.492899 -0.117207
C47   C     C_R   0.087445 0.345300 0.431873 -0.300360
C48   C     C_R   0.800556 0.629994 0.558635 0.021923
C49   C     C_R   0.905352 0.658738 0.570606 -0.239095
C50   C     C_R   0.986430 0.609701 0.548314 -0.189115
C51   C     C_R   0.962815 0.530782 0.513908 0.014689
C52   C     C_R   0.513636 0.402446 0.823992 0.509475
C53   C     C_R   0.854553 0.504094 0.503165 0.233741
C54   C     C_R   0.041806 0.477441 0.489885 -0.013912
C55   C     C_R   0.011046 0.398778 0.455883 0.192176
C56   C     C_R   0.427938 0.677831 0.892338 -0.136239
C57   C     C_R   0.904530 0.373799 0.446295 -0.284238
C58   C     C_R   0.827727 0.425510 0.469734 -0.213929
C59   C     C_R   0.150887 0.498444 0.498177 -0.050473
C60   C     C_R   0.193780 0.369774 0.441768 0.010093
C61   C     C_R   0.414069 0.452322 0.711603 -0.106322
C62   C     C_R   0.419014 0.454849 0.662224 -0.260463
C63   C     C_R   0.583998 0.540314 0.683860 0.167596
C64   C     C_3   0.676087 0.590214 0.671651 -0.879158
C65   C     C_3   0.712782 0.259049 0.049042 -0.921965
C66   C     C_R   0.515207 0.401380 0.874563 -0.020971
C67   C     C_R   0.502969 0.498866 0.647416 -0.063282
C68   C     C_R   0.497505 0.496625 0.353253 -0.041626
H1    H     H_    0.348589 0.418798 0.722328 0.150696
H2    H     H_    0.459997 0.160806 0.464189 0.140719
H3    H     H_    0.245719 0.783119 0.441215 0.161473
H4    H     H_    0.320100 0.088017 0.456348 0.130232
H5    H     H_    0.194923 0.967456 0.422869 0.146059
H6    H     H_    0.563413 0.767201 0.576211 0.147461
H7    H     H_    0.254288 0.328956 0.423778 0.127003
H8    H     H_    0.880370 0.313648 0.420575 0.162600
H9    H     H_    0.065224 0.285063 0.405909 0.145905
H10   H     H_    0.182062 0.556251 0.523328 0.128830
H11   H     H_    0.737463 0.667766 0.575851 0.130350
H12   H     H_    0.556244 0.236517 0.884779 0.190852
H13   H     H_    0.404986 0.749594 0.871557 0.189820
H14   H     H_    0.066259 0.635049 0.558812 0.141521
H15   H     H_    0.923650 0.718974 0.597031 0.152118
H16   H     H_    0.747845 0.401922 0.461027 0.214404
H17   H     H_    0.325265 0.475252 0.330143 0.163534
H18   H     H_    0.324271 0.471165 0.241682 0.141290
H19   H     H_    0.343712 0.727012 0.107327 0.189582
H20   H     H_    0.405103 0.752289 0.957617 0.145008
H21   H     H_    0.356488 0.421916 0.635564 0.179783
H22   H     H_    0.726952 0.622152 0.704967 0.230748
H23   H     H_    0.669701 0.516641 0.362978 0.169960
H24   H     H_    0.731693 0.532931 0.655982 0.259092
H25   H     H_    0.641586 0.654827 0.645128 0.230727
H26   H     H_    0.689233 0.180477 0.043979 0.241130
H27   H     H_    0.736343 0.285489 0.015603 0.257034
H28   H     H_    0.788286 0.255506 0.079144 0.247298
H29   H     H_    0.699547 0.879856 0.607744 0.144319
H30   H     H_    0.347643 0.732795 0.021979 0.144238
H31   H     H_    0.664844 0.269406 0.136545 0.197159
H32   H     H_    0.666423 0.512735 0.274477 0.140871
H33   H     H_    0.563259 0.238169 0.972090 0.171328
H34   H     H_    0.746120 0.219487 0.571113 0.161590
H35   H     H_    0.772841 0.042494 0.603172 0.142341
H36   H     H_    0.637590 0.568291 0.761956 0.139259
N1    N     N_R   0.486796 0.492998 0.797784 -0.352017
N2    N     N_R   0.493954 0.491333 0.200998 -0.355344
N3    N     N_R   0.222180 0.444690 0.474320 -0.101797
N4    N     N_R   0.776980 0.554780 0.525420 -0.129228
O1    O     O_R   0.366730 0.627160 0.487740 -0.615945
O2    O     O_R   0.410930 0.482330 0.420550 -0.620514
O3    O     O_R   0.589030 0.517690 0.436960 -0.633351
O4    O     O_2   0.428788 0.671026 0.791667 -0.560511
O5    O     O_2   0.387243 0.653911 0.192744 -0.559818
O6    O     O_2   0.540486 0.314279 0.801299 -0.558113
O7    O     O_2   0.601488 0.329189 0.211510 -0.564567
O8    O     O_R   0.544830 0.662520 0.504140 -0.608617
O9    O     O_R   0.410970 0.482310 0.563040 -0.620430
O10   O     O_R   0.589070 0.517670 0.579450 -0.620599
O11   O     O_R   0.455170 0.337480 0.495860 -0.611030
O12   O     O_R   0.633270 0.372840 0.512260 -0.639163
Zn1   Zn    Zn3+2 0.381080 0.476390 0.489050 0.944969
Zn2   Zn    Zn3+2 0.618920 0.523610 0.510950 0.933580

loop_
_geom_bond_atom_site_label_1
_geom_bond_atom_site_label_2
_ccdc_geom_bond_type
C10   C27   A    
C8    C13   A    
C22   C29   A    
C25   H12   S    
C41   C42   A    
C35   C36   A    
C17   H23   S    
C64   H22   S    
C4    O10   A    
C34   C66   A    
C56   H13   S    
C39   C41   A    
C16   C31   S    
C12   C23   A    
C27   H31   S    
C26   C27   A    
C31   C43   A    
C62   C67   A    
C6    H30   S    
C57   H8    S    
C36   C37   A    
C28   C68   S    
C64   H25   S    
C12   H36   S    
C16   O12   A    
O2    Zn1   S    
C38   C39   A    
C1    C46   S    
C23   N1    S    
C62   H21   S    
C18   C19   A    
O10   Zn2   S    
C37   C42   A    
O9    Zn1   S    
C1    O1    A    
C47   C60   A    
C65   H28   S    
C7    H19   S    
C20   C24   A    
C45   C56   A    
C8    C9    A    
C30   H35   S    
C1    O8    A    
C11   O7    S    
C9    C10   A    
C15   H17   S    
C21   C22   A    
O3    Zn2   S    
C30   C44   A    
C2    C6    A    
C18   H32   S    
C59   H10   S    
O12   Zn2   S    
C50   C51   A    
C32   H3    S    
C54   C59   A    
O11   Zn1   S    
C28   O3    A    
C25   C29   A    
C40   C45   A    
C63   C67   A    
C42   H6    S    
C31   C44   A    
C2    C20   A    
C7    C8    A    
C14   H18   S    
C40   O4    S    
C16   O11   A    
C12   C63   A    
C44   H34   S    
C21   C34   A    
C28   O2    A    
C59   N3    A    
C51   C53   A    
C5    C9    A    
C58   H16   S    
C65   H27   S    
C11   N2    A    
C17   C18   A    
C29   H33   S    
C34   C45   A    
C24   H20   S    
N3    Zn1   S    
C60   N3    A    
O8    Zn2   S    
C33   H5    S    
C48   C49   A    
C52   N1    A    
C43   H2    S    
C55   C57   A    
C41   H29   S    
C4    O9    A    
C2    C5    A    
C47   H9    S    
C52   C66   A    
C50   H14   S    
C47   C55   A    
C61   H1    S    
C54   C55   A    
C65   H26   S    
C17   C68   A    
C26   C65   S    
C32   C46   A    
C14   C19   A    
C3    C26   A    
C25   C66   A    
N4    Zn2   S    
C13   N2    A    
C3    C5    A    
C35   H4    S    
C4    C67   S    
C53   C58   A    
C6    C7    A    
C52   O6    S    
C24   C56   A    
C60   H7    S    
C51   C54   A    
C32   C33   A    
C49   H15   S    
C36   C38   A    
C38   C43   A    
C53   N4    A    
O1    Zn1   S    
C57   C58   A    
C48   N4    A    
C15   C68   A    
C33   C35   A    
C30   C39   A    
C61   C62   A    
C48   H11   S    
C10   C11   A    
C63   C64   S    
C19   N2    S    
C23   C61   A    
C20   C21   A    
C49   C50   A    
C64   H24   S    
C14   C15   A    
C3    C22   A    
C37   C46   A    
C13   O5    S    
C40   N1    A    
