data_mof_unit_20774.cif
_audit_creation_date              2012-12-10T20:42:38-0500
_audit_creation_method            fapswitch 2.2
_symmetry_space_group_name_H-M    P1
_symmetry_Int_Tables_number       1
_space_group_crystal_system       triclinic
_cell_length_a                    8.904379
_cell_length_b                    10.725622
_cell_length_c                    9.959469
_cell_angle_alpha                 91.196721
_cell_angle_beta                  90.730157
_cell_angle_gamma                 91.126725
_cell_volume                      950.70545008

loop_
_atom_site_label
_atom_site_type_symbol
_atom_type_description
_atom_site_fract_x
_atom_site_fract_y
_atom_site_fract_z
_atom_type_partial_charge
C1    C     C_R   0.512016 0.261180 0.498984 0.875824
C2    C     C_R   0.400640 0.934569 0.414030 -0.012777
C3    C     C_R   0.493542 0.870027 0.503537 -0.128433
C4    C     C_R   0.594799 0.936953 0.584693 -0.020719
C5    C     C_3   0.706558 0.923680 0.696089 -0.082013
C6    C     C_3   0.740124 0.065296 0.677531 -0.061127
C7    C     C_R   0.370269 0.477538 0.066944 0.059385
C8    C     C_R   0.619232 0.546424 0.074110 -0.122363
C9    C     C_R   0.620647 0.543994 0.930504 -0.139950
C10   C     C_R   0.373001 0.473341 0.928022 0.136861
C11   C     C_3   0.248456 0.377759 0.913958 -0.111015
C12   C     C_R   0.219087 0.502679 0.499499 0.920155
C13   C     C_3   0.236439 0.386615 0.070955 0.232310
C14   C     C_R   0.496323 0.738822 0.501324 0.865040
C15   C     C_R   0.780890 0.506501 0.500565 0.899543
C16   C     C_1   0.065716 0.508768 0.499264 -0.214575
C17   C     C_1   0.934747 0.510592 0.500600 -0.210832
C18   C     C_R   0.614375 0.061120 0.574284 0.057043
C19   C     C_R   0.517345 0.129027 0.494454 -0.095574
C20   C     C_R   0.411234 0.064275 0.413189 -0.282795
H1    H     H_    0.331977 0.114618 0.354350 0.164445
H2    H     H_    0.647664 0.904449 0.791627 0.154830
H3    H     H_    0.715515 0.121878 0.768819 0.147260
H4    H     H_    0.713383 0.587853 0.129166 0.136645
H5    H     H_    0.719076 0.577757 0.879051 0.151094
H6    H     H_    0.150470 0.419191 0.862096 0.127513
N1    N     N_R   0.499010 0.499140 0.142800 -0.107706
N2    N     N_R   0.499010 0.499180 0.857150 -0.101392
O1    O     O_R   0.500020 0.316790 0.614690 -0.615020
O2    O     O_R   0.500000 0.316760 0.385350 -0.638943
O3    O     O_R   0.285350 0.500020 0.614650 -0.624332
O4    O     O_R   0.285340 0.499980 0.385310 -0.633971
O5    O     O_R   0.500000 0.683240 0.614650 -0.627382
O6    O     O_R   0.499980 0.683210 0.385310 -0.607570
O7    O     O_R   0.714660 0.500020 0.614690 -0.624518
O8    O     O_R   0.714650 0.499980 0.385350 -0.626021
Zn1   Zn    Zn3+2 0.500010 0.500020 0.653130 0.920928
Zn2   Zn    Zn3+2 0.499990 0.499980 0.346870 0.922004
C21   C     C_3   0.285327 0.252690 0.842209 -0.283220
C22   C     C_3   0.438312 0.195553 0.872072 -0.819827
H7    H     H_    0.532120 0.263147 0.859138 0.273176
H8    H     H_    0.447443 0.156915 0.973045 0.231920
H9    H     H_    0.452258 0.115667 0.801440 0.226903
H10   H     H_    0.195307 0.182575 0.858960 0.185538
H11   H     H_    0.276517 0.268390 0.732972 0.221277
C23   C     C_3   0.093467 0.458703 0.113927 -0.415361
C24   C     C_3   0.953015 0.377276 0.132214 -0.855191
H12   H     H_    0.916770 0.332266 0.035439 0.250217
H13   H     H_    0.969833 0.307599 0.211275 0.275184
H14   H     H_    0.861930 0.435691 0.169089 0.263374
H15   H     H_    0.114458 0.511104 0.208642 0.252311
H16   H     H_    0.066247 0.530682 0.039212 0.177482
C25   C     C_3   0.267930 0.270816 0.157273 -0.241586
C26   C     C_3   0.173528 0.152232 0.121658 -0.917781
H17   H     H_    0.078809 0.169414 0.052276 0.271049
H18   H     H_    0.243990 0.080169 0.074603 0.255737
H19   H     H_    0.124841 0.111977 0.213647 0.246776
H20   H     H_    0.388884 0.248888 0.157223 0.196667
H21   H     H_    0.243022 0.296845 0.262791 0.213059
C27   C     C_R   0.283227 0.871376 0.329971 0.159494
C28   C     C_R   0.302424 0.856448 0.191006 -0.112694
C29   C     C_R   0.185772 0.805656 0.110535 -0.166378
C30   C     C_R   0.049634 0.770349 0.168482 -0.120651
C31   C     C_R   0.031541 0.782088 0.307255 -0.133067
C32   C     C_R   0.148466 0.831838 0.388079 -0.191538
H22   H     H_    0.406415 0.886059 0.145024 0.121231
H23   H     H_    0.200247 0.795103 0.003190 0.134376
H24   H     H_    0.958552 0.732690 0.106181 0.115604
H25   H     H_    0.926594 0.753216 0.351773 0.128023
H26   H     H_    0.134029 0.841702 0.495430 0.123169
C33   C     C_3   0.829283 0.827998 0.666037 -0.343805
C34   C     C_3   0.934880 0.812343 0.786306 -0.918754
H27   H     H_    0.992833 0.901296 0.815516 0.258526
H28   H     H_    0.870582 0.778664 0.873604 0.247545
H29   H     H_    0.020953 0.742454 0.760717 0.252140
H30   H     H_    0.774793 0.736185 0.645231 0.227697
H31   H     H_    0.893335 0.850826 0.575495 0.190043
C35   C     C_3   0.894358 0.096890 0.616534 -0.372922
C36   C     C_3   0.913670 0.234930 0.593463 -0.883551
H32   H     H_    0.834120 0.262205 0.513386 0.261115
H33   H     H_    0.893818 0.289468 0.687436 0.267103
H34   H     H_    0.030027 0.254188 0.559657 0.236965
H35   H     H_    0.985227 0.069264 0.686167 0.212999
H36   H     H_    0.908867 0.047731 0.518315 0.217776

loop_
_geom_bond_atom_site_label_1
_geom_bond_atom_site_label_2
_ccdc_geom_bond_type
C7    C10   A    
C19   C20   A    
C14   O5    A    
C25   H21   S    
C9    H5    S    
C24   H13   S    
C25   C26   S    
C29   H23   S    
C5    C6    S    
O7    Zn1   S    
C13   C23   S    
C2    C27   S    
C6    C35   S    
C16   C17   T    
N1    Zn2   S    
C32   H26   S    
C23   H16   S    
C7    N1    A    
O2    Zn2   S    
C18   C19   A    
C23   C24   S    
C26   H17   S    
C28   H22   S    
C22   H9    S    
C5    H2    S    
C12   C16   S    
C8    C9    A    
O4    Zn2   S    
C21   H11   S    
C4    C18   A    
C22   H8    S    
C12   O4    A    
C34   H29   S    
C35   H35   S    
C15   O7    A    
C24   H14   S    
C13   C25   S    
C6    C18   S    
C26   H18   S    
C1    C19   S    
C2    C20   A    
C34   H28   S    
C21   C22   S    
C36   H33   S    
C35   C36   S    
C34   H27   S    
C11   H6    S    
C30   C31   A    
C23   H15   S    
O5    Zn1   S    
O3    Zn1   S    
C27   C28   A    
C29   C30   A    
C24   H12   S    
C1    O1    A    
C31   H25   S    
C11   C21   S    
C3    C14   S    
C22   H7    S    
C27   C32   A    
C12   O3    A    
C3    C4    A    
C15   O8    A    
C33   H31   S    
C10   N2    A    
C15   C17   S    
C30   H24   S    
O6    Zn2   S    
C4    C5    S    
C14   O6    A    
C36   H34   S    
C25   H20   S    
C21   H10   S    
C31   C32   A    
O8    Zn2   S    
C2    C3    A    
C33   C34   S    
C5    C33   S    
C11   C13   S    
C33   H30   S    
N2    Zn1   S    
C6    H3    S    
C1    O2    A    
C8    H4    S    
C28   C29   A    
C10   C11   S    
C36   H32   S    
C35   H36   S    
C7    C13   S    
C20   H1    S    
O1    Zn1   S    
C8    N1    A    
C9    N2    A    
C26   H19   S    
