data_mof_unit_6104.cif
_audit_creation_date              2012-12-10T18:49:01-0500
_audit_creation_method            fapswitch 2.2
_symmetry_space_group_name_H-M    P1
_symmetry_Int_Tables_number       1
_space_group_crystal_system       triclinic
_cell_length_a                    10.701577
_cell_length_b                    10.019684
_cell_length_c                    14.090686
_cell_angle_alpha                 91.1098
_cell_angle_beta                  90.588832
_cell_angle_gamma                 91.759852
_cell_volume                      1509.8085225

loop_
_atom_site_label
_atom_site_type_symbol
_atom_type_description
_atom_site_fract_x
_atom_site_fract_y
_atom_site_fract_z
_atom_type_partial_charge
C1    C     C_R   0.259930 0.496788 0.504485 0.832736
C2    C     C_1   0.499111 0.499856 0.957296 0.076465
C3    C     C_R   0.055477 0.390050 0.463036 -0.035978
C4    C     C_R   0.936233 0.584153 0.571586 -0.048997
C5    C     C_R   0.933980 0.421032 0.438622 -0.056082
C6    C     C_R   0.066479 0.579759 0.575314 -0.078317
C7    C     C_R   0.872037 0.508166 0.500015 -0.186565
C8    C     C_R   0.125958 0.486936 0.516323 -0.245527
C9    C     C_R   0.547878 0.074770 0.574974 0.326134
C10   C     C_R   0.501265 0.927385 0.417057 0.327695
C11   C     C_R   0.470160 0.064884 0.419668 0.287223
C12   C     C_R   0.739168 0.502445 0.499228 0.809067
C13   C     C_R   0.517437 0.936333 0.582044 0.287441
C14   C     C_2   0.092441 0.247332 0.458907 0.561181
C15   C     C_2   0.867624 0.662254 0.644053 0.548271
C16   C     C_2   0.873269 0.366470 0.349436 0.609935
C17   C     C_2   0.140050 0.660540 0.646521 0.597859
C18   C     C_R   0.499961 0.498840 0.329597 0.892339
C19   C     C_R   0.499699 0.500974 0.670399 0.876460
C20   C     C_1   0.499825 0.496439 0.228025 -0.069788
C21   C     C_1   0.499135 0.502416 0.771966 -0.061802
C22   C     C_1   0.499608 0.496275 0.142616 0.057023
C23   C     C_1   0.498989 0.501808 0.857356 0.051474
C24   C     C_1   0.499323 0.497915 0.042671 0.073400
H1    H     H_    0.167018 0.212945 0.503842 0.097262
H2    H     H_    0.801240 0.735631 0.622638 0.149435
H3    H     H_    0.773106 0.370076 0.338312 0.052134
H4    H     H_    0.220241 0.617205 0.680365 0.051981
H5    H     H_    0.871371 0.199692 0.580301 0.372838
H6    H     H_    0.558718 0.798317 0.177998 0.381177
H7    H     H_    0.265186 0.272132 0.274491 0.387200
H8    H     H_    0.605140 0.787039 0.806635 0.390467
N1    N     N_R   0.500000 0.857200 0.500000 -0.220358
N2    N     N_R   0.500000 0.142800 0.500000 -0.221411
O1    O     O_R   0.316770 0.614620 0.499990 -0.590334
O2    O     O_2   0.885093 0.644322 0.728558 -0.507599
O3    O     O_2   0.936057 0.324096 0.284217 -0.481515
O4    O     O_2   0.112864 0.775022 0.666831 -0.479071
O5    O     O_2   0.675266 0.249791 0.694480 -0.259064
O6    O     O_2   0.746203 0.021676 0.688008 -0.219553
O7    O     O_3   0.794867 0.168230 0.545424 -0.527420
O8    O     O_2   0.665244 0.994279 0.281469 -0.213789
O9    O     O_2   0.689741 0.777779 0.351436 -0.276492
O10   O     O_3   0.503342 0.806909 0.233539 -0.504942
O11   O     O_2   0.496451 0.179215 0.249068 -0.244950
O12   O     O_R   0.683230 0.385380 0.500010 -0.553954
O13   O     O_2   0.327941 0.012129 0.265460 -0.209090
O14   O     O_3   0.296490 0.245600 0.337570 -0.551238
O15   O     O_2   0.483785 0.001422 0.765019 -0.238205
O16   O     O_2   0.374117 0.801144 0.705569 -0.291902
O17   O     O_3   0.614507 0.792072 0.736927 -0.522266
O18   O     O_R   0.683230 0.614620 0.500010 -0.597178
O19   O     O_R   0.316770 0.385380 0.499990 -0.610949
O20   O     O_R   0.500000 0.614690 0.373720 -0.530227
O21   O     O_R   0.500000 0.385310 0.626280 -0.566895
O22   O     O_R   0.500000 0.614690 0.626280 -0.540365
O23   O     O_R   0.500000 0.385310 0.373720 -0.541501
O24   O     O_2   0.035230 0.163245 0.410359 -0.458116
S1    S     S_3+6 0.691445 0.130538 0.630371 0.119682
S2    S     S_3+6 0.594897 0.875549 0.320202 0.126627
S3    S     S_3+6 0.398308 0.125877 0.315039 0.120476
S4    S     S_3+6 0.493691 0.881685 0.699730 0.104405
Zn1   Zn    Zn3+2 0.500000 0.653120 0.500000 1.093549
Zn2   Zn    Zn3+2 0.500000 0.346880 0.500000 1.079504

loop_
_geom_bond_atom_site_label_1
_geom_bond_atom_site_label_2
_ccdc_geom_bond_type
C19   O22   A    
O13   S3    D    
C10   S2    S    
H8    O17   S    
C13   N1    A    
C1    C8    S    
C18   O23   A    
C16   O3    D    
N1    Zn1   S    
O5    S1    D    
O21   Zn2   S    
C4    C15   S    
N2    Zn2   S    
O22   Zn1   S    
O6    S1    D    
O10   S2    S    
C1    O19   A    
C11   S3    S    
O17   S4    S    
H6    O10   S    
O14   S3    S    
C7    C12   S    
C3    C14   S    
O9    S2    D    
C16   H3    S    
C4    C7    A    
C14   O24   D    
O11   S3    D    
C12   O18   A    
C20   C22   T    
C10   N1    A    
C18   C20   S    
H7    O14   S    
C21   C23   T    
C14   H1    S    
C2    C24   T    
C9    N2    A    
O16   S4    D    
O19   Zn2   S    
C22   C24   S    
C4    C6    A    
C10   C11   A    
C18   O20   A    
C19   O21   A    
C3    C5    A    
C15   O2    D    
C17   O4    D    
C1    O1    A    
O23   Zn2   S    
C12   O12   A    
C3    C8    A    
O20   Zn1   S    
O7    S1    S    
O8    S2    D    
C2    C23   S    
C5    C7    A    
C6    C17   S    
C9    C13   A    
C15   H2    S    
C5    C16   S    
C6    C8    A    
O15   S4    D    
H5    O7    S    
C17   H4    S    
C9    S1    S    
O1    Zn1   S    
C11   N2    A    
C13   S4    S    
O12   Zn2   S    
C19   C21   S    
O18   Zn1   S    
