data_mof_unit_9761.cif
_audit_creation_date              2012-12-10T20:34:12-0500
_audit_creation_method            fapswitch 2.2
_symmetry_space_group_name_H-M    P1
_symmetry_Int_Tables_number       1
_space_group_crystal_system       triclinic
_cell_length_a                    9.945971
_cell_length_b                    10.760571
_cell_length_c                    13.609625
_cell_angle_alpha                 89.021104
_cell_angle_beta                  85.700403
_cell_angle_gamma                 89.372454
_cell_volume                      1452.18139429

loop_
_atom_site_label
_atom_site_type_symbol
_atom_type_description
_atom_site_fract_x
_atom_site_fract_y
_atom_site_fract_z
_atom_type_partial_charge
C1    C     C_R   0.500052 0.739695 0.492654 0.940530
C2    C     C_3   0.249841 0.937586 0.475208 0.250178
C3    C     C_R   0.921905 0.458746 0.580352 0.120727
C4    C     C_R   0.478715 0.502262 0.684976 0.918340
C5    C     C_R   0.934500 0.531756 0.417758 -0.140755
C6    C     C_R   0.076825 0.534554 0.417407 0.152435
C7    C     C_R   0.063167 0.457379 0.579717 0.122723
C8    C     C_3   0.058842 0.499575 0.683996 -0.567623
C9    C     C_3   0.904374 0.497371 0.686667 0.489733
C10   C     C_R   0.501920 0.260927 0.491949 0.946986
C11   C     C_R   0.521240 0.497002 0.315081 0.936949
C12   C     C_1   0.468782 0.516918 0.787050 -0.124105
C13   C     C_1   0.530581 0.476857 0.213728 -0.075666
C14   C     C_2   0.519664 0.441867 0.025661 0.462143
C15   C     C_2   0.477512 0.540923 0.975450 0.063751
C16   C     C_1   0.468062 0.530271 0.873252 0.061434
C17   C     C_1   0.530143 0.458213 0.128264 -0.111655
C18   C     C_3   0.828674 0.648380 0.799238 0.141167
C19   C     C_3   0.791020 0.785148 0.811254 -0.825747
C20   C     C_3   0.579611 0.231167 0.041900 0.135371
C21   C     C_3   0.601429 0.112098 0.983882 -0.704594
C22   C     C_3   0.035845 0.149890 0.496381 0.184962
C23   C     C_R   0.386381 0.938624 0.515852 0.002777
C24   C     C_3   0.933977 0.151972 0.584703 -0.765412
C25   C     C_3   0.061829 0.813091 0.510394 0.092499
C26   C     C_3   0.918680 0.831712 0.554109 -0.753562
C27   C     C_R   0.499495 0.872287 0.478249 -0.246526
C28   C     C_R   0.606726 0.934498 0.424014 0.131157
C29   C     C_R   0.610502 0.065207 0.425603 0.112678
C30   C     C_R   0.504405 0.129034 0.478462 -0.236312
C31   C     C_R   0.388619 0.066354 0.510823 0.042223
C32   C     C_3   0.256440 0.077814 0.466060 0.436915
H1    H     H_    0.101264 0.594126 0.689915 0.224277
H2    H     H_    0.495771 0.215208 0.099553 0.175947
H3    H     H_    0.674264 0.251716 0.077067 0.175367
H4    H     H_    0.686286 0.123465 0.926736 0.267088
H5    H     H_    0.508620 0.089095 0.947666 0.264982
H6    H     H_    0.625759 0.034232 0.034380 0.231132
H7    H     H_    0.012298 0.071219 0.448651 0.171581
H8    H     H_    0.026749 0.238067 0.453627 0.170493
H9    H     H_    0.965827 0.222582 0.635258 0.266008
H10   H     H_    0.831339 0.173405 0.562007 0.238958
H11   H     H_    0.934020 0.062838 0.626153 0.272873
H12   H     H_    0.101821 0.428456 0.733140 0.215262
H13   H     H_    0.096867 0.721033 0.534021 0.189603
H14   H     H_    0.056810 0.817323 0.428972 0.160330
H15   H     H_    0.871207 0.913598 0.519987 0.239959
H16   H     H_    0.857715 0.749642 0.539500 0.279457
H17   H     H_    0.918982 0.844439 0.634145 0.281673
H18   H     H_    0.254576 0.889990 0.402717 0.077961
H19   H     H_    0.885697 0.561278 0.352868 0.206173
H20   H     H_    0.744322 0.595115 0.836698 0.183308
H21   H     H_    0.922233 0.629691 0.837474 0.162849
H22   H     H_    0.881658 0.843919 0.797663 0.248180
H23   H     H_    0.749172 0.801365 0.888010 0.239656
H24   H     H_    0.713590 0.812734 0.760065 0.270207
I1    I     I_    0.434582 0.719473 0.036367 -0.329057
I2    I     I_    0.166795 0.620939 0.287763 -0.282611
I3    I     I_    0.813137 0.350436 0.780823 -0.405365
I4    I     I_    0.745151 0.834109 0.325354 -0.329112
I5    I     I_    0.757398 0.165488 0.333045 -0.367497
I6    I     I_    0.271351 0.146526 0.314043 -0.368337
N1    N     N_R   0.857130 0.500860 0.500650 -0.116112
N2    N     N_R   0.142770 0.500820 0.500650 -0.127018
O1    O     O_R   0.385310 0.683210 0.499990 -0.618051
O2    O     O_3   0.546943 0.329346 0.977231 -0.604951
O3    O     O_3   0.165220 0.142196 0.531799 -0.553894
O4    O     O_3   0.148299 0.900542 0.547983 -0.562814
O5    O     O_R   0.614650 0.683240 0.500000 -0.597718
O6    O     O_R   0.368820 0.499950 0.640340 -0.616212
O7    O     O_R   0.598170 0.499990 0.640350 -0.568440
O8    O     O_R   0.385350 0.316760 0.500000 -0.569982
O9    O     O_R   0.614690 0.316790 0.500010 -0.606820
O10   O     O_R   0.401830 0.500010 0.359650 -0.584207
O11   O     O_R   0.631180 0.500050 0.359660 -0.612316
O12   O     O_3   0.844738 0.617303 0.698106 -0.601487
Zn1   Zn    Zn3+2 0.346870 0.499980 0.499990 1.009363
Zn2   Zn    Zn3+2 0.653130 0.500020 0.500010 1.005593

loop_
_geom_bond_atom_site_label_1
_geom_bond_atom_site_label_2
_ccdc_geom_bond_type
C19   H24   S    
C24   H10   S    
N2    Zn1   S    
C6    I2    S    
C4    O6    A    
C18   H20   S    
C7    C8    S    
C21   H4    S    
C29   C30   A    
C20   O2    S    
C28   C29   A    
C3    C7    A    
C30   C31   A    
C10   O9    A    
C15   C16   S    
C5    N1    A    
C2    C32   S    
C18   C19   S    
C6    N2    A    
C2    H18   S    
C18   H21   S    
C20   H3    S    
C21   H6    S    
C12   C16   T    
C8    C9    S    
O10   Zn1   S    
C1    O1    A    
O9    Zn2   S    
C9    O12   S    
C23   C27   A    
C4    C12   S    
C26   H16   S    
C20   H2    S    
O6    Zn1   S    
C24   H9    S    
C15   I1    S    
C14   C17   S    
O5    Zn2   S    
C25   O4    S    
C28   I4    S    
C7    N2    A    
C29   I5    S    
O1    Zn1   S    
C26   H17   S    
C25   C26   S    
C1    O5    A    
C9    I3    S    
C23   C31   A    
O8    Zn1   S    
C3    C9    S    
C10   C30   S    
C31   C32   S    
C22   H8    S    
C14   O2    S    
C26   H15   S    
C32   O3    S    
C19   H22   S    
C22   C24   S    
C25   H13   S    
C2    C23   S    
C19   H23   S    
C18   O12   S    
C8    H12   S    
C11   O10   A    
C3    N1    A    
C2    O4    S    
C13   C17   T    
C32   I6    S    
C11   O11   A    
C11   C13   S    
C5    C6    A    
C22   H7    S    
C8    H1    S    
C4    O7    A    
O11   Zn2   S    
C22   O3    S    
C21   H5    S    
C20   C21   S    
C27   C28   A    
C1    C27   S    
C24   H11   S    
C14   C15   D    
C5    H19   S    
C25   H14   S    
O7    Zn2   S    
N1    Zn2   S    
C10   O8    A    
