data_mof_unit_61030.cif
_audit_creation_date              2013-03-05T16:31:47-0500
_audit_creation_method            fapswitch 2.2
_symmetry_space_group_name_H-M    P1
_symmetry_Int_Tables_number       1
_space_group_crystal_system       triclinic
_cell_length_a                    22.389857
_cell_length_b                    26.192513
_cell_length_c                    22.386362
_cell_angle_alpha                 90.033405
_cell_angle_beta                  89.93146
_cell_angle_gamma                 90.100693
_cell_volume                      13128.3744586

loop_
_atom_site_label
_atom_site_type_symbol
_atom_site_description
_atom_site_fract_x
_atom_site_fract_y
_atom_site_fract_z
_atom_type_partial_charge
Zn1   Zn    Zn3+2 0.450550 0.206230 0.700550 1.117410
Zn2   Zn    Zn3+2 0.450550 0.206230 0.299450 1.045212
Zn3   Zn    Zn3+2 0.450550 0.793770 0.299450 1.106248
Zn4   Zn    Zn3+2 0.450550 0.793770 0.700550 1.042790
Zn5   Zn    Zn3+2 0.450550 0.706230 0.200550 1.117387
Zn6   Zn    Zn3+2 0.450550 0.706230 0.799450 1.045109
Zn7   Zn    Zn3+2 0.450550 0.293770 0.799450 1.106069
Zn8   Zn    Zn3+2 0.450550 0.293770 0.200550 1.041903
Zn9   Zn    Zn3+2 0.950550 0.206230 0.200550 1.117586
Zn10  Zn    Zn3+2 0.950550 0.206230 0.799450 1.042746
Zn11  Zn    Zn3+2 0.950550 0.793770 0.799450 1.105999
Zn12  Zn    Zn3+2 0.950550 0.793770 0.200550 1.042625
Zn13  Zn    Zn3+2 0.950550 0.706230 0.700550 1.118753
Zn14  Zn    Zn3+2 0.950550 0.706230 0.299450 1.043709
Zn15  Zn    Zn3+2 0.950550 0.293770 0.299450 1.103203
Zn16  Zn    Zn3+2 0.950550 0.293770 0.700550 1.071787
Zn17  Zn    Zn3+2 0.549450 0.293780 0.700550 1.111434
Zn18  Zn    Zn3+2 0.549450 0.293780 0.299450 1.052208
Zn19  Zn    Zn3+2 0.549450 0.706220 0.299450 1.099109
Zn20  Zn    Zn3+2 0.549450 0.706220 0.700550 1.069457
Zn21  Zn    Zn3+2 0.549450 0.793780 0.200550 1.110385
Zn22  Zn    Zn3+2 0.549450 0.793780 0.799450 1.052560
Zn23  Zn    Zn3+2 0.549450 0.206220 0.799450 1.099500
Zn24  Zn    Zn3+2 0.549450 0.206220 0.200550 1.069938
Zn25  Zn    Zn3+2 0.049450 0.293780 0.200550 1.110537
Zn26  Zn    Zn3+2 0.049450 0.293780 0.799450 1.048905
Zn27  Zn    Zn3+2 0.049450 0.706220 0.799450 1.099175
Zn28  Zn    Zn3+2 0.049450 0.706220 0.200550 1.069991
Zn29  Zn    Zn3+2 0.049450 0.793780 0.700550 1.110084
Zn30  Zn    Zn3+2 0.049450 0.793780 0.299450 1.052743
Zn31  Zn    Zn3+2 0.049450 0.206220 0.299450 1.099792
Zn32  Zn    Zn3+2 0.049450 0.206220 0.700550 1.067701
O1    O     O_3   0.500000 0.250000 0.750000 -0.556951
O2    O     O_3   0.500000 0.250000 0.250000 -0.528649
O3    O     O_3   0.500000 0.750000 0.250000 -0.556712
O4    O     O_3   0.500000 0.750000 0.750000 -0.528781
O5    O     O_3   0.000000 0.250000 0.250000 -0.556456
O6    O     O_3   0.000000 0.250000 0.750000 -0.534845
O7    O     O_3   0.000000 0.750000 0.750000 -0.557349
O8    O     O_3   0.000000 0.750000 0.250000 -0.528663
O9    O     O_R   0.465380 0.366870 0.784620 -0.573981
O10   O     O_R   0.465380 0.366870 0.215380 -0.667687
O11   O     O_R   0.465380 0.633130 0.215380 -0.571945
O12   O     O_R   0.465380 0.633130 0.784620 -0.645217
O13   O     O_R   0.465380 0.866870 0.284620 -0.573948
O14   O     O_R   0.465380 0.866870 0.715380 -0.666310
O15   O     O_R   0.465380 0.133130 0.715380 -0.571669
O16   O     O_R   0.465380 0.133130 0.284620 -0.645203
O17   O     O_R   0.965380 0.366870 0.284620 -0.573158
O18   O     O_R   0.965380 0.366870 0.715380 -0.596792
O19   O     O_R   0.965380 0.633130 0.715380 -0.563080
O20   O     O_R   0.965380 0.633130 0.284620 -0.645030
O21   O     O_R   0.965380 0.866870 0.784620 -0.573905
O22   O     O_R   0.965380 0.866870 0.215380 -0.666595
O23   O     O_R   0.965380 0.133130 0.215380 -0.571708
O24   O     O_R   0.965380 0.133130 0.784620 -0.645094
O25   O     O_R   0.534610 0.280640 0.617980 -0.610570
O26   O     O_R   0.534610 0.280640 0.382020 -0.597555
O27   O     O_R   0.534610 0.719360 0.382020 -0.611823
O28   O     O_R   0.534610 0.719360 0.617980 -0.601887
O29   O     O_R   0.534610 0.780640 0.117980 -0.610462
O30   O     O_R   0.534610 0.780640 0.882020 -0.597269
O31   O     O_R   0.534610 0.219360 0.882020 -0.611668
O32   O     O_R   0.534610 0.219360 0.117980 -0.601576
O33   O     O_R   0.034610 0.280640 0.117980 -0.610283
O34   O     O_R   0.034610 0.280640 0.882020 -0.596825
O35   O     O_R   0.034610 0.719360 0.882020 -0.610723
O36   O     O_R   0.034610 0.719360 0.117980 -0.601518
O37   O     O_R   0.034610 0.780640 0.617980 -0.610009
O38   O     O_R   0.034610 0.780640 0.382020 -0.596894
O39   O     O_R   0.034610 0.219360 0.382020 -0.610620
O40   O     O_R   0.034610 0.219360 0.617980 -0.600889
O41   O     O_R   0.632030 0.280640 0.715400 -0.620955
O42   O     O_R   0.632030 0.280640 0.284600 -0.636610
O43   O     O_R   0.632030 0.719360 0.284600 -0.613969
O44   O     O_R   0.632030 0.719360 0.715400 -0.624152
O45   O     O_R   0.632030 0.780640 0.215400 -0.622334
O46   O     O_R   0.632030 0.780640 0.784600 -0.636254
O47   O     O_R   0.632030 0.219360 0.784600 -0.613953
O48   O     O_R   0.632030 0.219360 0.215400 -0.623862
O49   O     O_R   0.132030 0.280640 0.215400 -0.622416
O50   O     O_R   0.132030 0.280640 0.784600 -0.635615
O51   O     O_R   0.132030 0.719360 0.784600 -0.614084
O52   O     O_R   0.132030 0.719360 0.215400 -0.623959
O53   O     O_R   0.132030 0.780640 0.715400 -0.622385
O54   O     O_R   0.132030 0.780640 0.284600 -0.636253
O55   O     O_R   0.132030 0.219360 0.284600 -0.613467
O56   O     O_R   0.132030 0.219360 0.715400 -0.624159
O57   O     O_R   0.367970 0.280650 0.784620 -0.611456
O58   O     O_R   0.367970 0.280650 0.215380 -0.612525
O59   O     O_R   0.367970 0.719350 0.215380 -0.606339
O60   O     O_R   0.367970 0.719350 0.784620 -0.604677
O61   O     O_R   0.367970 0.780650 0.284620 -0.611419
O62   O     O_R   0.367970 0.780650 0.715380 -0.612039
O63   O     O_R   0.367970 0.219350 0.715380 -0.606298
O64   O     O_R   0.367970 0.219350 0.284620 -0.604454
O65   O     O_R   0.867970 0.280650 0.284620 -0.612197
O66   O     O_R   0.867970 0.280650 0.715380 -0.594297
O67   O     O_R   0.867970 0.719350 0.715380 -0.604871
O68   O     O_R   0.867970 0.719350 0.284620 -0.605117
O69   O     O_R   0.867970 0.780650 0.784620 -0.611591
O70   O     O_R   0.867970 0.780650 0.215380 -0.612018
O71   O     O_R   0.867970 0.219350 0.215380 -0.606061
O72   O     O_R   0.867970 0.219350 0.784620 -0.607797
O73   O     O_R   0.465380 0.219370 0.617980 -0.612927
O74   O     O_R   0.465380 0.219370 0.382020 -0.651916
O75   O     O_R   0.465380 0.780630 0.382020 -0.618786
O76   O     O_R   0.465380 0.780630 0.617980 -0.641613
O77   O     O_R   0.465380 0.719370 0.117980 -0.612975
O78   O     O_R   0.465380 0.719370 0.882020 -0.652030
O79   O     O_R   0.465380 0.280630 0.882020 -0.618915
O80   O     O_R   0.465380 0.280630 0.117980 -0.641949
O81   O     O_R   0.965380 0.219370 0.117980 -0.612986
O82   O     O_R   0.965380 0.219370 0.882020 -0.652166
O83   O     O_R   0.965380 0.780630 0.882020 -0.619022
O84   O     O_R   0.965380 0.780630 0.117980 -0.641776
O85   O     O_R   0.965380 0.719370 0.617980 -0.614870
O86   O     O_R   0.965380 0.719370 0.382020 -0.653139
O87   O     O_R   0.965380 0.280630 0.382020 -0.621698
O88   O     O_R   0.965380 0.280630 0.617980 -0.645143
O89   O     O_R   0.534610 0.366870 0.715390 -0.585148
O90   O     O_R   0.534610 0.366870 0.284610 -0.597316
O91   O     O_R   0.534610 0.633130 0.284610 -0.603653
O92   O     O_R   0.534610 0.633130 0.715390 -0.595246
O93   O     O_R   0.534610 0.866870 0.215390 -0.585423
O94   O     O_R   0.534610 0.866870 0.784610 -0.597846
O95   O     O_R   0.534610 0.133130 0.784610 -0.603643
O96   O     O_R   0.534610 0.133130 0.215390 -0.595233
O97   O     O_R   0.034610 0.366870 0.215390 -0.585547
O98   O     O_R   0.034610 0.366870 0.784610 -0.614013
O99   O     O_R   0.034610 0.633130 0.784610 -0.606356
O100  O     O_R   0.034610 0.633130 0.215390 -0.595356
O101  O     O_R   0.034610 0.866870 0.715390 -0.585372
O102  O     O_R   0.034610 0.866870 0.284610 -0.597672
O103  O     O_R   0.034610 0.133130 0.284610 -0.603611
O104  O     O_R   0.034610 0.133130 0.715390 -0.595115
C1    C     C_R   0.499176 0.391485 0.749701 1.025348
C2    C     C_R   0.499169 0.391424 0.250495 0.845171
C3    C     C_R   0.499528 0.608721 0.249786 0.989736
C4    C     C_R   0.497903 0.608758 0.748648 0.877893
C5    C     C_R   0.499176 0.891485 0.249701 1.025368
C6    C     C_R   0.499212 0.891423 0.750458 0.845033
C7    C     C_R   0.499497 0.108718 0.749819 0.989668
C8    C     C_R   0.497904 0.108758 0.248649 0.877777
C9    C     C_R   0.999175 0.391485 0.249699 1.026663
C10   C     C_R   0.998861 0.391413 0.750708 0.858973
C11   C     C_R   0.999594 0.608727 0.749752 0.990476
C12   C     C_R   0.997898 0.608759 0.248641 0.878567
C13   C     C_R   0.999176 0.891485 0.749701 1.025432
C14   C     C_R   0.999202 0.891423 0.250466 0.845049
C15   C     C_R   0.999503 0.108720 0.249812 0.989691
C16   C     C_R   0.997904 0.108758 0.748649 0.877926
C17   C     C_R   0.499997 0.250011 0.590068 0.869118
C18   C     C_R   0.499986 0.250002 0.409933 0.855327
C19   C     C_R   0.499974 0.750006 0.409909 0.869568
C20   C     C_R   0.500003 0.749974 0.590090 0.851296
C21   C     C_R   0.499997 0.750011 0.090068 0.869309
C22   C     C_R   0.499986 0.750002 0.909933 0.855459
C23   C     C_R   0.499973 0.250006 0.909909 0.869493
C24   C     C_R   0.500003 0.249974 0.090090 0.851341
C25   C     C_R   0.999996 0.250011 0.090068 0.869295
C26   C     C_R   0.999986 0.250002 0.909933 0.854557
C27   C     C_R   0.999973 0.750006 0.909909 0.869554
C28   C     C_R   0.000003 0.749974 0.090090 0.851294
C29   C     C_R   0.999996 0.750012 0.590068 0.868406
C30   C     C_R   0.999986 0.750002 0.409933 0.855541
C31   C     C_R   0.999973 0.250006 0.409909 0.869546
C32   C     C_R   0.000003 0.249974 0.590091 0.845711
C33   C     C_R   0.659930 0.250016 0.749964 0.859440
C34   C     C_R   0.659938 0.250010 0.250001 0.823291
C35   C     C_R   0.659930 0.750015 0.249964 0.860007
C36   C     C_R   0.659938 0.750010 0.750002 0.823126
C37   C     C_R   0.159930 0.250015 0.249964 0.859804
C38   C     C_R   0.159938 0.250010 0.750002 0.823061
C39   C     C_R   0.159930 0.750016 0.749964 0.860148
C40   C     C_R   0.159938 0.750010 0.250001 0.823164
C41   C     C_R   0.340073 0.250001 0.749988 0.878334
C42   C     C_R   0.340080 0.249970 0.250022 0.902091
C43   C     C_R   0.340073 0.750002 0.249988 0.878502
C44   C     C_R   0.340080 0.749970 0.750022 0.902157
C45   C     C_R   0.840073 0.250001 0.249988 0.878666
C46   C     C_R   0.840080 0.249971 0.750023 0.897530
C47   C     C_R   0.840073 0.750001 0.749988 0.878074
C48   C     C_R   0.840080 0.749970 0.250022 0.902245
C49   C     C_1   0.276718 0.250005 0.749984 -0.079222
C50   C     C_1   0.276718 0.249953 0.250026 -0.085600
C51   C     C_1   0.276718 0.750005 0.249984 -0.079303
C52   C     C_1   0.276718 0.749953 0.750026 -0.085482
C53   C     C_1   0.776718 0.250005 0.249984 -0.079880
C54   C     C_1   0.776719 0.249954 0.750026 -0.079656
C55   C     C_1   0.776718 0.750005 0.749984 -0.079127
C56   C     C_1   0.776718 0.749953 0.250026 -0.085896
C57   C     C_1   0.223297 0.250018 0.750000 -0.082216
C58   C     C_1   0.223295 0.250016 0.249952 -0.074410
C59   C     C_1   0.223297 0.750018 0.250000 -0.082654
C60   C     C_1   0.223295 0.750016 0.749952 -0.074352
C61   C     C_1   0.723297 0.250018 0.250000 -0.083075
C62   C     C_1   0.723295 0.250016 0.749952 -0.072494
C63   C     C_1   0.723297 0.750018 0.750000 -0.082830
C64   C     C_1   0.723295 0.750016 0.249952 -0.074687
C65   C     C_3   0.476859 0.030975 0.683016 -0.208129
C66   C     C_3   0.443648 0.030701 0.295636 -0.166534
C67   C     C_3   0.438245 0.969226 0.288718 -0.237640
C68   C     C_3   0.482589 0.969320 0.682500 -0.198361
C69   C     C_3   0.476102 0.530979 0.183250 -0.208169
C70   C     C_3   0.443632 0.530701 0.795616 -0.166327
C71   C     C_3   0.438234 0.469226 0.788698 -0.237470
C72   C     C_3   0.481711 0.469318 0.182710 -0.197399
C73   C     C_3   0.976686 0.030978 0.183066 -0.208178
C74   C     C_3   0.943649 0.030701 0.795637 -0.166509
C75   C     C_3   0.938246 0.969227 0.788719 -0.237587
C76   C     C_3   0.982398 0.969322 0.182542 -0.198220
C77   C     C_3   0.974526 0.530901 0.684004 -0.229609
C78   C     C_3   0.943568 0.530702 0.295538 -0.160721
C79   C     C_3   0.938187 0.469225 0.288626 -0.228760
C80   C     C_3   0.980955 0.469381 0.682685 -0.179543
C81   C     C_3   0.562278 0.030518 0.762047 -0.278158
C82   C     C_3   0.557171 0.029981 0.269144 -0.328186
C83   C     C_3   0.555015 0.970990 0.276498 -0.279756
C84   C     C_3   0.560771 0.971338 0.769303 -0.283540
C85   C     C_3   0.562379 0.530506 0.261352 -0.277981
C86   C     C_3   0.557164 0.529982 0.769161 -0.328207
C87   C     C_3   0.555007 0.470991 0.776512 -0.279651
C88   C     C_3   0.560915 0.471324 0.268611 -0.283007
C89   C     C_3   0.062298 0.030514 0.261888 -0.278238
C90   C     C_3   0.057171 0.029981 0.769142 -0.328283
C91   C     C_3   0.055016 0.970990 0.776496 -0.279823
C92   C     C_3   0.060799 0.971335 0.269149 -0.283537
C93   C     C_3   0.062466 0.530398 0.760232 -0.281804
C94   C     C_3   0.057135 0.529985 0.269220 -0.327417
C95   C     C_3   0.054974 0.470993 0.276564 -0.277709
C96   C     C_3   0.060852 0.471214 0.767793 -0.312602
C97   C     C_3   0.453632 0.031291 0.802390 0.238333
C98   C     C_3   0.479915 0.031712 0.181009 0.264116
C99   C     C_3   0.488943 0.969716 0.178591 0.242813
C100  C     C_3   0.448523 0.968975 0.798642 0.299055
C101  C     C_3   0.454155 0.531335 0.302850 0.238715
C102  C     C_3   0.479937 0.531712 0.681001 0.264285
C103  C     C_3   0.488964 0.469716 0.678586 0.242876
C104  C     C_3   0.448977 0.469017 0.299193 0.298805
C105  C     C_3   0.953744 0.031300 0.302489 0.238384
C106  C     C_3   0.979912 0.031712 0.681010 0.264116
C107  C     C_3   0.988941 0.969716 0.678591 0.242802
C108  C     C_3   0.948616 0.968984 0.298758 0.299044
C109  C     C_3   0.955354 0.531637 0.804119 0.228843
C110  C     C_3   0.980010 0.531711 0.180970 0.263004
C111  C     C_3   0.989033 0.469714 0.178568 0.241703
C112  C     C_3   0.949520 0.469302 0.800434 0.280267
C113  C     C_3   0.497125 0.051320 0.748379 -0.265391
C114  C     C_3   0.494117 0.051348 0.248332 -0.184890
C115  C     C_3   0.495010 0.949085 0.248420 -0.178572
C116  C     C_3   0.497304 0.949202 0.750059 -0.268226
C117  C     C_3   0.497100 0.551328 0.248386 -0.265639
C118  C     C_3   0.494117 0.551348 0.748329 -0.184932
C119  C     C_3   0.495010 0.449085 0.748417 -0.178838
C120  C     C_3   0.497231 0.449206 0.250103 -0.267373
C121  C     C_3   0.997117 0.051323 0.248379 -0.265418
C122  C     C_3   0.994116 0.051348 0.748332 -0.184860
C123  C     C_3   0.995009 0.949085 0.748420 -0.178589
C124  C     C_3   0.997286 0.949203 0.250067 -0.268141
C125  C     C_3   0.997047 0.551348 0.748607 -0.237362
C126  C     C_3   0.994111 0.551348 0.248315 -0.185714
C127  C     C_3   0.995007 0.449085 0.248408 -0.180467
C128  C     C_3   0.996712 0.449158 0.750233 -0.193115
H1    H     H_    0.576365 0.045894 0.805895 0.246790
H2    H     H_    0.589459 0.036513 0.233316 0.249193
H3    H     H_    0.593863 0.957209 0.251514 0.232900
H4    H     H_    0.565885 0.964249 0.817577 0.257958
H5    H     H_    0.576935 0.545876 0.305049 0.246224
H6    H     H_    0.589464 0.536516 0.733345 0.249180
H7    H     H_    0.593863 0.457211 0.751538 0.233351
H8    H     H_    0.566579 0.464241 0.316820 0.257320
H9    H     H_    0.076495 0.045892 0.305702 0.246754
H10   H     H_    0.089458 0.036513 0.733313 0.249222
H11   H     H_    0.093863 0.957209 0.751510 0.232925
H12   H     H_    0.066031 0.964248 0.317410 0.257949
H13   H     H_    0.078112 0.545855 0.803516 0.246430
H14   H     H_    0.089476 0.536523 0.233443 0.248761
H15   H     H_    0.093855 0.457218 0.251627 0.232500
H16   H     H_    0.067145 0.464247 0.815921 0.259554
C129  C     C_1   0.499961 0.250006 0.973283 -0.073839
C130  C     C_1   0.500003 0.249966 0.026717 -0.081152
C131  C     C_1   0.499994 0.750013 0.026713 -0.080632
C132  C     C_1   0.499980 0.750000 0.973290 -0.089121
C133  C     C_1   0.499961 0.750006 0.473283 -0.073902
C134  C     C_1   0.500003 0.749966 0.526717 -0.081057
C135  C     C_1   0.499994 0.250013 0.526713 -0.080755
C136  C     C_1   0.499980 0.250000 0.473290 -0.089332
C137  C     C_1   0.999960 0.250005 0.473283 -0.077930
C138  C     C_1   0.000003 0.249965 0.526717 -0.084821
C139  C     C_1   0.999994 0.750013 0.526713 -0.081914
C140  C     C_1   0.999980 0.750001 0.473290 -0.090391
C141  C     C_1   0.999960 0.750005 0.973283 -0.073360
C142  C     C_1   0.000003 0.749966 0.026717 -0.080759
C143  C     C_1   0.999994 0.250013 0.026713 -0.080662
C144  C     C_1   0.999980 0.250001 0.973290 -0.088469
C145  C     C_2   0.511982 0.054481 0.630327 0.588645
H17   H     H_    0.506337 0.037968 0.586151 0.154624
O105  O     O_2   0.541505 0.093561 0.634289 -0.607155
C146  C     C_2   0.460735 0.049156 0.359424 0.302868
H18   H     H_    0.446240 0.086431 0.375115 0.139585
O106  O     O_2   0.490547 0.024386 0.394384 -0.578435
C147  C     C_2   0.429118 0.946598 0.351886 0.635089
H19   H     H_    0.388280 0.956093 0.375756 0.046188
O107  O     O_2   0.465259 0.919784 0.377693 -0.510445
C148  C     C_2   0.530985 0.946340 0.640908 0.402898
H20   H     H_    0.527751 0.906262 0.628624 0.097871
O108  O     O_2   0.574107 0.969707 0.621922 -0.605117
C149  C     C_2   0.510734 0.554380 0.130161 0.589489
H21   H     H_    0.504614 0.537821 0.086074 0.153915
O109  O     O_2   0.540389 0.593411 0.133754 -0.606547
C150  C     C_2   0.460694 0.549157 0.859410 0.302734
H22   H     H_    0.446177 0.586425 0.875103 0.139558
O110  O     O_2   0.490509 0.524394 0.894374 -0.578722
C151  C     C_2   0.429090 0.446600 0.851866 0.634828
H23   H     H_    0.388243 0.456093 0.875722 0.046007
O111  O     O_2   0.465226 0.419791 0.877687 -0.510816
C152  C     C_2   0.529519 0.446314 0.140474 0.400596
H24   H     H_    0.525789 0.406375 0.127732 0.100304
O112  O     O_2   0.572764 0.469511 0.121493 -0.605827
C153  C     C_2   0.011688 0.054469 0.130286 0.588915
H25   H     H_    0.005910 0.037961 0.086124 0.154515
O113  O     O_2   0.041257 0.093530 0.134171 -0.606966
C154  C     C_2   0.960738 0.049156 0.859425 0.302833
H26   H     H_    0.946243 0.086431 0.875116 0.139704
O114  O     O_2   0.990551 0.024386 0.894384 -0.578484
C155  C     C_2   0.929121 0.946598 0.851888 0.635037
H27   H     H_    0.888283 0.956093 0.875758 0.046180
O115  O     O_2   0.965263 0.919784 0.877694 -0.510501
C156  C     C_2   0.030670 0.946337 0.140815 0.402630
H28   H     H_    0.027367 0.906274 0.128493 0.098244
O116  O     O_2   0.073773 0.969681 0.121762 -0.605138
C157  C     C_2   0.006717 0.554953 0.629809 0.592124
H29   H     H_    0.997737 0.539390 0.585703 0.115778
O117  O     O_2   0.038257 0.592915 0.632926 -0.596519
C158  C     C_2   0.960537 0.549159 0.359357 0.293194
H30   H     H_    0.945939 0.586403 0.375056 0.138853
O118  O     O_2   0.990369 0.524423 0.394333 -0.588930
C159  C     C_2   0.928980 0.446608 0.351790 0.626381
H31   H     H_    0.888101 0.456092 0.375595 0.034547
O119  O     O_2   0.965099 0.419818 0.377662 -0.521623
C160  C     C_2   0.029647 0.447038 0.641040 0.258924
H32   H     H_    0.029277 0.406246 0.632073 0.099802
O120  O     O_2   0.069365 0.471687 0.617455 -0.582133
C161  C     C_2   0.412140 0.048425 0.669665 0.545405
H33   H     H_    0.374984 0.032206 0.692733 0.155967
O121  O     O_2   0.400116 0.080052 0.631240 -0.501518
C162  C     C_2   0.380567 0.054290 0.292445 0.389137
H34   H     H_    0.346385 0.039147 0.322122 0.056138
O122  O     O_2   0.366919 0.090447 0.261126 -0.447138
C163  C     C_2   0.378982 0.951378 0.259558 0.380333
H35   H     H_    0.343593 0.977045 0.247418 0.158861
O123  O     O_2   0.366294 0.906189 0.254841 -0.490597
C164  C     C_2   0.425656 0.946741 0.653847 0.363676
H36   H     H_    0.393555 0.924151 0.678100 0.190113
O124  O     O_2   0.414838 0.954407 0.601018 -0.528022
C165  C     C_2   0.411279 0.548538 0.170572 0.546367
H37   H     H_    0.374339 0.532483 0.194136 0.156228
O125  O     O_2   0.398916 0.580087 0.132168 -0.501389
C166  C     C_2   0.380552 0.554289 0.792398 0.389009
H38   H     H_    0.346356 0.539143 0.822055 0.055715
O126  O     O_2   0.366922 0.590454 0.761082 -0.447234
C167  C     C_2   0.378981 0.451374 0.759522 0.380248
H39   H     H_    0.343599 0.477039 0.747360 0.159035
O127  O     O_2   0.366294 0.406183 0.754812 -0.490523
C168  C     C_2   0.424377 0.446789 0.154778 0.363866
H40   H     H_    0.392779 0.423910 0.179297 0.190631
O128  O     O_2   0.412705 0.454706 0.102207 -0.528560
C169  C     C_2   0.911938 0.048447 0.169872 0.545508
H41   H     H_    0.874834 0.032253 0.193047 0.156025
O129  O     O_2   0.899830 0.080068 0.131467 -0.501520
C170  C     C_2   0.880568 0.054290 0.792449 0.389219
H42   H     H_    0.846387 0.039147 0.822128 0.056156
O130  O     O_2   0.866919 0.090447 0.761129 -0.447311
C171  C     C_2   0.878982 0.951378 0.759561 0.380327
H43   H     H_    0.843593 0.977046 0.747423 0.158814
O131  O     O_2   0.866294 0.906189 0.754844 -0.490640
C172  C     C_2   0.925382 0.946750 0.154037 0.363843
H44   H     H_    0.893392 0.924099 0.178344 0.190194
O132  O     O_2   0.914376 0.954471 0.101273 -0.528189
C173  C     C_2   0.908945 0.547368 0.673743 0.449274
H45   H     H_    0.873209 0.529294 0.697239 0.180789
O133  O     O_2   0.894647 0.580039 0.637358 -0.511465
C174  C     C_2   0.880494 0.554289 0.292223 0.387469
H46   H     H_    0.846243 0.539126 0.321805 0.053027
O134  O     O_2   0.866928 0.590484 0.260925 -0.447377
C175  C     C_2   0.878970 0.451357 0.259392 0.379583
H47   H     H_    0.843605 0.477016 0.247162 0.158626
O135  O     O_2   0.866295 0.406164 0.254697 -0.490982
C176  C     C_2   0.925466 0.447788 0.650006 0.389126
H48   H     H_    0.920634 0.456232 0.602680 0.077713
O136  O     O_2   0.885683 0.423251 0.673544 -0.442770
C177  C     C_2   0.611998 0.050682 0.722022 0.594542
H49   H     H_    0.621028 0.034080 0.678917 0.159386
O137  O     O_2   0.644228 0.085509 0.738879 -0.519710
C178  C     C_2   0.588399 0.058927 0.319316 0.457518
H50   H     H_    0.566431 0.089510 0.343365 0.072151
O138  O     O_2   0.640292 0.049347 0.331772 -0.498881
C179  C     C_2   0.572684 0.950072 0.337360 0.626228
H51   H     H_    0.574915 0.973773 0.376729 0.177370
O139  O     O_2   0.587373 0.905391 0.342663 -0.572746
C180  C     C_2   0.615765 0.944023 0.744946 0.512965
H52   H     H_    0.612175 0.913256 0.712816 0.065397
O140  O     O_2   0.665388 0.954999 0.763649 -0.519269
C181  C     C_2   0.611690 0.550682 0.220835 0.594243
H53   H     H_    0.620390 0.534010 0.177697 0.160128
O141  O     O_2   0.643946 0.585630 0.237296 -0.520943
C182  C     C_2   0.588375 0.558927 0.819345 0.457496
H54   H     H_    0.566399 0.589511 0.843385 0.072332
O142  O     O_2   0.640264 0.549347 0.831819 -0.499358
C183  C     C_2   0.572661 0.450070 0.837378 0.626561
H55   H     H_    0.574875 0.473769 0.876750 0.177240
O143  O     O_2   0.587354 0.405391 0.842682 -0.572349
C184  C     C_2   0.615592 0.443956 0.243640 0.512423
H56   H     H_    0.611580 0.413150 0.211611 0.066121
O144  O     O_2   0.665446 0.454919 0.261727 -0.520751
C185  C     C_2   0.111924 0.050672 0.221745 0.594566
H57   H     H_    0.120872 0.034045 0.178635 0.159475
O145  O     O_2   0.144164 0.085528 0.238501 -0.519683
C186  C     C_2   0.088400 0.058927 0.819314 0.457758
H58   H     H_    0.066433 0.089510 0.843363 0.072321
O146  O     O_2   0.140295 0.049347 0.831767 -0.498723
C187  C     C_2   0.072686 0.950072 0.837357 0.626283
H59   H     H_    0.074919 0.973773 0.876726 0.177370
O147  O     O_2   0.087375 0.905391 0.842659 -0.572658
C188  C     C_2   0.115723 0.944009 0.244660 0.512804
H60   H     H_    0.112047 0.913250 0.212532 0.065413
O148  O     O_2   0.165395 0.954969 0.263251 -0.519207
C189  C     C_2   0.110868 0.550355 0.718535 0.599415
H61   H     H_    0.118972 0.533204 0.675567 0.163937
O149  O     O_2   0.143025 0.585764 0.733802 -0.523096
C190  C     C_2   0.088286 0.558930 0.319441 0.458588
H62   H     H_    0.066281 0.589512 0.343458 0.073002
O150  O     O_2   0.140162 0.549352 0.331973 -0.499457
C191  C     C_2   0.072570 0.450070 0.337445 0.625897
H63   H     H_    0.074731 0.473764 0.376824 0.176661
O151  O     O_2   0.087272 0.405393 0.342757 -0.573862
C192  C     C_2   0.115308 0.443753 0.742403 0.513958
H64   H     H_    0.111060 0.412706 0.710739 0.062639
O152  O     O_2   0.165346 0.454941 0.759801 -0.518079
N1    N     N_R   0.480718 0.049105 0.860065 0.229458
O153  O     O_R   0.465818 0.093606 0.881411 -0.297239
O154  O     O_R   0.521383 0.023761 0.889100 -0.312467
N2    N     N_R   0.519692 0.055976 0.134986 0.238501
O155  O     O_R   0.577389 0.059003 0.140424 -0.335469
O156  O     O_R   0.497918 0.066926 0.082549 -0.205823
N3    N     N_R   0.542558 0.957995 0.140340 0.237178
O157  O     O_R   0.589837 0.934138 0.158649 -0.347009
O158  O     O_R   0.539301 0.965530 0.082892 -0.195369
N4    N     N_R   0.457350 0.948318 0.860027 0.253040
O159  O     O_R   0.499528 0.916602 0.874343 -0.329250
O160  O     O_R   0.417664 0.958813 0.900800 -0.198923
N5    N     N_R   0.481817 0.549137 0.360259 0.229784
O161  O     O_R   0.522864 0.523832 0.388802 -0.314056
O162  O     O_R   0.466952 0.593538 0.381918 -0.295793
N6    N     N_R   0.519730 0.555974 0.634990 0.238518
O163  O     O_R   0.577426 0.558998 0.640447 -0.336575
O164  O     O_R   0.497974 0.566925 0.582546 -0.206027
N7    N     N_R   0.542589 0.457993 0.640350 0.236936
O165  O     O_R   0.589863 0.434137 0.658674 -0.346088
O166  O     O_R   0.539348 0.465526 0.582901 -0.196214
N8    N     N_R   0.458402 0.448395 0.360505 0.253196
O167  O     O_R   0.500848 0.416846 0.374505 -0.329099
O168  O     O_R   0.419073 0.458867 0.401634 -0.198652
N9    N     N_R   0.980960 0.049105 0.360107 0.229525
O169  O     O_R   0.966066 0.093584 0.381529 -0.296770
O170  O     O_R   0.021710 0.023770 0.389030 -0.312572
N10   N     N_R   0.019688 0.055975 0.634985 0.238537
O171  O     O_R   0.077386 0.059004 0.640422 -0.335328
O172  O     O_R   0.997912 0.066926 0.582549 -0.205619
N11   N     N_R   0.042554 0.957995 0.640338 0.237174
O173  O     O_R   0.089834 0.934138 0.658646 -0.346951
O174  O     O_R   0.039296 0.965530 0.582890 -0.195287
N12   N     N_R   0.957570 0.948333 0.360127 0.253054
O175  O     O_R   0.999807 0.916654 0.374378 -0.329068
O176  O     O_R   0.917958 0.958820 0.400975 -0.198915
N13   N     N_R   0.984724 0.549169 0.860838 0.230188
O177  O     O_R   0.025950 0.523395 0.888538 -0.311565
O178  O     O_R   0.970994 0.593703 0.882876 -0.293974
N14   N     N_R   0.019859 0.555967 0.135003 0.238775
O179  O     O_R   0.077550 0.558983 0.140525 -0.335247
O180  O     O_R   0.998165 0.566918 0.082533 -0.204985
N15   N     N_R   0.042695 0.457985 0.140387 0.237427
O181  O     O_R   0.089955 0.434138 0.158762 -0.346944
O182  O     O_R   0.039512 0.465512 0.082933 -0.194178
N16   N     N_R   0.960026 0.448627 0.861546 0.240815
O183  O     O_R   0.002475 0.416829 0.874740 -0.329662
O184  O     O_R   0.921610 0.459347 0.903443 -0.202413
N17   N     N_R   0.392675 0.053893 0.803301 0.215911
O185  O     O_R   0.357081 0.040731 0.846782 -0.198181
O186  O     O_R   0.379854 0.096193 0.775935 -0.391276
N18   N     N_R   0.418760 0.050329 0.165620 0.247257
O187  O     O_R   0.411658 0.098457 0.152517 -0.303621
O188  O     O_R   0.371393 0.021773 0.163837 -0.325131
N19   N     N_R   0.438926 0.944340 0.146159 0.228337
O189  O     O_R   0.423457 0.962273 0.094097 -0.194862
O190  O     O_R   0.428324 0.896008 0.154288 -0.374943
N20   N     N_R   0.388958 0.947916 0.781191 0.178067
O191  O     O_R   0.377766 0.900005 0.792298 -0.349958
O192  O     O_R   0.344715 0.974862 0.761157 -0.359254
N21   N     N_R   0.393238 0.553993 0.304318 0.215502
O193  O     O_R   0.357990 0.540791 0.348067 -0.198023
O194  O     O_R   0.380349 0.596429 0.277281 -0.392602
N22   N     N_R   0.418788 0.550330 0.665591 0.247250
O195  O     O_R   0.411692 0.598457 0.652484 -0.303484
O196  O     O_R   0.371420 0.521776 0.663795 -0.324825
N23   N     N_R   0.438954 0.444341 0.646141 0.228348
O197  O     O_R   0.423503 0.462272 0.594073 -0.194816
O198  O     O_R   0.428346 0.396009 0.654270 -0.375005
N24   N     N_R   0.389240 0.447967 0.282353 0.178047
O199  O     O_R   0.378192 0.400033 0.293478 -0.351130
O200  O     O_R   0.344828 0.474907 0.262683 -0.359288
N25   N     N_R   0.892797 0.053919 0.303524 0.215808
O201  O     O_R   0.857281 0.040748 0.347070 -0.198235
O202  O     O_R   0.879961 0.096247 0.276236 -0.391600
N26   N     N_R   0.918757 0.050329 0.665623 0.247269
O203  O     O_R   0.911655 0.098457 0.652519 -0.304058
O204  O     O_R   0.871390 0.021774 0.663841 -0.325228
N27   N     N_R   0.938922 0.944340 0.646161 0.228338
O205  O     O_R   0.923452 0.962273 0.594099 -0.194902
O206  O     O_R   0.928321 0.896008 0.654289 -0.374982
N28   N     N_R   0.889014 0.947927 0.281434 0.178041
O207  O     O_R   0.877860 0.900008 0.292533 -0.350275
O208  O     O_R   0.844725 0.974874 0.261504 -0.359212
N29   N     N_R   0.894809 0.554928 0.807289 0.214815
O209  O     O_R   0.861222 0.543197 0.852886 -0.204349
O210  O     O_R   0.880906 0.596423 0.778796 -0.385781
N30   N     N_R   0.918881 0.550331 0.165486 0.247209
O211  O     O_R   0.911805 0.598458 0.152364 -0.303481
O212  O     O_R   0.871510 0.521783 0.163653 -0.325156
N31   N     N_R   0.939054 0.444341 0.146074 0.228285
O213  O     O_R   0.923658 0.462269 0.093988 -0.194353
O214  O     O_R   0.928427 0.396012 0.154200 -0.374971
N32   N     N_R   0.889331 0.448515 0.785032 0.244098
O215  O     O_R   0.879095 0.400259 0.794998 -0.312675
O216  O     O_R   0.843336 0.476000 0.770700 -0.299154

loop_
_geom_bond_atom_site_label_1
_geom_bond_atom_site_label_2
_geom_bond_distance
_ccdc_geom_bond_type
C109  N29   1.489104 S    
N7    O165  1.297190 A    
Zn4   O4    1.942813 S    
C75   C123  1.645146 S    
C165  H37   1.066375 S    
O98   C10   1.278163 A    
C145  O105  1.220757 D    
Zn29  O101  1.971537 S    
N31   O213  1.304259 A    
O48   C34   1.278132 A    
N14   O179  1.299983 A    
C98   C114  1.623793 S    
C94   C126  1.589951 S    
C147  O107  1.218773 D    
C157  H29   1.086838 S    
N22   O195  1.304480 A    
C32   C138  1.418713 S    
O88   C32   1.279034 A    
C102  C118  1.623804 S    
C24   C130  1.418711 S    
C186  H58   1.083380 S    
C178  O138  1.221715 D    
C83   C179  1.521834 S    
N8    O168  1.302677 A    
N23   O198  1.300455 A    
O10   C2    1.266107 A    
Zn28  O8    1.940697 S    
C99   N3    1.505673 S    
O15   C7    1.261126 A    
C89   C92   1.558931 S    
C170  H42   1.087398 S    
O16   C8    1.259301 A    
C36   C63   1.418592 S    
C91   H11   1.095171 S    
O60   C44   1.279333 A    
Zn13  O19   1.972227 S    
O63   C41   1.278596 A    
Zn14  O20   1.971718 S    
O50   C38   1.278239 A    
C154  H26   1.087363 S    
C97   N17   1.488735 S    
C19   C133  1.418715 S    
Zn11  O83   1.909986 S    
O97   C9    1.278588 A    
Zn26  O98   1.972047 S    
C21   C131  1.418293 S    
Zn2   O2    1.939004 S    
C22   C132  1.418326 S    
Zn5   O11   1.972227 S    
C67   C163  1.550765 S    
Zn6   O12   1.971718 S    
Zn25  O49   1.910874 S    
C106  C122  1.623790 S    
Zn15  O65   1.909462 S    
O104  C16   1.278492 A    
O92   C4    1.278482 A    
Zn29  O37   1.909426 S    
C86   C118  1.589968 S    
Zn31  O55   1.908933 S    
C156  H28   1.087261 S    
C68   C164  1.544323 S    
Zn7   O79   1.909986 S    
Zn22  O46   1.910035 S    
C187  O147  1.222071 D    
Zn10  O82   1.909387 S    
C75   C171  1.550766 S    
C160  H32   1.087020 S    
N26   O203  1.304483 A    
C176  O136  1.217112 D    
C76   C172  1.544428 S    
Zn24  O2    1.940697 S    
Zn31  O5    1.942968 S    
Zn12  O8    1.942813 S    
N3    O158  1.303375 A    
C111  C127  1.660107 S    
O17   C9    1.263650 A    
C88   H8    1.102666 S    
C69   C149  1.544782 S    
C147  H19   1.087628 S    
O45   C35   1.279065 A    
O46   C36   1.278239 A    
C148  H20   1.087341 S    
C98   N2    1.501720 S    
Zn11  O69   1.909462 S    
O95   C7    1.277740 A    
O23   C15   1.261086 A    
O96   C8    1.278489 A    
C1    C119  1.512028 S    
Zn18  O90   1.972047 S    
C190  H62   1.083380 S    
C182  O142  1.221716 D    
C95   C191  1.521835 S    
C84   C116  1.593522 S    
C103  C119  1.660091 S    
C173  H45   1.067201 S    
C80   C176  1.548497 S    
C103  N23   1.490571 S    
C31   C137  1.418715 S    
C82   C114  1.589973 S    
C70   C166  1.544342 S    
C175  H47   1.075274 S    
O87   C31   1.279468 A    
C146  H18   1.087357 S    
C88   C120  1.593314 S    
C155  O115  1.218777 D    
C53   C61   1.196080 T    
C179  O139  1.222071 D    
C7    C113  1.504567 S    
C73   C169  1.549754 S    
O71   C45   1.278594 A    
C89   H9    1.106852 S    
C158  H30   1.087375 S    
C174  O134  1.218285 D    
C171  H43   1.075293 S    
O64   C42   1.279332 A    
Zn14  O68   1.910701 S    
Zn21  O3    1.939158 S    
Zn22  O4    1.939906 S    
C177  H49   1.077260 S    
C112  N32   1.493241 S    
C95   H15   1.095160 S    
Zn10  O6    1.939004 S    
C96   H16   1.102116 S    
Zn6   O4    1.939004 S    
Zn2   O64   1.910701 S    
C111  N15   1.505682 S    
N13   O178  1.303365 A    
Zn19  O3    1.942968 S    
C181  H53   1.077292 S    
Zn16  O66   1.908762 S    
N12   O175  1.299380 A    
C92   H12   1.102735 S    
Zn6   O60   1.910701 S    
C93   H13   1.106969 S    
C162  H34   1.087390 S    
C82   H2    1.092485 S    
Zn24  O32   1.910025 S    
C56   C64   1.196161 T    
O83   C27   1.279468 A    
N16   O183  1.299205 A    
N22   O196  1.297315 A    
N1    O154  1.302386 A    
O81   C25   1.277702 A    
C42   C50   1.418652 S    
N29   O210  1.299036 A    
O69   C47   1.278402 A    
N19   O189  1.304256 A    
C153  H25   1.086574 S    
C109  C112  1.639744 S    
C78   C158  1.555320 S    
C37   C58   1.418720 S    
N32   O215  1.303461 A    
C46   C54   1.418650 S    
N25   O202  1.298926 A    
C172  H44   1.076606 S    
C111  N31   1.490577 S    
C86   C87   1.554624 S    
O75   C19   1.279467 A    
Zn1   O73   1.909006 S    
C112  C128  1.629788 S    
N4    O160  1.302653 A    
C163  H35   1.075287 S    
C108  C124  1.625574 S    
O31   C23   1.279059 A    
O77   C21   1.277702 A    
O22   C14   1.266138 A    
C189  H61   1.076717 S    
N7    O166  1.303375 A    
Zn19  O91   1.970537 S    
C35   C64   1.418717 S    
C94   H14   1.092479 S    
C150  O110  1.217512 D    
N31   O214  1.300451 A    
C93   C96   1.559845 S    
N11   O174  1.303370 A    
Zn13  O85   1.909006 S    
C103  N7    1.505678 S    
C179  H51   1.078882 S    
Zn32  O56   1.909634 S    
O91   C3    1.277730 A    
O56   C38   1.278132 A    
C150  H22   1.087363 S    
O94   C6    1.276745 A    
O89   C1    1.278602 A    
O44   C36   1.278132 A    
Zn15  O5    1.940539 S    
C152  O112  1.218395 D    
C168  H40   1.076511 S    
C99   N19   1.490568 S    
O93   C5    1.278609 A    
N6    O163  1.299983 A    
Zn30  O102  1.972047 S    
C17   C135  1.418293 S    
O99   C11   1.277201 A    
C11   C125  1.504099 S    
C44   C52   1.418650 S    
O67   C47   1.278595 A    
Zn15  O17   1.970960 S    
C110  N14   1.501728 S    
O20   C12   1.259339 A    
O39   C31   1.279055 A    
N29   O209  1.303680 A    
O21   C13   1.263630 A    
O40   C32   1.279489 A    
C81   C113  1.588256 S    
C100  C116  1.625591 S    
C166  H38   1.087389 S    
C185  O145  1.221973 D    
Zn18  O26   1.909045 S    
C108  N28   1.494597 S    
C149  O109  1.220715 D    
C85   C117  1.588044 S    
C183  O143  1.222073 D    
C104  C120  1.625629 S    
C77   C157  1.544493 S    
Zn26  O34   1.909045 S    
Zn17  O41   1.910874 S    
N30   O211  1.304477 A    
C152  H24   1.087236 S    
Zn19  O27   1.908867 S    
C73   C153  1.544602 S    
Zn2   O74   1.909387 S    
C77   C125  1.622514 S    
N2    O155  1.299982 A    
Zn28  O100  1.970779 S    
O49   C37   1.279064 A    
Zn13  O67   1.909862 S    
C141  C142  1.196178 T    
C77   C173  1.548545 S    
C148  O108  1.218455 D    
N15   O181  1.297192 A    
Zn3   O3    1.940539 S    
Zn1   O63   1.909862 S    
C48   C56   1.418650 S    
C137  C138  1.196178 T    
Zn3   O61   1.909462 S    
Zn8   O2    1.942813 S    
N17   O186  1.299064 A    
Zn5   O59   1.909862 S    
C67   C115  1.645149 S    
C87   C183  1.521835 S    
C161  O121  1.225073 D    
C153  O113  1.220757 D    
C91   C187  1.521833 S    
O33   C25   1.277901 A    
C69   C117  1.622107 S    
C15   C121  1.504533 S    
C180  H52   1.082798 S    
C100  N20   1.494613 S    
N27   O206  1.300447 A    
C66   C162  1.544348 S    
C95   C127  1.590035 S    
C110  C111  1.637570 S    
C96   C128  1.596490 S    
C66   C114  1.639020 S    
C79   C159  1.546828 S    
C50   C58   1.196158 T    
C175  O135  1.221298 D    
C110  C126  1.623831 S    
C92   C124  1.593424 S    
C93   C125  1.586878 S    
C74   C154  1.555318 S    
C105  C108  1.638152 S    
Zn9   O81   1.909006 S    
C186  O146  1.221722 D    
C92   C188  1.525180 S    
C71   C167  1.550758 S    
C107  N27   1.490574 S    
Zn5   O3    1.939754 S    
C190  O150  1.221715 D    
N9    O170  1.302329 A    
Zn15  O87   1.909986 S    
Zn7   O9    1.970960 S    
C40   C59   1.418592 S    
C97   C100  1.638137 S    
O37   C29   1.277899 A    
Zn20  O92   1.970779 S    
Zn27  O35   1.908867 S    
N28   O207  1.303282 A    
C86   C182  1.524536 S    
O35   C27   1.279055 A    
N10   O171  1.299985 A    
N30   O212  1.297316 A    
C164  H36   1.076772 S    
C101  C104  1.638189 S    
C79   C175  1.550730 S    
C131  C132  1.195938 T    
Zn24  O96   1.970779 S    
C85   C181  1.522177 S    
C191  O151  1.222074 D    
C34   C61   1.418592 S    
Zn12  O84   1.908828 S    
C84   H4    1.102758 S    
O72   C46   1.279337 A    
O58   C42   1.278641 A    
Zn28  O52   1.909634 S    
Zn7   O1    1.940539 S    
O73   C17   1.277702 A    
C90   C122  1.589969 S    
C28   C142  1.418713 S    
O61   C43   1.278402 A    
C97   C113  1.637542 S    
O14   C6    1.266153 A    
C81   C84   1.558944 S    
Zn4   O76   1.908828 S    
C156  O116  1.218347 D    
C83   H3    1.095170 S    
C101  C117  1.637527 S    
Zn16  O18   1.970718 S    
C85   C88   1.559019 S    
Zn32  O6    1.940697 S    
Zn8   O80   1.908828 S    
C160  O120  1.218060 D    
Zn23  O31   1.908867 S    
O82   C26   1.277871 A    
C43   C51   1.418507 S    
C188  H60   1.082773 S    
C65   C145  1.544568 S    
C104  N8    1.490695 S    
C73   C76   1.620244 S    
C41   C49   1.418507 S    
N18   O187  1.304477 A    
O34   C26   1.277758 A    
C112  N16   1.490726 S    
N5    O162  1.303339 A    
O79   C23   1.279467 A    
C192  H64   1.082603 S    
C13   C123  1.512028 S    
O26   C18   1.277761 A    
C27   C141  1.418713 S    
C45   C53   1.418507 S    
O85   C29   1.277704 A    
O74   C18   1.277868 A    
C9    C127  1.512038 S    
N20   O192  1.297872 A    
C167  H39   1.075281 S    
O30   C22   1.277761 A    
C10   C128  1.513378 S    
Zn20  O28   1.910025 S    
Zn21  O29   1.909426 S    
O78   C22   1.277868 A    
Zn6   O78   1.909387 S    
O18   C10   1.264842 A    
O36   C28   1.279490 A    
C109  C125  1.636630 S    
C151  H23   1.087627 S    
Zn26  O50   1.910035 S    
C83   C115  1.590034 S    
O13   C5    1.263627 A    
Zn17  O1    1.939158 S    
C2    C120  1.514198 S    
C20   C134  1.418711 S    
O24   C16   1.259301 A    
Zn30  O38   1.909045 S    
C146  O106  1.217511 D    
C89   C185  1.522194 S    
C157  O117  1.220569 D    
C100  N4    1.490664 S    
O55   C37   1.278261 A    
C169  O129  1.225077 D    
C6    C116  1.514079 S    
Zn1   O1    1.939754 S    
N3    O157  1.297190 A    
C79   C127  1.645130 S    
C97   N1    1.500903 S    
N27   O205  1.304259 A    
C178  H50   1.083378 S    
C80   C128  1.641495 S    
N26   O204  1.297316 A    
C66   C67   1.621836 S    
C143  C144  1.195940 T    
Zn32  O104  1.970779 S    
O101  C13   1.278611 A    
C102  N22   1.494973 S    
N8    O167  1.299244 A    
Zn1   O15   1.972227 S    
Zn2   O16   1.971718 S    
O25   C17   1.277901 A    
C76   C124  1.636031 S    
N14   O180  1.303903 A    
O66   C46   1.278634 A    
C90   C186  1.524535 S    
N11   O173  1.297199 A    
O28   C20   1.279492 A    
N13   O177  1.302418 A    
O29   C21   1.277901 A    
C192  O152  1.221654 D    
N12   O176  1.302635 A    
C159  H31   1.087629 S    
O76   C20   1.279033 A    
C12   C126  1.505976 S    
O32   C24   1.279492 A    
C162  O122  1.218278 D    
C106  C107  1.637565 S    
C105  N9    1.500912 S    
C107  C123  1.660081 S    
N16   O184  1.302677 A    
C18   C136  1.418326 S    
O90   C2    1.276846 A    
C80   C160  1.548986 S    
Zn31  O103  1.970537 S    
N15   O182  1.303378 A    
C81   H1    1.106826 S    
C184  H56   1.082801 S    
N32   O216  1.298230 A    
C4    C118  1.505972 S    
C98   C99   1.637573 S    
C74   C170  1.544350 S    
O41   C33   1.279063 A    
C39   C60   1.418717 S    
C54   C62   1.196161 T    
Zn23  O95   1.970537 S    
C77   C80   1.618305 S    
C8    C114  1.505973 S    
C102  C103  1.637572 S    
Zn28  O36   1.910025 S    
C70   C71   1.621836 S    
C101  N5    1.500951 S    
C78   C126  1.638997 S    
Zn26  O6    1.939906 S    
Zn8   O10   1.970718 S    
C96   C192  1.525770 S    
C163  O123  1.221286 D    
C176  H48   1.087960 S    
C109  N13   1.501931 S    
C74   C122  1.639014 S    
C158  O118  1.217512 D    
C66   C146  1.555316 S    
O47   C33   1.278264 A    
Zn16  O88   1.908828 S    
Zn29  O53   1.910874 S    
C155  H27   1.087628 S    
Zn5   O77   1.909006 S    
O103  C15   1.277744 A    
C65   C113  1.621970 S    
Zn10  O72   1.910701 S    
C23   C129  1.418713 S    
Zn3   O13   1.970960 S    
C94   C95   1.554617 S    
O68   C48   1.279332 A    
C94   C190  1.524535 S    
Zn27  O51   1.908933 S    
Zn20  O4    1.940697 S    
C16   C122  1.505973 S    
C182  H54   1.083378 S    
C38   C57   1.418592 S    
N6    O164  1.303900 A    
C183  H55   1.078880 S    
C173  O133  1.224989 D    
C90   H10   1.092492 S    
O52   C40   1.278134 A    
C84   C180  1.525228 S    
Zn12  O22   1.970718 S    
Zn17  O25   1.909426 S    
O102  C14   1.276768 A    
O51   C39   1.278265 A    
Zn27  O99   1.970537 S    
C145  H17   1.086575 S    
C184  O144  1.221555 D    
C180  O140  1.221575 D    
C99   C115  1.660086 S    
Zn25  O97   1.971537 S    
C174  H46   1.087389 S    
C166  O126  1.218279 D    
C185  H57   1.077274 S    
C82   C83   1.554623 S    
C65   C161  1.549682 S    
N23   O197  1.304256 A    
Zn4   O14   1.970718 S    
C149  H21   1.086552 S    
C87   H7    1.095167 S    
C93   C189  1.521550 S    
C177  O137  1.221962 D    
C133  C134  1.196178 T    
C71   C151  1.546816 S    
C67   C147  1.546811 S    
C3    C117  1.504455 S    
C55   C63   1.196080 T    
C68   C148  1.550015 S    
O38   C30   1.277760 A    
Zn22  O94   1.972047 S    
C181  O141  1.221963 D    
C75   C155  1.546810 S    
Zn7   O57   1.909462 S    
Zn20  O44   1.909634 S    
N2    O156  1.303900 A    
N25   O201  1.303548 A    
C72   C168  1.544643 S    
C104  N24   1.494459 S    
C71   C119  1.645143 S    
Zn25  O5    1.939158 S    
C73   C121  1.621973 S    
Zn24  O48   1.909634 S    
C135  C136  1.195938 T    
C170  O130  1.218285 D    
Zn23  O1    1.942968 S    
O59   C43   1.278596 A    
N24   O200  1.297875 A    
C98   N18   1.494971 S    
O11   C3    1.261055 A    
Zn9   O23   1.972227 S    
O57   C41   1.278402 A    
Zn30  O54   1.910035 S    
Zn10  O24   1.971718 S    
N17   O185  1.303471 A    
C69   C165  1.549851 S    
Zn11  O21   1.970960 S    
Zn9   O71   1.909862 S    
C29   C139  1.418293 S    
C14   C124  1.514124 S    
C139  C140  1.195940 T    
C30   C140  1.418324 S    
N4    O159  1.299374 A    
C107  N11   1.505670 S    
Zn18  O42   1.910035 S    
Zn21  O93   1.971537 S    
C167  O127  1.221289 D    
C25   C143  1.418293 S    
C106  N26   1.494974 S    
C26   C144  1.418324 S    
N20   O191  1.303266 A    
C81   C177  1.522213 S    
C171  O131  1.221287 D    
C151  O111  1.218771 D    
Zn13  O7    1.939754 S    
C189  O149  1.221996 D    
C108  N12   1.490667 S    
O100  C12   1.278459 A    
Zn25  O33   1.909426 S    
Zn27  O7    1.942968 S    
C187  H59   1.078882 S    
O27   C19   1.279056 A    
C78   C79   1.621842 S    
Zn3   O75   1.909986 S    
C129  C130  1.196178 T    
C105  C121  1.637541 S    
C102  N6    1.501721 S    
O86   C30   1.277869 A    
C68   C116  1.635937 S    
C165  O125  1.225068 D    
C82   C178  1.524539 S    
Zn12  O70   1.908762 S    
N24   O199  1.303310 A    
C87   C119  1.590036 S    
Zn22  O30   1.909045 S    
O19   C11   1.261409 A    
Zn29  O7    1.939158 S    
Zn9   O5    1.939754 S    
N9    O169  1.303380 A    
Zn30  O8    1.939906 S    
N19   O190  1.300453 A    
O62   C44   1.278640 A    
Zn11  O7    1.940539 S    
Zn18  O2    1.939906 S    
N28   O208  1.297860 A    
Zn4   O62   1.908762 S    
C154  O114  1.217513 D    
C159  O119  1.218768 D    
N10   O172  1.303908 A    
C90   C91   1.554617 S    
C164  O124  1.224252 D    
N21   O194  1.299025 A    
O43   C35   1.278263 A    
C65   C68   1.620258 S    
Zn8   O58   1.908762 S    
C78   C174  1.544333 S    
C70   C118  1.639015 S    
C70   C150  1.555317 S    
C85   H5    1.106818 S    
Zn14  O86   1.909387 S    
C169  H41   1.066382 S    
C69   C72   1.620194 S    
Zn17  O89   1.971537 S    
O9    C1    1.263634 A    
C51   C59   1.196080 T    
C72   C152  1.549854 S    
O84   C28   1.279035 A    
C49   C57   1.196080 T    
C47   C55   1.418507 S    
C88   C184  1.525123 S    
O65   C45   1.278403 A    
C91   C123  1.590036 S    
C110  N30   1.494976 S    
O70   C48   1.278641 A    
Zn19  O43   1.908933 S    
C89   C121  1.588214 S    
C105  N25   1.488768 S    
C76   C156  1.549948 S    
N1    O153  1.303307 A    
C188  O148  1.221616 D    
C5    C115  1.512030 S    
Zn21  O45   1.910874 S    
Zn31  O39   1.908867 S    
O53   C39   1.279063 A    
N18   O188  1.297318 A    
O12   C4    1.259310 A    
O54   C40   1.278238 A    
N5    O161  1.302405 A    
C168  O128  1.223735 D    
O42   C34   1.278239 A    
C101  N21   1.488715 S    
Zn14  O8    1.939004 S    
C191  H63   1.078880 S    
C86   H6    1.092484 S    
O80   C24   1.279033 A    
C52   C60   1.196161 T    
C74   C75   1.621831 S    
C106  N10   1.501723 S    
C72   C120  1.636208 S    
Zn23  O47   1.908933 S    
C161  H33   1.066407 S    
N21   O193  1.303519 A    
C172  O132  1.223935 D    
Zn16  O6    1.942813 S    
C33   C62   1.418720 S    
Zn32  O40   1.910025 S    
