data_mof_unit_51674.cif
_audit_creation_date              2012-10-26T21:03:35-0400
_audit_creation_method            fapswitch 2.2
_symmetry_space_group_name_H-M    P1
_symmetry_Int_Tables_number       1
_space_group_crystal_system       triclinic
_cell_length_a                    16.007015
_cell_length_b                    14.772767
_cell_length_c                    10.82144
_cell_angle_alpha                 89.984972
_cell_angle_beta                  90.330219
_cell_angle_gamma                 89.632372
_cell_volume                      2558.82793632

loop_
_atom_site_label
_atom_site_type_symbol
_atom_type_description
_atom_site_fract_x
_atom_site_fract_y
_atom_site_fract_z
_atom_type_partial_charge
C1    C     C_R   0.340810 0.500358 0.500539 0.531902
C2    C     C_R   0.434503 0.952717 0.438732 0.239839
C3    C     C_R   0.497172 0.902854 0.502893 -0.079118
C4    C     C_R   0.435373 0.048942 0.438067 0.246561
C5    C     C_R   0.557814 0.047548 0.571606 0.227596
C6    C     C_R   0.497699 0.097192 0.503145 -0.074221
C7    C     C_1   0.498891 0.802618 0.500977 0.198059
C8    C     C_1   0.499297 0.197397 0.501044 0.208452
C9    C     C_R   0.496564 0.500096 0.261900 0.532933
C10   C     C_R   0.496831 0.500049 0.738010 0.533307
C11   C     C_R   0.371674 0.608554 0.126689 -0.146576
C12   C     C_R   0.659085 0.499709 0.500564 0.548180
C13   C     C_R   0.372537 0.609246 0.870085 -0.150070
C14   C     C_R   0.314162 0.663252 0.062751 0.223583
C15   C     C_R   0.315972 0.665212 0.932424 0.234276
C16   C     C_R   0.432085 0.555840 0.934029 -0.026133
C17   C     C_R   0.431971 0.555883 0.064256 -0.023088
C18   C     C_R   0.490250 0.500170 0.128293 0.021046
C19   C     C_R   0.490349 0.500012 0.871377 0.019323
C20   C     C_R   0.544036 0.442487 0.064120 -0.134225
C21   C     C_R   0.544043 0.442356 0.936687 -0.138297
C22   C     C_R   0.954167 0.581058 0.474110 0.259345
C23   C     C_R   0.957510 0.429517 0.564288 0.241288
C24   C     C_R   0.041793 0.583217 0.475918 0.246759
C25   C     C_R   0.912395 0.503726 0.516749 -0.045288
C26   C     C_R   0.087227 0.507532 0.520191 -0.044902
C27   C     C_3   0.116403 0.710395 0.520362 -0.026049
C28   C     C_3   0.882832 0.712038 0.509973 -0.085283
C29   C     C_3   0.909279 0.289915 0.516145 -0.076583
C30   C     C_3   0.102743 0.372501 0.742996 -0.081236
C31   C     C_3   0.591765 0.105192 0.758911 -0.079435
C32   C     C_3   0.309267 0.120234 0.440182 -0.071655
C33   C     C_3   0.690680 0.893614 0.559390 -0.081868
C34   C     C_R   0.045128 0.432782 0.569911 0.241336
C35   C     C_3   0.314528 0.869418 0.447199 -0.036795
C36   C     C_1   0.822918 0.500353 0.510097 0.024542
C37   C     C_1   0.176806 0.504486 0.511663 0.017217
C38   C     C_1   0.251732 0.501819 0.505709 -0.003557
C39   C     C_1   0.748035 0.499294 0.505016 0.000558
C40   C     C_R   0.559341 0.951279 0.567893 0.233756
Cu1   Cu    Cu3+1 0.500000 0.589220 0.500000 1.018414
Cu2   Cu    Cu3+1 0.500000 0.410780 0.500000 1.008971
H1    H     H_    0.587835 0.398951 0.113053 0.133546
H2    H     H_    0.936445 0.745973 0.555560 0.126945
H3    H     H_    0.843125 0.678542 0.580322 0.107880
H4    H     H_    0.844261 0.765435 0.465022 0.138521
H5    H     H_    0.971879 0.265360 0.486386 0.156990
H6    H     H_    0.873431 0.316624 0.435397 0.111438
H7    H     H_    0.874754 0.230876 0.552631 0.154830
H8    H     H_    0.042479 0.375686 0.793707 0.160546
H9    H     H_    0.139993 0.434541 0.761239 0.125629
H10   H     H_    0.138795 0.313960 0.779803 0.147095
H11   H     H_    0.582344 0.039108 0.806106 0.164115
H12   H     H_    0.587846 0.398731 0.888676 0.132103
H13   H     H_    0.533445 0.146590 0.762246 0.106477
H14   H     H_    0.640607 0.142313 0.811017 0.148470
H15   H     H_    0.328492 0.164276 0.518608 0.104965
H16   H     H_    0.276012 0.059748 0.475274 0.125499
H17   H     H_    0.264303 0.159508 0.382736 0.163018
H18   H     H_    0.717830 0.960100 0.533508 0.156690
H19   H     H_    0.676062 0.853491 0.475008 0.112017
H20   H     H_    0.738950 0.855732 0.612561 0.134442
H21   H     H_    0.252865 0.871857 0.400074 0.200460
H22   H     H_    0.307030 0.904674 0.537684 0.082740
H23   H     H_    0.367620 0.606335 0.226023 0.170567
H24   H     H_    0.330398 0.797144 0.463085 0.186441
H25   H     H_    0.368112 0.606898 0.770649 0.178363
H26   H     H_    0.219872 0.625040 0.291220 0.349890
H27   H     H_    0.342008 0.779978 0.713016 0.335253
H28   H     H_    0.179045 0.684048 0.546170 0.199065
H29   H     H_    0.076386 0.714850 0.604069 0.127641
H30   H     H_    0.124677 0.780257 0.485177 0.164982
N1    N     N_1   0.500000 0.276710 0.500000 -0.184790
N2    N     N_1   0.500000 0.723290 0.500000 -0.183643
O1    O     O_R   0.380310 0.575320 0.500020 -0.489562
O2    O     O_2   0.154552 0.717073 0.096754 -0.180995
O3    O     O_3   0.240018 0.688141 0.297206 -0.546820
O4    O     O_2   0.165323 0.688218 0.829758 -0.259781
O5    O     O_2   0.236264 0.825835 0.898269 -0.191580
O6    O     O_3   0.288891 0.747262 0.699565 -0.592830
O7    O     O_3   0.081363 0.657278 0.425016 -0.506818
O8    O     O_3   0.910070 0.650996 0.418235 -0.506298
O9    O     O_3   0.915905 0.355207 0.610656 -0.542826
O10   O     O_3   0.089632 0.359338 0.615349 -0.552729
O11   O     O_3   0.619221 0.093014 0.636458 -0.548807
O12   O     O_R   0.619690 0.575320 0.499980 -0.486686
O13   O     O_3   0.377779 0.095350 0.365877 -0.512438
O14   O     O_3   0.619646 0.904510 0.634485 -0.540849
O15   O     O_3   0.374355 0.909072 0.368701 -0.493527
O16   O     O_R   0.380310 0.424640 0.499960 -0.493156
O17   O     O_R   0.619690 0.424640 0.500040 -0.486532
O18   O     O_R   0.500000 0.575360 0.319640 -0.495680
O19   O     O_R   0.500000 0.575360 0.680360 -0.499945
O20   O     O_R   0.500000 0.424670 0.319580 -0.494072
O21   O     O_R   0.500000 0.424670 0.680420 -0.502031
O22   O     O_2   0.265282 0.823729 0.151233 -0.177329
S1    S     S_3+6 0.240844 0.725729 0.150731 0.080169
S2    S     S_3+6 0.248533 0.733989 0.841416 0.030075

loop_
_geom_bond_atom_site_label_1
_geom_bond_atom_site_label_2
_ccdc_geom_bond_type
C30   H9    S    
C1    O16   A    
C31   O11   S    
Cu1   Cu2   S    
C12   O17   A    
C32   H16   S    
C4    O13   S    
C29   H7    S    
Cu1   O12   S    
C28   H4    S    
C23   O9    S    
C29   H5    S    
C22   O8    S    
C19   C21   A    
C33   O14   S    
C24   C26   A    
C29   O9    S    
C3    C7    S    
C21   H12   S    
C11   C14   A    
Cu2   O17   S    
O5    S2    D    
Cu1   N2    S    
C26   C34   A    
Cu1   O19   S    
C33   H20   S    
C22   C25   A    
O4    S2    D    
O3    S1    S    
C35   H22   S    
C31   H14   S    
C5    O11   S    
C30   H8    S    
C34   O10   S    
C32   H15   S    
C9    O18   A    
C7    N2    T    
C28   H3    S    
C29   H6    S    
C28   O8    S    
Cu2   O21   S    
C1    O1    A    
C27   O7    S    
C4    C6    A    
C16   C17   A    
C6    C8    S    
C10   O19   A    
O2    S1    D    
C32   O13   S    
C28   H2    S    
Cu2   O16   S    
C2    O15   S    
C2    C4    A    
C24   O7    S    
C37   C38   T    
Cu1   O1    S    
C10   C19   S    
C23   C34   A    
O22   S1    D    
C17   C18   A    
C31   H11   S    
C27   H28   S    
C1    C38   S    
C35   O15   S    
C3    C40   A    
C33   H18   S    
C13   C15   A    
C22   C24   A    
C5    C40   A    
C15   S2    S    
C20   H1    S    
C27   H29   S    
C14   S1    S    
C13   H25   S    
H26   O3    S    
C30   H10   S    
C11   C17   A    
Cu2   N1    S    
O6    S2    S    
Cu2   O20   S    
C36   C39   T    
C26   C37   S    
C35   H24   S    
C12   O12   A    
C40   O14   S    
C12   C39   S    
C2    C3    A    
C5    C6    A    
C10   O21   A    
C16   C19   A    
C8    N1    T    
C18   C20   A    
C23   C25   A    
C30   O10   S    
C25   C36   S    
C9    C18   S    
Cu1   O18   S    
C20   C21   A    
C33   H19   S    
C13   C16   A    
C14   C15   A    
H27   O6    S    
C35   H21   S    
C32   H17   S    
C31   H13   S    
C9    O20   A    
C27   H30   S    
C11   H23   S    
