data_mof_unit_39022.cif
_audit_creation_date              2012-12-10T18:11:52-0500
_audit_creation_method            fapswitch 2.2
_symmetry_space_group_name_H-M    P1
_symmetry_Int_Tables_number       1
_space_group_crystal_system       triclinic
_cell_length_a                    15.841668
_cell_length_b                    10.755471
_cell_length_c                    9.489908
_cell_angle_alpha                 89.095004
_cell_angle_beta                  90.034407
_cell_angle_gamma                 89.856942
_cell_volume                      1616.72711735

loop_
_atom_site_label
_atom_site_type_symbol
_atom_type_description
_atom_site_fract_x
_atom_site_fract_y
_atom_site_fract_z
_atom_type_partial_charge
C1    C     C_R   0.499779 0.260380 0.501027 0.771109
C2    C     C_3   0.082932 0.503751 0.499838 0.165277
C3    C     C_3   0.972202 0.606265 0.558412 0.015871
C4    C     C_3   0.917153 0.502904 0.499440 0.132780
C5    C     C_3   0.028078 0.603213 0.425696 -0.180595
C6    C     C_3   0.972086 0.498082 0.366058 -0.165384
C7    C     C_1   0.174642 0.503002 0.499876 -0.044562
C8    C     C_1   0.825367 0.501971 0.499542 -0.053116
C9    C     C_3   0.496505 0.069746 0.655893 -0.352731
C10   C     C_3   0.496967 0.927405 0.655693 -0.322852
C11   C     C_3   0.420696 0.074214 0.417016 -0.170758
C12   C     C_R   0.339996 0.500376 0.499980 0.875915
C13   C     C_3   0.580246 0.075038 0.432345 -0.438736
C14   C     C_3   0.498173 0.122734 0.502462 0.020561
C15   C     C_3   0.499356 0.878388 0.501519 -0.023442
C16   C     C_3   0.419120 0.928784 0.422716 -0.270004
C17   C     C_3   0.579766 0.931286 0.424931 -0.160592
C18   C     C_3   0.501580 0.633591 0.076988 0.075527
C19   C     C_3   0.501952 0.629794 0.909473 -0.238479
C20   C     C_3   0.575629 0.432207 0.083155 -0.226449
C21   C     C_3   0.427934 0.432507 0.083487 -0.204034
C22   C     C_3   0.576493 0.437989 0.916614 -0.209414
C23   C     C_R   0.499916 0.739879 0.499859 0.832457
C24   C     C_3   0.425641 0.439953 0.917259 -0.209550
C25   C     C_R   0.660008 0.500023 0.500008 0.879715
C26   C     C_3   0.972383 0.403794 0.573382 -0.160456
C27   C     C_3   0.028625 0.398827 0.439944 -0.136949
C28   C     C_1   0.250258 0.501867 0.499944 -0.135066
C29   C     C_1   0.749753 0.501046 0.499824 -0.137998
C30   C     C_3   0.028334 0.508653 0.633587 -0.183182
Cu1   Cu    Cu3+1 0.500040 0.499860 0.642410 0.933781
Cu2   Cu    Cu3+1 0.499960 0.500140 0.357590 0.977400
H1    H     H_    0.053447 0.313085 0.391012 0.145474
H2    H     H_    0.439821 0.892656 0.711747 0.197812
H3    H     H_    0.586596 0.114618 0.323710 0.182369
H4    H     H_    0.635672 0.108807 0.493085 0.178727
H5    H     H_    0.574451 0.906990 0.312176 0.169638
H6    H     H_    0.432141 0.100827 0.304585 0.146801
H7    H     H_    0.421769 0.896799 0.312536 0.175655
H8    H     H_    0.948355 0.321906 0.633529 0.151673
H9    H     H_    0.446901 0.680199 0.862851 0.175429
H10   H     H_    0.557852 0.678232 0.863572 0.189779
H11   H     H_    0.636420 0.467301 0.122589 0.201577
H12   H     H_    0.635269 0.485562 0.881625 0.165954
H13   H     H_    0.429450 0.333094 0.118057 0.164535
H14   H     H_    0.367229 0.466672 0.124530 0.210007
H15   H     H_    0.367188 0.489828 0.883959 0.163518
H16   H     H_    0.420762 0.344504 0.874633 0.170506
H17   H     H_    0.574852 0.333169 0.119131 0.146268
H18   H     H_    0.947807 0.493419 0.256510 0.147785
H19   H     H_    0.579882 0.341970 0.875124 0.156716
H20   H     H_    0.052067 0.685396 0.365987 0.151895
H21   H     H_    0.052500 0.513814 0.743189 0.145505
H22   H     H_    0.440397 0.103452 0.714206 0.219083
H23   H     H_    0.552889 0.102480 0.714739 0.173679
H24   H     H_    0.552044 0.893069 0.717598 0.223266
N1    N     N_3   0.501840 0.500250 0.143650 -0.158569
N2    N     N_3   0.501160 0.503300 0.856280 -0.154386
O1    O     O_R   0.500050 0.317570 0.620260 -0.598414
O2    O     O_R   0.499980 0.317810 0.379740 -0.600926
O3    O     O_R   0.379110 0.499870 0.620240 -0.594682
O4    O     O_R   0.379040 0.500110 0.379720 -0.529063
O5    O     O_R   0.500020 0.682190 0.620260 -0.588743
O6    O     O_R   0.499950 0.682430 0.379740 -0.578596
O7    O     O_R   0.620960 0.499890 0.620280 -0.582209
O8    O     O_R   0.620890 0.500130 0.379760 -0.542957
C31   C     C_2   0.337738 0.137231 0.454840 0.835541
O9    O     O_2   0.309584 0.130173 0.574640 -0.594322
O10   O     O_R   0.293692 0.204098 0.350727 -0.773838
H25   H     H_    0.239166 0.241204 0.387118 0.328002
C32   C     C_1   0.340286 0.875447 0.482165 0.287858
N3    N     N_1   0.278880 0.833437 0.528419 -0.268323
C33   C     C_2   0.664216 0.878771 0.474145 0.839071
O11   O     O_2   0.669374 0.807210 0.575191 -0.605672
O12   O     O_R   0.737244 0.913274 0.400887 -0.760749
H26   H     H_    0.789930 0.872339 0.440999 0.342655
C34   C     C_2   0.579174 0.713027 0.115988 0.776235
O13   O     O_2   0.585894 0.817987 0.065048 -0.600931
O14   O     O_R   0.643651 0.669406 0.203252 -0.748154
H27   H     H_    0.691358 0.731162 0.213945 0.343179
C35   C     C_2   0.423320 0.712778 0.114643 0.766059
O15   O     O_2   0.416135 0.817446 0.062897 -0.607990
O16   O     O_R   0.358973 0.669554 0.202025 -0.749751
H28   H     H_    0.311462 0.731918 0.213547 0.326963
C36   C     C_1   0.940302 0.719979 0.623357 0.240113
N4    N     N_1   0.915080 0.809626 0.674587 -0.257097

loop_
_geom_bond_atom_site_label_1
_geom_bond_atom_site_label_2
_ccdc_geom_bond_type
C3    C36   S    
C33   O11   D    
Cu1   O3    S    
C2    C7    S    
C4    C8    S    
C35   O15   D    
C34   O13   D    
C27   H1    S    
C26   C27   S    
C12   C28   S    
C8    C29   T    
Cu1   N2    S    
C13   H3    S    
C10   C15   S    
C1    O1    A    
C5    C6    S    
C11   C14   S    
C15   C16   S    
C18   C35   S    
Cu1   O7    S    
C18   C19   S    
Cu1   O1    S    
C22   H12   S    
Cu1   Cu2   S    
C5    H20   S    
C2    C27   S    
C9    H23   S    
C10   H24   S    
C9    C10   S    
C19   H10   S    
C15   C23   S    
C13   C14   S    
C17   C33   S    
C33   O12   S    
C6    C27   S    
C16   C32   S    
Cu2   N1    S    
C35   O16   S    
C11   C31   S    
C21   H13   S    
C34   O14   S    
C19   N2    S    
C25   C29   S    
C30   H21   S    
C31   O9    D    
C24   H16   S    
Cu1   O5    S    
C25   O7    A    
Cu2   O6    S    
C13   H4    S    
C4    C6    S    
C1    O2    A    
C9    C14   S    
C36   N4    T    
C7    C28   T    
C31   O10   S    
C3    C30   S    
O12   H26   S    
C21   N1    S    
C20   H17   S    
C12   O4    A    
C11   C16   S    
C18   N1    S    
O16   H28   S    
C10   H2    S    
C17   H5    S    
C6    H18   S    
C23   O6    A    
C20   C22   S    
C26   C30   S    
C2    C5    S    
Cu2   O2    S    
C3    C4    S    
C20   H11   S    
Cu2   O8    S    
C21   H14   S    
C15   C17   S    
C24   H15   S    
C25   O8    A    
C3    C5    S    
C22   N2    S    
C4    C26   S    
C9    H22   S    
C13   C17   S    
C2    C30   S    
Cu2   O4    S    
C32   N3    T    
C12   O3    A    
C26   H8    S    
C18   C34   S    
C23   O5    A    
O10   H25   S    
C16   H7    S    
O14   H27   S    
C24   N2    S    
C21   C24   S    
C11   H6    S    
C1    C14   S    
C20   N1    S    
C19   H9    S    
C22   H19   S    
