data_mof_unit_55180.cif
_audit_creation_date              2012-10-26T20:32:04-0400
_audit_creation_method            fapswitch 2.2
_symmetry_space_group_name_H-M    P1
_symmetry_Int_Tables_number       1
_space_group_crystal_system       triclinic
_cell_length_a                    10.640096
_cell_length_b                    10.777505
_cell_length_c                    9.554791
_cell_angle_alpha                 89.918475
_cell_angle_beta                  89.532679
_cell_angle_gamma                 90.689184
_cell_volume                      1095.56614686

loop_
_atom_site_label
_atom_site_type_symbol
_atom_type_description
_atom_site_fract_x
_atom_site_fract_y
_atom_site_fract_z
_atom_type_partial_charge
C1    C     C_R   0.507327 0.262787 0.500127 0.538162
C2    C     C_R   0.467428 0.936974 0.615847 0.044441
C3    C     C_3   0.341784 0.933879 0.687971 -0.038494
C4    C     C_R   0.259327 0.499229 0.500885 0.547825
C5    C     C_3   0.348345 0.075236 0.688641 -0.222658
C6    C     C_R   0.593223 0.560277 0.072659 0.136776
C7    C     C_R   0.416079 0.429134 0.074839 0.195560
C8    C     C_R   0.417436 0.428576 0.925766 -0.016393
C9    C     C_R   0.592215 0.561332 0.925351 0.125910
C10   C     C_3   0.623679 0.696347 0.917583 -0.223008
C11   C     C_3   0.625603 0.695861 0.076821 -0.061954
C12   C     C_3   0.961501 0.503071 0.366163 -0.157533
C13   C     C_R   0.501996 0.737562 0.500084 0.548981
C14   C     C_R   0.740302 0.499832 0.499236 0.544356
C15   C     C_3   0.036786 0.493258 0.634948 0.066441
C16   C     C_3   0.955482 0.393921 0.560966 0.018552
C17   C     C_3   0.876536 0.497822 0.497365 0.054529
C18   C     C_3   0.958353 0.595551 0.568402 0.104041
C19   C     C_3   0.044298 0.603199 0.438761 -0.146222
C20   C     C_3   0.896559 0.273941 0.619196 -0.267243
C21   C     C_3   0.995697 0.180572 0.661930 -0.450202
C22   C     C_3   0.082681 0.494885 0.786662 -0.246014
C23   C     C_3   0.042138 0.398536 0.429937 -0.134526
C24   C     C_3   0.975132 0.489864 0.893240 -0.441374
C25   C     C_3   0.676744 0.126771 0.291499 -0.263380
C26   C     C_3   0.619224 0.122726 0.145769 -0.410701
C27   C     C_3   0.122440 0.498669 0.503556 0.007844
C28   C     C_R   0.472575 0.064082 0.616176 -0.009908
C29   C     C_R   0.523473 0.129835 0.502934 0.012776
C30   C     C_R   0.591919 0.064073 0.399065 -0.016449
C31   C     C_R   0.583973 0.933827 0.398968 -0.153405
C32   C     C_R   0.513569 0.870742 0.502104 0.015206
Cu1   Cu    Cu3+1 0.499990 0.499980 0.640670 0.916177
Cu2   Cu    Cu3+1 0.500010 0.500020 0.359330 0.953030
H1    H     H_    0.343228 0.890531 0.793761 0.119219
H2    H     H_    0.080185 0.317600 0.372448 0.119674
H3    H     H_    0.632306 0.882269 0.318422 0.136198
H4    H     H_    0.054527 0.155187 0.570118 0.150711
H5    H     H_    0.056465 0.219160 0.745330 0.144345
H6    H     H_    0.948713 0.095130 0.702494 0.139301
H7    H     H_    0.834963 0.295356 0.709931 0.158008
H8    H     H_    0.836709 0.231377 0.537133 0.129853
H9    H     H_    0.330217 0.264785 0.114998 0.186549
H10   H     H_    0.234962 0.388445 0.119240 0.201182
H11   H     H_    0.748040 0.704549 0.240600 0.251922
H12   H     H_    0.277392 0.121186 0.622057 0.148150
H13   H     H_    0.815586 0.657591 0.090876 0.226048
H14   H     H_    0.904732 0.562137 0.871128 0.187823
H15   H     H_    0.928561 0.397410 0.892782 0.144044
H16   H     H_    0.013194 0.506010 0.999603 0.118169
H17   H     H_    0.144488 0.414496 0.804062 0.133683
H18   H     H_    0.138582 0.581212 0.803634 0.152319
H19   H     H_    0.984753 0.754322 0.678987 0.217334
H20   H     H_    0.863567 0.758158 0.567673 0.223124
H21   H     H_    0.607853 0.025304 0.109772 0.148671
H22   H     H_    0.526225 0.167835 0.146732 0.172985
H23   H     H_    0.357968 0.114724 0.795492 0.098790
H24   H     H_    0.681700 0.172978 0.070621 0.132205
H25   H     H_    0.698805 0.224306 0.319834 0.162001
H26   H     H_    0.768584 0.078669 0.288651 0.133785
H27   H     H_    0.245930 0.789302 0.599791 0.235909
H28   H     H_    0.156181 0.909653 0.643960 0.217160
H29   H     H_    0.350358 0.371725 0.869796 0.102577
H30   H     H_    0.716651 0.714046 0.867054 0.166346
H31   H     H_    0.545662 0.752237 0.874920 0.126304
H32   H     H_    0.551648 0.754298 0.125118 0.159074
H33   H     H_    0.082649 0.689660 0.390673 0.123939
H34   H     H_    0.927845 0.506139 0.256622 0.115169
N1    N     N_R   0.500800 0.500930 0.147930 -0.208952
N2    N     N_R   0.500800 0.500890 0.852020 -0.248592
N3    N     N_3   0.323492 0.356743 0.148438 -0.559756
N4    N     N_3   0.751265 0.720452 0.132736 -0.655932
N5    N     N_3   0.908322 0.702882 0.641652 -0.645266
N6    N     N_3   0.242061 0.886183 0.597811 -0.634437
O1    O     O_R   0.500000 0.319640 0.618810 -0.510497
O2    O     O_R   0.500010 0.319680 0.381230 -0.475341
O3    O     O_R   0.316850 0.499950 0.618770 -0.524681
O4    O     O_R   0.316860 0.499990 0.381190 -0.457377
O5    O     O_R   0.499990 0.680320 0.618770 -0.505222
O6    O     O_R   0.500000 0.680360 0.381190 -0.513075
O7    O     O_R   0.683140 0.500010 0.618810 -0.486734
O8    O     O_R   0.683150 0.500050 0.381230 -0.527855

loop_
_geom_bond_atom_site_label_1
_geom_bond_atom_site_label_2
_ccdc_geom_bond_type
C6    N1    A    
C13   O5    A    
C15   C18   S    
C13   C32   S    
C26   H21   S    
C6    C9    A    
C20   H7    S    
C7    C8    A    
C12   H34   S    
C12   C23   S    
C28   C29   A    
C7    N3    S    
C30   C31   A    
C15   C16   S    
C5    C28   S    
C24   H15   S    
H10   N3    S    
C2    C32   A    
C18   C19   S    
C3    N6    S    
Cu2   O6    S    
Cu1   O1    S    
C15   C22   S    
C21   H4    S    
C16   C17   S    
C12   C17   S    
C19   H33   S    
C25   H26   S    
C23   C27   S    
C19   C27   S    
C9    C10   S    
C11   H32   S    
C13   O6    A    
H11   N4    S    
C14   C17   S    
C17   C18   S    
C24   H16   S    
C10   H30   S    
C24   H14   S    
C9    N2    A    
C6    C11   S    
C11   N4    S    
Cu1   O5    S    
C25   C26   S    
C31   H3    S    
C1    O1    A    
C4    O4    A    
C29   C30   A    
H20   N5    S    
C15   C27   S    
C31   C32   A    
C21   H5    S    
C3    H1    S    
C16   C20   S    
C1    C29   S    
Cu1   Cu2   S    
C26   H24   S    
Cu2   N1    S    
Cu1   N2    S    
C16   C23   S    
C22   C24   S    
C14   O8    A    
C4    C27   S    
C22   H18   S    
C10   H31   S    
C25   C30   S    
H9    N3    S    
C1    O2    A    
H19   N5    S    
C3    C5    S    
C26   H22   S    
C7    N1    A    
C20   H8    S    
H27   N6    S    
C18   N5    S    
C25   H25   S    
C5    H12   S    
C8    N2    A    
C5    H23   S    
C2    C3    S    
C4    O3    A    
Cu2   O4    S    
Cu1   O3    S    
C21   H6    S    
C12   C19   S    
H13   N4    S    
C10   C11   S    
C8    H29   S    
C20   C21   S    
C23   H2    S    
H28   N6    S    
C2    C28   A    
Cu2   O8    S    
C14   O7    A    
Cu1   O7    S    
Cu2   O2    S    
C22   H17   S    
