data_mof_unit_27668.cif
_audit_creation_date              2012-12-10T16:54:56-0500
_audit_creation_method            fapswitch 2.2
_symmetry_space_group_name_H-M    P1
_symmetry_Int_Tables_number       1
_space_group_crystal_system       triclinic
_cell_length_a                    7.878397
_cell_length_b                    8.614422
_cell_length_c                    15.722674
_cell_angle_alpha                 93.034897
_cell_angle_beta                  85.096752
_cell_angle_gamma                 92.760751
_cell_volume                      1060.64603622

loop_
_atom_site_label
_atom_site_type_symbol
_atom_type_description
_atom_site_fract_x
_atom_site_fract_y
_atom_site_fract_z
_atom_type_partial_charge
C1    C     C_R   0.543770 0.793989 0.499152 0.840844
C2    C     C_3   0.370730 0.622088 0.060832 0.452991
C3    C     C_3   0.498664 0.494114 0.083049 -0.293321
C4    C     C_3   0.435023 0.328706 0.045644 0.568389
C5    C     C_3   0.437968 0.337880 0.944549 0.489901
C6    C     C_1   0.496952 0.490096 0.174778 0.288263
C7    C     C_1   0.503671 0.512093 0.825263 0.288450
C8    C     C_1   0.503209 0.509028 0.749969 -0.046333
C9    C     C_2   0.561268 0.957429 0.512029 0.218233
C10   C     C_2   0.438317 0.043421 0.486463 0.023763
C11   C     C_R   0.501013 0.502766 0.661274 0.876058
C12   C     C_R   0.456070 0.206039 0.499868 0.937684
C13   C     C_R   0.499000 0.497369 0.338734 0.877366
C14   C     C_3   0.379202 0.636614 0.959931 0.400290
C15   C     C_3   0.691686 0.547282 0.943815 0.621877
C16   C     C_3   0.690730 0.530639 0.044824 0.489179
C17   C     C_1   0.496983 0.492133 0.250061 -0.034517
C18   C     C_3   0.502682 0.508618 0.917023 -0.291874
N1    N     N_2   0.950340 0.457950 0.477370 0.087983
N2    N     N_2   0.049660 0.542050 0.522630 0.082741
O1    O     O_R   0.389240 0.738570 0.505550 -0.585357
O2    O     O_R   0.678400 0.711630 0.491050 -0.600016
O3    O     O_R   0.355360 0.513470 0.630110 -0.584301
O4    O     O_R   0.644510 0.486530 0.615610 -0.592179
O5    O     O_R   0.321600 0.288370 0.508950 -0.591463
O6    O     O_R   0.610760 0.261430 0.494450 -0.556096
O7    O     O_R   0.355490 0.513470 0.384390 -0.580645
O8    O     O_R   0.644640 0.486530 0.369890 -0.585275
Zn1   Zn    Zn3+2 0.306930 0.517990 0.509680 1.132979
Zn2   Zn    Zn3+2 0.693070 0.482010 0.490320 1.134524
Br1   Br    Br    0.416654 0.823591 0.121046 -0.328029
Br2   Br    Br    0.155573 0.625347 0.910278 -0.321223
O9    O     O_3   0.204354 0.585524 0.097203 -0.621390
H1    H     H_    0.141864 0.513056 0.059439 0.401706
O10   O     O_3   0.542813 0.213719 0.067400 -0.703672
H2    H     H_    0.488312 0.111233 0.052071 0.412656
O11   O     O_3   0.688407 0.023469 0.560260 -0.703340
H3    H     H_    0.755800 0.940527 0.580135 0.382275
Br3   Br    Br    0.262190 0.969920 0.413000 -0.330254
Br4   Br    Br    0.041801 0.321593 0.390382 -0.226855
Br5   Br    Br    0.958304 0.679301 0.609251 -0.294878
O12   O     O_3   0.445010 0.785034 0.937438 -0.694827
H4    H     H_    0.357023 0.862098 0.954235 0.413902
O13   O     O_3   0.804464 0.441671 0.900560 -0.693550
H5    H     H_    0.824621 0.468733 0.839778 0.401993
O14   O     O_3   0.752343 0.696197 0.916971 -0.629827
H6    H     H_    0.721846 0.779521 0.960007 0.410048
Br6   Br    Br    0.802886 0.709759 0.104907 -0.251393
O15   O     O_3   0.796591 0.412097 0.065872 -0.631781
H7    H     H_    0.802198 0.324651 0.022737 0.429099
O16   O     O_3   0.277823 0.297136 0.913362 -0.655054
H8    H     H_    0.183334 0.335085 0.952810 0.396785
Br7   Br    Br    0.579892 0.175929 0.884617 -0.295430
O17   O     O_3   0.269389 0.287337 0.081739 -0.734370
H9    H     H_    0.276878 0.261984 0.142147 0.397267

loop_
_geom_bond_atom_site_label_1
_geom_bond_atom_site_label_2
_ccdc_geom_bond_type
C15   C18   S    
C13   O8    A    
C1    O1    A    
O11   H3    S    
O16   H8    S    
O7    Zn1   S    
C9    C10   D    
C14   C18   S    
C13   O7    A    
N1    N2    D    
C13   C17   S    
C12   O5    A    
C14   O12   S    
C7    C18   S    
C16   Br6   S    
O8    Zn2   S    
O9    H1    S    
C4    O10   S    
C1    O2    A    
C16   O15   S    
C10   C12   S    
C8    C11   S    
N2    Br5   S    
O3    Zn1   S    
C2    O9    S    
C5    Br7   S    
C15   O13   S    
O6    Zn2   S    
C2    C3    S    
N2    Zn1   S    
C14   Br2   S    
O5    Zn1   S    
C2    C14   S    
O4    Zn2   S    
N1    Br4   S    
C3    C16   S    
C15   C16   S    
C11   O4    A    
C7    C8    T    
C1    C9    S    
O13   H5    S    
O15   H7    S    
O12   H4    S    
C3    C6    S    
C11   O3    A    
C6    C17   T    
O14   H6    S    
C4    C5    S    
C5    C18   S    
O2    Zn2   S    
C15   O14   S    
C4    O17   S    
O17   H9    S    
N1    Zn2   S    
O1    Zn1   S    
C10   Br3   S    
C5    O16   S    
C3    C4    S    
O10   H2    S    
C12   O6    A    
C2    Br1   S    
C9    O11   S    
