data_mof_unit_10819.cif
_audit_creation_date              2013-03-05T16:10:27-0500
_audit_creation_method            fapswitch 2.2
_symmetry_space_group_name_H-M    P1
_symmetry_Int_Tables_number       1
_space_group_crystal_system       triclinic
_cell_length_a                    10.685559
_cell_length_b                    9.849489
_cell_length_c                    14.935968
_cell_angle_alpha                 89.96931
_cell_angle_beta                  89.991132
_cell_angle_gamma                 89.897213
_cell_volume                      1571.96746893

loop_
_atom_site_label
_atom_site_type_symbol
_atom_site_description
_atom_site_fract_x
_atom_site_fract_y
_atom_site_fract_z
_atom_type_partial_charge
O1    O     O_R   0.316770 0.614620 0.499990 -0.627805
O2    O     O_R   0.683230 0.385380 0.500010 -0.627804
O3    O     O_R   0.683230 0.614620 0.500010 -0.628649
O4    O     O_R   0.316770 0.385380 0.499990 -0.628650
C1    C     C_R   0.259956 0.500096 0.499430 0.845918
C2    C     C_R   0.740044 0.499904 0.500570 0.845917
O5    O     O_R   0.499980 0.614680 0.367850 -0.612104
O6    O     O_R   0.500020 0.385320 0.632150 -0.612104
O7    O     O_R   0.500020 0.614680 0.632150 -0.616899
O8    O     O_R   0.499980 0.385320 0.367850 -0.616899
C3    C     C_R   0.501622 0.500016 0.327254 0.895380
C4    C     C_R   0.498378 0.499984 0.672746 0.895380
Zn1   Zn    Zn3+2 0.500000 0.653120 0.500000 0.950342
Zn2   Zn    Zn3+2 0.500000 0.346880 0.500000 0.950342
C5    C     C_R   0.606137 0.518897 0.811740 -0.315597
C6    C     C_R   0.393863 0.481103 0.188260 -0.315597
C7    C     C_R   0.493465 0.500011 0.767849 -0.053245
C8    C     C_R   0.506535 0.499989 0.232151 -0.053245
C9    C     C_R   0.380020 0.481554 0.813632 0.146817
C10   C     C_R   0.619980 0.518446 0.186368 0.146817
C11   C     C_R   0.382749 0.481419 0.907800 0.073193
C12   C     C_R   0.617251 0.518580 0.092200 0.073193
C13   C     C_R   0.498489 0.500088 0.953086 -0.024763
C14   C     C_R   0.501511 0.499912 0.046914 -0.024763
C15   C     C_R   0.611140 0.518993 0.904495 0.120551
C16   C     C_R   0.388860 0.481007 0.095505 0.120551
C17   C     C_R   0.272403 0.463109 0.957487 -0.217728
C18   C     C_R   0.727597 0.536891 0.042513 -0.217728
C19   C     C_R   0.273888 0.462698 0.050545 0.206781
C20   C     C_R   0.726112 0.537302 0.949455 0.206782
H1    H     H_    0.689916 0.532723 0.771873 0.154887
H2    H     H_    0.310084 0.467277 0.228127 0.154887
H3    H     H_    0.183375 0.448766 0.924470 0.165642
H4    H     H_    0.816625 0.551234 0.075530 0.165642
C21   C     C_R   0.064211 0.383132 0.472714 -0.193846
C22   C     C_R   0.935789 0.616868 0.527286 -0.193846
C23   C     C_R   0.936053 0.382944 0.473184 -0.195641
C24   C     C_R   0.063947 0.617056 0.526816 -0.195641
H5    H     H_    0.113428 0.292726 0.450777 0.150341
H6    H     H_    0.886572 0.707274 0.549223 0.150341
H7    H     H_    0.887054 0.292457 0.451517 0.158186
H8    H     H_    0.112946 0.707543 0.548483 0.158186
C25   C     C_R   0.872469 0.499816 0.500462 -0.008164
C26   C     C_R   0.127531 0.500184 0.499538 -0.008163
C27   C     C_R   0.581807 0.071716 0.552528 -0.067858
C28   C     C_R   0.418193 0.928284 0.447472 -0.067858
C29   C     C_R   0.418190 0.072126 0.447472 -0.066414
C30   C     C_R   0.581810 0.927874 0.552528 -0.066414
H9    H     H_    0.647222 0.126005 0.594550 0.129990
H10   H     H_    0.352778 0.873995 0.405450 0.129991
H11   H     H_    0.352767 0.126742 0.405452 0.124262
H12   H     H_    0.647233 0.873258 0.594548 0.124262
N1    N     N_R   0.500000 0.857200 0.500000 -0.081177
N2    N     N_R   0.500000 0.142800 0.500000 -0.081177
C31   C     C_3   0.257584 0.463616 0.763008 -0.912915
H13   H     H_    0.267791 0.467621 0.689379 0.238070
H14   H     H_    0.216044 0.363433 0.779530 0.242110
H15   H     H_    0.191256 0.545804 0.781647 0.237729
C32   C     C_3   0.742416 0.536384 0.236992 -0.912915
H16   H     H_    0.732209 0.532379 0.310621 0.238070
H17   H     H_    0.808743 0.454196 0.218353 0.237729
H18   H     H_    0.783956 0.636567 0.220470 0.242110
C33   C     C_3   0.151632 0.442671 0.099897 -0.945480
H19   H     H_    0.071373 0.429448 0.053477 0.239155
H20   H     H_    0.157189 0.350335 0.142403 0.245599
H21   H     H_    0.131515 0.532621 0.142351 0.243333
C34   C     C_3   0.848368 0.557328 0.900103 -0.945480
H22   H     H_    0.928627 0.570552 0.946523 0.239155
H23   H     H_    0.868485 0.467379 0.857649 0.243333
H24   H     H_    0.842811 0.649665 0.857596 0.245599

loop_
_geom_bond_atom_site_label_1
_geom_bond_atom_site_label_2
_geom_bond_distance
_ccdc_geom_bond_type
C4    C7    1.421422 S    
C23   C25   1.396544 A    
C21   H5    1.084170 S    
C13   C14   1.401796 A    
C19   C33   1.513051 S    
C3    C8    1.421422 S    
C24   C26   1.396543 A    
C9    C11   1.406785 A    
C6    H2    1.083835 S    
C28   H10   1.081794 S    
Zn1   N1    2.010084 S    
C20   C34   1.513051 S    
O3    Zn1   1.993630 S    
C27   H9    1.081795 S    
O6    C4    1.282230 A    
C34   H24   1.110370 S    
C22   C25   1.396734 A    
C33   H20   1.110370 S    
O3    C2    1.281727 A    
C31   H13   1.105783 S    
C18   C20   1.390005 A    
C11   C17   1.404959 A    
C33   H21   1.110443 S    
C18   H4    1.081137 S    
C32   H16   1.105783 S    
O4    Zn2   1.993632 S    
C12   C18   1.404959 A    
C17   H3    1.081137 S    
C10   C32   1.521791 S    
O5    C3    1.282231 A    
C21   C26   1.396735 A    
C34   H23   1.110442 S    
O2    C2    1.281980 A    
C16   C19   1.412076 A    
C29   N2    1.366486 A    
O1    C1    1.281981 A    
C28   N1    1.366495 A    
C22   C24   1.369455 A    
Zn2   N2    2.010084 S    
C1    C26   1.415043 S    
C10   C12   1.406785 A    
C27   N2    1.366493 A    
C24   H8    1.084078 S    
C30   H12   1.081855 S    
C8    C10   1.403759 A    
C2    C25   1.415043 S    
C31   H14   1.110349 S    
C11   C13   1.421999 A    
C23   H7    1.084078 S    
C30   N1    1.366484 A    
O2    Zn2   1.994966 S    
O7    C4    1.281991 A    
C12   C14   1.421998 A    
C22   H6    1.084170 S    
C31   H15   1.110522 S    
C17   C19   1.390005 A    
O8    C3    1.281990 A    
C33   H19   1.110789 S    
O5    Zn1   2.009973 S    
C13   C15   1.418017 A    
O1    Zn1   1.994968 S    
C21   C23   1.369455 A    
C5    C15   1.386426 A    
C6    C8    1.383857 A    
O8    Zn2   2.009574 S    
C27   C30   1.416765 A    
C9    C31   1.521791 S    
C15   C20   1.412076 A    
C5    C7    1.383857 A    
O7    Zn1   2.009573 S    
C28   C29   1.416765 A    
C32   H18   1.110349 S    
C29   H11   1.081855 S    
O6    Zn2   2.009971 S    
C7    C9    1.403759 A    
C5    H1    1.083835 S    
C34   H22   1.110789 S    
C14   C16   1.418018 A    
O4    C1    1.281725 A    
C32   H17   1.110522 S    
C6    C16   1.386426 A    
