data_mof_unit_62501.cif
_audit_creation_date              2012-12-10T21:32:44-0500
_audit_creation_method            fapswitch 2.2
_symmetry_space_group_name_H-M    P1
_symmetry_Int_Tables_number       1
_space_group_crystal_system       triclinic
_cell_length_a                    11.552196
_cell_length_b                    16.166856
_cell_length_c                    16.960202
_cell_angle_alpha                 88.239212
_cell_angle_beta                  90.806349
_cell_angle_gamma                 92.76656
_cell_volume                      3162.09575522

loop_
_atom_site_label
_atom_site_type_symbol
_atom_type_description
_atom_site_fract_x
_atom_site_fract_y
_atom_site_fract_z
_atom_type_partial_charge
C1    C     C_R   0.499222 0.489229 0.652614 0.880928
C2    C     C_R   0.502668 0.510778 0.347438 0.881890
C3    C     C_R   0.515710 0.406491 0.777118 -0.214707
C4    C     C_R   0.510157 0.594181 0.222680 -0.214199
C5    C     C_R   0.442599 0.761823 0.461806 -0.051596
C6    C     C_R   0.557011 0.238147 0.538451 -0.051853
C7    C     C_R   0.445321 0.849153 0.463628 -0.265924
C8    C     C_R   0.554227 0.150816 0.536651 -0.265846
C9    C     C_R   0.522653 0.891436 0.515608 0.298590
C10   C     C_R   0.477225 0.108564 0.484432 0.298569
C11   C     C_R   0.594264 0.843967 0.563704 -0.309431
C12   C     C_R   0.406001 0.156068 0.436079 -0.309662
C13   C     C_R   0.589478 0.757388 0.560404 0.294842
C14   C     C_R   0.410868 0.242651 0.439348 0.295262
C15   C     C_R   0.718229 0.500104 0.500046 0.918454
C16   C     C_R   0.281772 0.499896 0.499949 0.919877
C17   C     C_1   0.838623 0.500286 0.500053 -0.162316
C18   C     C_1   0.161375 0.499715 0.499931 -0.163482
C19   C     C_1   0.940718 0.500152 0.500021 0.019463
C20   C     C_1   0.059278 0.499849 0.499958 0.019357
C21   C     C_R   0.501673 0.483077 0.737981 -0.030226
C22   C     C_R   0.514403 0.517110 0.262539 -0.029630
C23   C     C_R   0.492899 0.554966 0.780917 -0.201123
C24   C     C_R   0.534413 0.445744 0.221107 -0.203185
C25   C     C_R   0.500494 0.550866 0.862123 -0.152976
C26   C     C_R   0.546937 0.450820 0.140325 -0.155194
C27   C     C_R   0.517439 0.474356 0.901606 0.326571
C28   C     C_R   0.538100 0.527641 0.099738 0.325960
C29   C     C_R   0.523245 0.402377 0.858846 -0.185958
C30   C     C_R   0.522297 0.599198 0.141404 -0.185763
H1    H     H_    0.534684 0.343248 0.889023 0.145079
H2    H     H_    0.516068 0.658460 0.110446 0.144920
N1    N     N_2   0.524829 0.466979 0.984315 -0.201293
N2    N     N_2   0.538036 0.534742 0.016923 -0.201918
N3    N     N_R   0.513820 0.716920 0.509720 -0.106258
N4    N     N_R   0.486180 0.283080 0.490280 -0.106473
N5    N     N_2   0.532659 0.979957 0.522261 -0.171570
N6    N     N_2   0.467183 0.020043 0.477791 -0.171521
O1    O     O_R   0.495050 0.422540 0.612660 -0.631814
O2    O     O_R   0.504950 0.577460 0.387340 -0.632017
O3    O     O_R   0.503930 0.561840 0.618900 -0.601389
O4    O     O_R   0.496070 0.438160 0.381100 -0.601249
O5    O     O_R   0.661110 0.430350 0.496870 -0.622658
O6    O     O_R   0.338890 0.569650 0.503130 -0.621804
O7    O     O_R   0.669990 0.569650 0.503110 -0.584505
O8    O     O_R   0.330010 0.430350 0.496890 -0.584271
Zn1   Zn    Zn3+2 0.494070 0.406980 0.495830 0.978836
Zn2   Zn    Zn3+2 0.505930 0.593020 0.504170 0.979102
H3    H     H_    0.540473 0.385861 0.250946 0.181453
H4    H     H_    0.480517 0.614579 0.751904 0.182209
H5    H     H_    0.561549 0.394490 0.109770 0.154924
H6    H     H_    0.492782 0.607522 0.893673 0.154955
H7    H     H_    0.522346 0.350230 0.744740 0.164220
H8    H     H_    0.496083 0.650142 0.254006 0.164588
H9    H     H_    0.616063 0.270044 0.578635 0.145513
H10   H     H_    0.383275 0.729903 0.421816 0.146056
H11   H     H_    0.611570 0.117247 0.575657 0.164477
H12   H     H_    0.387659 0.882696 0.424834 0.164596
H13   H     H_    0.654545 0.874602 0.604088 0.171929
H14   H     H_    0.345989 0.125462 0.395502 0.171968
I1    I     I_    0.705443 0.695905 0.637282 -0.352750
I2    I     I_    0.295638 0.304238 0.362004 -0.350029

loop_
_geom_bond_atom_site_label_1
_geom_bond_atom_site_label_2
_ccdc_geom_bond_type
C2    C22   S    
C1    O3    A    
C5    C7    A    
C1    C21   S    
N5    N6    D    
C8    H11   S    
C25   C27   A    
C4    C22   A    
C16   O6    A    
C7    H12   S    
C26   C28   A    
C19   C20   S    
C6    H9    S    
C10   N6    S    
C7    C9    A    
C28   C30   A    
N1    N2    D    
C12   C14   A    
C25   H6    S    
C15   O5    A    
C29   H1    S    
C16   C18   S    
C26   H5    S    
C27   N1    S    
C30   H2    S    
C3    H7    S    
C10   C12   A    
C2    O4    A    
C11   H13   S    
N3    Zn2   S    
C5    N3    A    
C9    N5    S    
C17   C19   T    
O3    Zn2   S    
C6    N4    A    
C13   N3    A    
C18   C20   T    
O4    Zn1   S    
C9    C11   A    
C21   C23   A    
C14   N4    A    
C22   C24   A    
C3    C21   A    
C27   C29   A    
C15   O7    A    
C28   N2    S    
C14   I2    S    
C2    O2    A    
C11   C13   A    
C23   C25   A    
C13   I1    S    
N4    Zn1   S    
O1    Zn1   S    
O7    Zn2   S    
C16   O8    A    
C24   H3    S    
C3    C29   A    
O2    Zn2   S    
O8    Zn1   S    
C23   H4    S    
C6    C8    A    
C5    H10   S    
C4    H8    S    
C15   C17   S    
C1    O1    A    
O5    Zn1   S    
C8    C10   A    
C4    C30   A    
O6    Zn2   S    
C24   C26   A    
C12   H14   S    
