data_mof_unit_58789.cif
_audit_creation_date              2012-12-10T17:17:27-0500
_audit_creation_method            fapswitch 2.2
_symmetry_space_group_name_H-M    P1
_symmetry_Int_Tables_number       1
_space_group_crystal_system       triclinic
_cell_length_a                    10.296877
_cell_length_b                    10.533399
_cell_length_c                    12.531399
_cell_angle_alpha                 91.445997
_cell_angle_beta                  111.680968
_cell_angle_gamma                 95.886491
_cell_volume                      1253.42277712

loop_
_atom_site_label
_atom_site_type_symbol
_atom_type_description
_atom_site_fract_x
_atom_site_fract_y
_atom_site_fract_z
_atom_type_partial_charge
C1    C     C_R   0.049908 0.734104 0.490365 0.867072
C2    C     C_R   0.452194 0.623963 0.990389 0.097148
C3    C     C_R   0.369130 0.611059 0.871546 0.047645
C4    C     C_R   0.594682 0.601593 0.024627 0.091903
C5    C     C_R   0.646980 0.569411 0.939241 0.170564
C6    C     C_R   0.575150 0.596748 0.826002 -0.249407
C7    C     C_R   0.438797 0.627020 0.794115 -0.193293
C8    C     C_R   0.677290 0.587001 0.138884 -0.282907
C9    C     C_R   0.837393 0.476168 0.080262 -0.192396
C10   C     C_R   0.223485 0.567287 0.835315 -0.190891
C11   C     C_2   0.066368 0.869280 0.467199 0.056445
C12   C     C_R   0.139123 0.523104 0.713444 0.885481
C13   C     C_2   0.946993 0.923398 0.419756 -0.205729
C14   C     C_2   0.902339 0.128197 0.484513 0.056538
C15   C     C_2   0.950453 0.061103 0.417176 -0.178701
C16   C     C_2   0.430856 0.522532 0.497808 -0.164375
C17   C     C_2   0.562737 0.494052 0.480899 0.251307
C18   C     C_R   0.945581 0.265773 0.502327 0.838999
C19   C     C_R   0.865066 0.494450 0.286727 0.850881
C20   C     C_R   0.763505 0.502174 0.966780 -0.200274
C21   C     C_R   0.793977 0.519156 0.166602 -0.058357
C22   C     C_R   0.162266 0.558227 0.919635 0.221846
C23   C     C_R   0.240623 0.602715 0.033197 -0.159598
C24   C     C_R   0.384700 0.636264 0.068893 -0.269115
H1    H     H_    0.925398 0.420798 0.100137 0.160514
H2    H     H_    0.844478 0.867627 0.396241 0.175112
H3    H     H_    0.433819 0.609623 0.546572 0.123162
H4    H     H_    0.688021 0.623589 0.604537 0.125801
H5    H     H_    0.315748 0.360047 0.415894 0.198670
H6    H     H_    0.620689 0.586967 0.761534 0.130577
H7    H     H_    0.786629 0.459527 0.898313 0.159752
H8    H     H_    0.648321 0.622402 0.207327 0.165922
H9    H     H_    0.441226 0.662682 0.159189 0.145245
H10   H     H_    0.191525 0.601316 0.096250 0.157182
H11   H     H_    0.385693 0.650769 0.706855 0.170607
H12   H     H_    0.012314 0.109169 0.372751 0.145193
N1    N     N_2   0.313640 0.446500 0.454900 -0.189203
N2    N     N_2   0.686360 0.553430 0.545150 -0.226681
O1    O     O_R   0.936910 0.692950 0.509080 -0.609658
O2    O     O_R   0.138320 0.658600 0.480130 -0.603759
O3    O     O_R   0.002900 0.525670 0.675280 -0.602580
O4    O     O_R   0.204310 0.491320 0.646330 -0.594298
O5    O     O_R   0.861680 0.341400 0.519870 -0.623632
O6    O     O_R   0.063090 0.307050 0.490920 -0.599411
O7    O     O_R   0.795690 0.508680 0.353670 -0.610961
O8    O     O_R   0.997100 0.474330 0.324720 -0.606564
Zn1   Zn    Zn3+2 0.865520 0.522940 0.519330 0.913224
Zn2   Zn    Zn3+2 0.134480 0.477060 0.480670 0.926254
N3    N     N_2   0.822307 0.067289 0.544746 -0.286322
H13   H     H_    0.839469 0.114546 0.622752 0.220687
C25   C     C_3   0.673721 0.036606 0.476625 -0.781049
H14   H     H_    0.622326 0.980233 0.527016 0.234576
H15   H     H_    0.656862 0.978687 0.396364 0.242527
H16   H     H_    0.623394 0.125669 0.454142 0.234880
N4    N     N_2   0.201145 0.944130 0.499123 -0.293186
H17   H     H_    0.216208 0.998012 0.436172 0.228192
C26   C     C_3   0.325331 0.896099 0.577789 -0.783470
H18   H     H_    0.412625 0.975551 0.610343 0.236769
H19   H     H_    0.358341 0.821325 0.532689 0.238022
H20   H     H_    0.305156 0.857976 0.652766 0.234724
N5    N     N_2   0.550127 0.397390 0.394320 -0.297576
H21   H     H_    0.634316 0.349936 0.401619 0.277806
C27   C     C_3   0.454588 0.409123 0.277347 -0.814777
H22   H     H_    0.514054 0.418123 0.219563 0.257177
H23   H     H_    0.395961 0.493246 0.270470 0.245745
H24   H     H_    0.377854 0.321474 0.247533 0.232906
N6    N     N_2   0.025151 0.495835 0.894446 -0.311773
H25   H     H_    0.946415 0.542745 0.839742 0.238105
C28   C     C_3   0.007955 0.357618 0.873895 -0.795418
H26   H     H_    0.935900 0.329006 0.783808 0.244480
H27   H     H_    0.961702 0.312344 0.932758 0.233690
H28   H     H_    0.110035 0.319924 0.889429 0.242033

loop_
_geom_bond_atom_site_label_1
_geom_bond_atom_site_label_2
_ccdc_geom_bond_type
C28   H28   S    
C2    C4    A    
C23   C24   A    
C19   O7    A    
N4    C26   S    
C6    C7    A    
C18   O6    A    
C14   C18   S    
C9    C20   A    
C24   H9    S    
C1    C11   S    
H4    N2    S    
C16   N1    D    
N4    H17   S    
C25   H16   S    
C23   H10   S    
C16   H3    S    
C27   H23   S    
C2    C3    A    
O3    Zn1   S    
C27   H24   S    
C9    H1    S    
C25   H14   S    
C3    C10   A    
O4    Zn2   S    
C18   O5    A    
C10   C22   A    
N1    Zn2   S    
N6    C28   S    
C11   C13   D    
C9    C21   A    
N2    Zn1   S    
C28   H26   S    
C10   C12   S    
O1    Zn1   S    
C19   C21   S    
C8    C21   A    
C3    C7    A    
C17   N2    D    
C13   C15   S    
C2    C24   A    
C5    C6    A    
C13   H2    S    
C5    C20   A    
C22   N6    S    
C19   O8    A    
C14   N3    S    
C26   H19   S    
N5    H21   S    
C1    O1    A    
C25   H15   S    
C27   H22   S    
C8    H8    S    
O8    Zn2   S    
O6    Zn2   S    
C15   H12   S    
C7    H11   S    
C11   N4    S    
C12   O3    A    
C28   H27   S    
N3    H13   S    
O7    Zn1   S    
H5    N1    S    
C4    C8    A    
N5    C27   S    
O2    Zn2   S    
C14   C15   D    
C16   C17   S    
C26   H20   S    
C12   O4    A    
C1    O2    A    
C17   N5    S    
C26   H18   S    
C22   C23   A    
O5    Zn1   S    
C6    H6    S    
N6    H25   S    
C4    C5    A    
N3    C25   S    
C20   H7    S    
