data_mof_unit_51175.cif
_audit_creation_date              2012-12-10T17:07:05-0500
_audit_creation_method            fapswitch 2.2
_symmetry_space_group_name_H-M    P1
_symmetry_Int_Tables_number       1
_space_group_crystal_system       triclinic
_cell_length_a                    18.267528
_cell_length_b                    18.231785
_cell_length_c                    18.305024
_cell_angle_alpha                 119.732486
_cell_angle_beta                  119.6572
_cell_angle_gamma                 60.157801
_cell_volume                      4335.82485638

loop_
_atom_site_label
_atom_site_type_symbol
_atom_type_description
_atom_site_fract_x
_atom_site_fract_y
_atom_site_fract_z
_atom_type_partial_charge
C1    C     C_R   0.139770 0.860278 0.640263 0.851304
C2    C     C_R   0.921000 0.324647 0.973368 -0.402277
C3    C     C_R   0.974889 0.270241 0.920235 0.547598
C4    C     C_R   0.861881 0.140179 0.360311 0.819523
C5    C     C_R   0.938706 0.226911 0.829889 0.495577
C6    C     C_R   0.918451 0.277694 0.383547 -0.111499
C7    C     C_R   0.944072 0.343879 0.394636 -0.107411
C8    C     C_R   0.890193 0.397269 0.340621 -0.140840
C9    C     C_R   0.810446 0.384711 0.275053 -0.123048
C10   C     C_R   0.782178 0.318798 0.263203 0.017418
C11   C     C_R   0.837140 0.264530 0.318426 0.077924
C12   C     C_R   0.569880 0.264358 0.676934 -0.167616
C13   C     C_R   0.810754 0.196405 0.304552 -0.137087
C14   C     C_R   0.735169 0.178764 0.234171 -0.310825
C15   C     C_R   0.682544 0.229340 0.177476 0.529458
C16   C     C_R   0.139823 0.140145 0.640771 0.972364
C17   C     C_R   0.702738 0.302738 0.195079 -0.201772
C18   C     C_R   0.732282 0.855955 0.423839 0.506472
C19   C     C_R   0.649306 0.886321 0.435261 -0.468891
C20   C     C_R   0.575455 0.866722 0.363370 0.450762
C21   C     C_R   0.584570 0.810998 0.279581 0.442887
C22   C     C_R   0.668898 0.775138 0.268599 -0.173215
C23   C     C_R   0.661109 0.257376 0.715202 0.042323
C24   C     C_R   0.736594 0.811826 0.335339 -0.125261
C25   C     C_R   0.804768 0.800904 0.308877 -0.132278
C26   C     C_R   0.814529 0.738464 0.225858 0.503044
C27   C     C_R   0.759955 0.685637 0.171841 -0.314301
C28   C     C_R   0.859704 0.859474 0.361034 0.842135
C29   C     C_R   0.687802 0.703573 0.192809 -0.097841
C30   C     C_R   0.132748 0.930639 0.818283 -0.131657
C31   C     C_R   0.127181 0.964005 0.902747 -0.211097
C32   C     C_R   0.179067 0.911699 0.957634 -0.211617
C33   C     C_R   0.237807 0.825757 0.929150 0.617947
C34   C     C_R   0.715514 0.203310 0.660811 0.071811
C35   C     C_R   0.244105 0.789535 0.842688 -0.035031
C36   C     C_R   0.189955 0.842989 0.786453 -0.054012
C37   C     C_R   0.195207 0.808090 0.700150 -0.161637
C38   C     C_R   0.252941 0.721641 0.669555 0.548978
C39   C     C_R   0.308581 0.670915 0.725943 -0.327855
C40   C     C_R   0.140141 0.858798 0.360278 0.831450
C41   C     C_R   0.303714 0.702981 0.810802 -0.133584
C42   C     C_R   0.258180 0.678717 0.366341 -0.133699
C43   C     C_R   0.312987 0.592062 0.367605 -0.224616
C44   C     C_R   0.362454 0.536115 0.310031 -0.186538
C45   C     C_R   0.698299 0.303614 0.806081 -0.098314
C46   C     C_R   0.359156 0.566572 0.251694 0.638155
C47   C     C_R   0.306772 0.656125 0.251733 -0.116427
C48   C     C_R   0.254185 0.712063 0.308800 0.023816
C49   C     C_R   0.196840 0.798948 0.304843 -0.100533
C50   C     C_R   0.192785 0.830612 0.247198 -0.312089
C51   C     C_R   0.248865 0.779118 0.195477 0.504923
C52   C     C_R   0.861022 0.139746 0.640725 0.913826
C53   C     C_R   0.303754 0.691341 0.195872 -0.213021
C54   C     C_R   0.193247 0.196134 0.554741 0.435095
C55   C     C_R   0.219504 0.222066 0.514048 0.305423
C56   C     C_R   0.790509 0.294000 0.844811 -0.120302
C57   C     C_R   0.270464 0.279238 0.565804 0.300551
C58   C     C_R   0.303204 0.303232 0.659613 0.373001
C59   C     C_R   0.277065 0.276992 0.702466 -0.212702
C60   C     C_R   0.220983 0.223083 0.648844 -0.164549
C61   C     C_R   0.195164 0.196592 0.691038 -0.069566
C62   C     C_R   0.221211 0.224740 0.783385 -0.291436
C63   C     C_R   0.275966 0.277083 0.836724 0.487071
C64   C     C_R   0.677004 0.158559 0.569302 -0.200958
C65   C     C_R   0.304067 0.303395 0.797306 -0.105443
C66   C     C_R   0.638326 0.641489 0.139188 0.934627
C67   C     C_R   0.845615 0.238598 0.790188 -0.211430
C68   C     C_R   0.359989 0.359887 0.858077 0.973239
C69   C     C_R   0.641489 0.359749 0.139732 0.892709
C70   C     C_R   0.360013 0.642577 0.862462 0.885080
C71   C     C_R   0.359938 0.639380 0.139826 1.025475
C72   C     C_R   0.640416 0.360077 0.860487 0.911905
C73   C     C_R   0.587590 0.165136 0.533751 -0.150555
C74   C     C_R   0.534233 0.217701 0.587591 -0.086290
C75   C     C_3   0.633463 0.129912 0.042565 -0.285793
C76   C     C_3   0.853639 0.739282 0.125400 -0.229996
C77   C     C_3   0.804722 0.912218 0.577641 -0.190895
C78   C     C_R   0.806698 0.195205 0.698305 -0.087885
C79   C     C_3   0.486078 0.839763 0.392934 -0.281099
C80   C     C_3   0.475281 0.851477 0.160213 -0.307317
C81   C     C_3   0.199407 0.633294 0.529392 -0.372243
C82   C     C_3   0.262743 0.895267 0.190318 -0.247470
C83   C     C_3   0.260493 0.111863 0.394818 -0.181612
C84   C     C_3   0.223776 0.368497 0.486783 -0.294605
C85   C     C_3   0.337146 0.429882 0.711647 -0.279690
C86   C     C_3   0.366458 0.239742 0.962227 -0.215853
C87   C     C_R   0.830202 0.336439 0.937284 0.538646
F1    F     F_    0.063554 0.258412 0.956910 -0.615356
F2    F     F_    0.288457 0.780046 0.987644 -0.670255
F3    F     F_    0.405488 0.506429 0.194166 -0.683311
F4    F     F_    0.141319 0.143246 0.500189 -0.678947
F5    F     F_    0.783188 0.388333 0.994863 -0.681387
F6    F     F_    0.996604 0.172430 0.783197 -0.666376
H1    H     H_    0.964067 0.236056 0.425158 0.191722
H2    H     H_    0.174119 0.938503 0.023190 0.167742
H3    H     H_    0.353698 0.604479 0.701924 0.159156
H4    H     H_    0.147149 0.896844 0.244294 0.164899
H5    H     H_    0.218688 0.718722 0.410331 0.170757
H6    H     H_    0.316232 0.567494 0.412488 0.186449
H7    H     H_    0.559635 0.129386 0.464160 0.145752
H8    H     H_    0.403133 0.468092 0.309948 0.171543
H9    H     H_    0.198592 0.206064 0.814504 0.189143
H10   H     H_    0.464969 0.222429 0.559944 0.204605
H11   H     H_    0.525406 0.305526 0.715684 0.179755
H12   H     H_    0.006648 0.352903 0.444530 0.146101
H13   H     H_    0.950067 0.357348 0.043723 0.221449
H14   H     H_    0.716077 0.125897 0.223883 0.163728
H15   H     H_    0.679980 0.130178 0.020150 0.173262
H16   H     H_    0.573604 0.120240 0.983647 0.174870
H17   H     H_    0.664244 0.072010 0.066048 0.152395
H18   H     H_    0.801514 0.806750 0.128292 0.146197
H19   H     H_    0.827677 0.686662 0.066074 0.155317
H20   H     H_    0.910054 0.739043 0.117280 0.199529
H21   H     H_    0.777737 0.894595 0.607221 0.137517
H22   H     H_    0.763842 0.980243 0.571977 0.152316
H23   H     H_    0.910967 0.447753 0.348591 0.143097
H24   H     H_    0.872642 0.913738 0.624143 0.208060
H25   H     H_    0.540903 0.824273 0.453423 0.161975
H26   H     H_    0.484418 0.777095 0.334603 0.202982
H27   H     H_    0.422040 0.869436 0.405700 0.174409
H28   H     H_    0.450731 0.922815 0.201102 0.165257
H29   H     H_    0.525163 0.841698 0.135288 0.148382
H30   H     H_    0.417853 0.835579 0.101091 0.232514
H31   H     H_    0.130061 0.672025 0.531970 0.172175
H32   H     H_    0.227559 0.572690 0.548103 0.161157
H33   H     H_    0.194998 0.610456 0.459293 0.192517
H34   H     H_    0.773038 0.425560 0.232612 0.148920
H35   H     H_    0.289785 0.906063 0.155408 0.207568
H36   H     H_    0.312289 0.898582 0.258429 0.168192
H37   H     H_    0.198325 0.950419 0.193734 0.142866
H38   H     H_    0.267325 0.057822 0.412296 0.169340
H39   H     H_    0.325990 0.121865 0.423629 0.174511
H40   H     H_    0.241001 0.089337 0.321309 0.161998
H41   H     H_    0.187711 0.423643 0.534316 0.124116
H42   H     H_    0.176628 0.337506 0.424664 0.220217
H43   H     H_    0.249132 0.399109 0.468621 0.177920
H44   H     H_    0.383526 0.463743 0.770918 0.147816
H45   H     H_    0.641401 0.922385 0.500259 0.187144
H46   H     H_    0.269349 0.467162 0.718501 0.155465
H47   H     H_    0.338022 0.433524 0.653465 0.194552
H48   H     H_    0.387676 0.267026 0.036053 0.228044
H49   H     H_    0.425617 0.215072 0.942721 0.154411
H50   H     H_    0.343760 0.183390 0.940181 0.155359
H51   H     H_    0.715452 0.117378 0.524285 0.113370
H52   H     H_    0.774278 0.629981 0.113549 0.187371
H53   H     H_    0.092079 0.974599 0.778721 0.183647
H54   H     H_    0.082662 0.031024 0.925913 0.184402
O1    O     O_3   1.000000 0.000000 0.500000 -0.502916
O2    O     O_R   0.323460 0.615830 0.884170 -0.605588
O3    O     O_R   0.444880 0.615840 0.176480 -0.617867
O4    O     O_R   0.055060 0.884200 0.615800 -0.655935
O5    O     O_R   0.615800 0.444940 0.884180 -0.613760
O6    O     O_R   0.323440 0.615840 0.055040 -0.582993
O7    O     O_R   0.615780 0.323500 0.884180 -0.643386
O8    O     O_R   0.615760 0.323500 0.055050 -0.616575
O9    O     O_R   0.444910 0.615830 0.884180 -0.657365
O10   O     O_R   0.615780 0.615830 0.176490 -0.629476
O11   O     O_R   0.323430 0.444950 0.884170 -0.642062
O12   O     O_R   0.055100 0.176520 0.615800 -0.604174
O13   O     O_R   0.884210 0.176520 0.444920 -0.647291
O14   O     O_R   0.176540 0.055080 0.615800 -0.627979
O15   O     O_R   0.884190 0.884200 0.323480 -0.623618
O16   O     O_R   0.176540 0.884190 0.444930 -0.633545
O17   O     O_R   0.884180 0.055090 0.615790 -0.676434
O18   O     O_R   0.055100 0.884190 0.323490 -0.626236
O19   O     O_R   0.884190 0.176530 0.615790 -0.605273
O20   O     O_3   0.606836 0.211722 0.108646 -0.603718
O21   O     O_3   0.885931 0.720811 0.204373 -0.596059
O22   O     O_3   0.812138 0.846060 0.494945 -0.566429
O23   O     O_R   0.884180 0.884200 0.444920 -0.600653
O24   O     O_3   0.493954 0.902229 0.375483 -0.608650
O25   O     O_3   0.509927 0.793934 0.208542 -0.591713
O26   O     O_3   0.255116 0.686565 0.583857 -0.605174
O27   O     O_3   0.248971 0.811567 0.141011 -0.556255
O28   O     O_3   0.193437 0.192158 0.422145 -0.573792
O29   O     O_3   0.297312 0.303678 0.524824 -0.593638
O30   O     O_3   0.370684 0.340254 0.708056 -0.622095
O31   O     O_3   0.296811 0.308700 0.928313 -0.597020
O32   O     O_R   0.176510 0.884190 0.615800 -0.616707
O33   O     O_R   0.884210 0.055080 0.323480 -0.643418
O34   O     O_3   0.499970 0.500030 0.999970 -0.516051
O35   O     O_R   0.615800 0.615830 0.055050 -0.637960
O36   O     O_R   0.444880 0.323510 0.884180 -0.637621
O37   O     O_R   0.615760 0.444950 0.176490 -0.636173
Zn1   Zn    Zn3+2 0.956630 0.130130 0.543370 1.043601
Zn2   Zn    Zn3+2 0.130140 0.956620 0.543380 1.038896
Zn3   Zn    Zn3+2 0.956630 0.956620 0.369870 0.990882
Zn4   Zn    Zn3+2 0.956610 0.956630 0.543370 0.979555
Zn5   Zn    Zn3+2 0.543340 0.369890 0.956600 1.031005
Zn6   Zn    Zn3+2 0.543340 0.543410 0.130100 1.065084
Zn7   Zn    Zn3+2 0.369830 0.543410 0.956590 1.077063
Zn8   Zn    Zn3+2 0.543370 0.543400 0.956600 1.022248

loop_
_geom_bond_atom_site_label_1
_geom_bond_atom_site_label_2
_ccdc_geom_bond_type
C73   H7    S    
C63   C65   A    
C84   H42   S    
C17   C69   S    
C23   C45   A    
C22   C29   A    
C12   C74   A    
C81   H33   S    
C27   C29   A    
O19   Zn1   S    
C11   C13   A    
C73   C74   A    
C35   C36   A    
C5    C67   A    
C38   O26   S    
C28   O15   A    
C7    C8    A    
C39   C41   A    
O32   Zn2   S    
C80   H29   S    
C25   C28   S    
C67   C78   A    
C12   C23   A    
C26   O21   S    
C26   C27   A    
C69   O8    A    
C63   O31   S    
O16   Zn2   S    
C70   O9    A    
C22   C24   A    
C36   C37   A    
C43   H6    S    
C12   H11   S    
C77   H24   S    
C42   H5    S    
O15   Zn3   S    
O34   Zn8   S    
C52   C78   S    
C71   O3    A    
C10   C17   A    
O1    Zn2   S    
C40   C49   S    
C71   O6    A    
C79   H25   S    
C86   O31   S    
C42   C48   A    
C18   C19   A    
C79   O24   S    
C4    C13   S    
O10   Zn6   S    
O8    Zn5   S    
C52   O19   A    
C77   H22   S    
C46   C47   A    
O34   Zn5   S    
C84   H43   S    
C82   O27   S    
C45   C56   A    
C8    C9    A    
C6    H1    S    
C79   H26   S    
C64   C73   A    
C7    H12   S    
C1    O4    A    
C13   C14   A    
C82   H37   S    
C9    C10   A    
C85   H46   S    
C1    C37   S    
C47   C53   A    
C31   H54   S    
C23   C34   A    
C66   O35   A    
C59   C60   A    
C21   C22   A    
C45   C72   S    
C76   H19   S    
C15   O20   S    
C70   O2    A    
O35   Zn8   S    
O13   Zn1   S    
C4    O33   A    
C68   O11   A    
O36   Zn5   S    
C44   C46   A    
C86   H50   S    
C30   H53   S    
C80   H28   S    
O4    Zn4   S    
O2    Zn7   S    
C72   O7    A    
C81   H31   S    
C24   C25   A    
C40   O16   A    
C82   H35   S    
C6    C11   A    
C56   C87   A    
C54   C60   A    
C64   H51   S    
C72   O5    A    
C25   C26   A    
C2    H13   S    
C60   C61   A    
O1    Zn3   S    
C81   O26   S    
C51   O27   S    
C43   C44   A    
C83   H38   S    
C37   C38   A    
C1    O32   A    
O33   Zn3   S    
C33   F2    S    
O3    Zn6   S    
C57   O29   S    
C62   H9    S    
O34   Zn6   S    
C47   C48   A    
C30   C31   A    
C27   H52   S    
C65   C68   S    
C84   H41   S    
C79   H27   S    
C32   H2    S    
C62   C63   A    
C34   C64   A    
C76   H20   S    
C2    C87   A    
C50   C51   A    
O18   Zn3   S    
C82   H36   S    
C19   H45   S    
C85   H47   S    
C55   O28   S    
C40   O18   A    
C52   O17   A    
O9    Zn8   S    
C28   O23   A    
C14   H14   S    
O7    Zn5   S    
C55   C57   A    
C18   C24   A    
O1    Zn1   S    
C42   C43   A    
C80   O25   S    
C77   H21   S    
C53   C71   S    
C85   H44   S    
C86   H49   S    
O14   Zn2   S    
O6    Zn7   S    
C18   O22   S    
C75   H15   S    
C15   C17   A    
C77   O22   S    
C54   C55   A    
C48   C49   A    
C75   H17   S    
C50   H4    S    
C81   H32   S    
C3    F1    S    
C31   C32   A    
C3    C5    A    
C58   O30   S    
C4    O13   A    
C5    F6    S    
C44   H8    S    
C9    H34   S    
C6    C7    A    
C46   F3    S    
C16   O14   A    
O1    Zn4   S    
C56   C67   A    
C30   C36   A    
C32   C33   A    
O12   Zn1   S    
C19   C20   A    
C2    C3    A    
C58   C59   A    
C83   H39   S    
O5    Zn8   S    
C84   O29   S    
O11   Zn7   S    
C59   C65   A    
C68   O36   A    
O34   Zn7   S    
C57   C58   A    
C38   C39   A    
C76   H18   S    
C33   C35   A    
C83   O28   S    
C76   O21   S    
C75   H16   S    
O37   Zn6   S    
O17   Zn4   S    
C66   O10   A    
C61   C62   A    
C35   C41   A    
C39   H3    S    
C83   H40   S    
C10   C11   A    
C8    H23   S    
C69   O37   A    
C29   C66   S    
C54   F4    S    
C20   O24   S    
C20   C21   A    
C85   O30   S    
C49   C50   A    
C16   C61   S    
O23   Zn4   S    
C14   C15   A    
C41   C70   S    
C75   O20   S    
C51   C53   A    
C87   F5    S    
C21   O25   S    
C34   C78   A    
C86   H48   S    
C74   H10   S    
C16   O12   A    
C80   H30   S    
