data_mof_unit_59104.cif
_audit_creation_date              2012-12-10T16:59:25-0500
_audit_creation_method            fapswitch 2.2
_symmetry_space_group_name_H-M    P1
_symmetry_Int_Tables_number       1
_space_group_crystal_system       triclinic
_cell_length_a                    19.364093
_cell_length_b                    10.918759
_cell_length_c                    9.778042
_cell_angle_alpha                 92.777353
_cell_angle_beta                  90.047172
_cell_angle_gamma                 91.006657
_cell_volume                      2064.63962381

loop_
_atom_site_label
_atom_site_type_symbol
_atom_type_description
_atom_site_fract_x
_atom_site_fract_y
_atom_site_fract_z
_atom_type_partial_charge
C1    C     C_R   0.502700 0.264653 0.496639 0.881411
C2    C     C_R   0.291514 0.527251 0.506451 -0.134569
C3    C     C_R   0.931685 0.546043 0.497012 0.532130
C4    C     C_R   0.071257 0.551993 0.501265 0.363783
C5    C     C_R   0.820719 0.537807 0.620888 0.427554
C6    C     C_R   0.749536 0.508123 0.625497 -0.157568
C7    C     C_R   0.710760 0.496788 0.501394 -0.286407
C8    C     C_R   0.747383 0.490256 0.375865 0.366923
C9    C     C_R   0.818850 0.516678 0.371314 -0.146559
C10   C     C_R   0.855678 0.538926 0.494698 -0.187245
C11   C     C_2   0.460627 0.925876 0.402133 -0.220925
C12   C     C_R   0.367536 0.507432 0.501425 0.811348
C13   C     C_2   0.476421 0.863916 0.514178 0.203634
C14   C     C_2   0.479789 0.059000 0.389119 0.349521
C15   C     C_2   0.511734 0.130601 0.489506 -0.208068
C16   C     C_2   0.456015 0.433898 0.914626 0.634085
C17   C     C_2   0.449886 0.451953 0.071202 0.030323
C18   C     C_R   0.492815 0.733404 0.503306 0.790596
C19   C     C_R   0.633052 0.495760 0.500202 0.794996
C20   C     C_R   0.256499 0.568920 0.628497 -0.048709
C21   C     C_R   0.183756 0.584897 0.625906 -0.017411
C22   C     C_R   0.146822 0.553102 0.504443 -0.035190
C23   C     C_R   0.181756 0.515851 0.385494 -0.123666
C24   C     C_R   0.252968 0.504187 0.386342 -0.112483
Cu1   Cu    Cu3+1 0.500010 0.500020 0.638630 1.017813
Cu2   Cu    Cu3+1 0.499990 0.499980 0.361370 1.015165
H1    H     H_    0.153431 0.492693 0.291858 0.170195
H2    H     H_    0.277446 0.473041 0.292730 0.172084
N1    N     N_R   0.036178 0.630921 0.425010 -0.198253
N2    N     N_R   0.967348 0.628403 0.423418 -0.209076
N3    N     N_R   0.967047 0.467357 0.572848 -0.171440
N4    N     N_R   0.035624 0.470292 0.575020 -0.231173
N5    N     N_2   0.499250 0.498660 0.846910 -0.037697
N6    N     N_2   0.499230 0.498630 0.153040 -0.257112
O1    O     O_R   0.500010 0.321960 0.617040 -0.541139
O2    O     O_R   0.499990 0.321920 0.382900 -0.524433
O3    O     O_R   0.400160 0.500010 0.617110 -0.566685
O4    O     O_R   0.400130 0.499970 0.382960 -0.528709
O5    O     O_R   0.500010 0.678080 0.617100 -0.573191
O6    O     O_R   0.499990 0.678040 0.382960 -0.587198
O7    O     O_R   0.599870 0.500030 0.617040 -0.632607
O8    O     O_R   0.599840 0.499990 0.382890 -0.577215
C25   C     C_2   0.294674 0.593607 0.759008 0.514938
H3    H     H_    0.341233 0.649995 0.761777 0.064706
O9    O     O_2   0.274805 0.548842 0.864347 -0.530975
O10   O     O_3   0.471711 0.918837 0.644468 -0.588927
C26   C     C_3   0.402743 0.908799 0.690903 0.115520
H4    H     H_    0.372458 0.831150 0.640261 0.128654
H5    H     H_    0.375662 0.995087 0.671543 0.157518
C27   C     C_3   0.403140 0.889321 0.843816 -0.801819
H6    H     H_    0.349350 0.882205 0.882221 0.218868
H7    H     H_    0.430082 0.803350 0.864356 0.289585
H8    H     H_    0.430203 0.967071 0.899041 0.225824
O11   O     O_3   0.464184 0.111445 0.266515 -0.541254
C28   C     C_3   0.510373 0.066530 0.163260 0.075329
H9    H     H_    0.490351 0.091156 0.062854 0.165132
H10   H     H_    0.514652 0.965059 0.157553 0.112117
C29   C     C_3   0.582493 0.122526 0.179524 -0.799383
H11   H     H_    0.609517 0.082784 0.266713 0.190724
H12   H     H_    0.612779 0.102487 0.084953 0.234750
H13   H     H_    0.578924 0.222792 0.197975 0.302026
C30   C     C_2   0.567736 0.082743 0.575751 0.353312
H14   H     H_    0.591303 0.995657 0.547795 0.074940
O12   O     O_2   0.589459 0.141401 0.676782 -0.538198
O13   O     O_3   0.405984 0.367547 0.839346 -0.581416
C31   C     C_3   0.403501 0.242894 0.870901 0.012792
H15   H     H_    0.423117 0.224985 0.974111 0.155036
H16   H     H_    0.434875 0.188934 0.795399 0.202895
C32   C     C_3   0.328720 0.197999 0.861093 -0.721787
H17   H     H_    0.295691 0.256653 0.928929 0.269952
H18   H     H_    0.309996 0.201802 0.754004 0.246510
H19   H     H_    0.324116 0.102466 0.893680 0.208933
O14   O     O_3   0.509166 0.612909 0.905286 -0.561881
C33   C     C_3   0.577299 0.654407 0.879254 0.198120
H20   H     H_    0.585286 0.679933 0.773238 0.198552
H21   H     H_    0.615749 0.584308 0.900422 0.159474
C34   C     C_3   0.592804 0.769083 0.969719 -0.885153
H22   H     H_    0.583512 0.751222 0.079022 0.236811
H23   H     H_    0.647572 0.798166 0.956945 0.223220
H24   H     H_    0.559083 0.844689 0.940106 0.266064
C35   C     C_2   0.382831 0.413851 0.125892 0.408970
H25   H     H_    0.336344 0.456001 0.090120 0.094784
O15   O     O_2   0.378395 0.326636 0.199154 -0.508900
C36   C     C_2   0.568650 0.480407 0.108950 0.605445
H26   H     H_    0.608651 0.545348 0.143184 0.107806
O16   O     O_2   0.584694 0.390897 0.036866 -0.634500
C37   C     C_2   0.145890 0.641125 0.745643 0.425562
H27   H     H_    0.092324 0.616729 0.763948 0.078663
O17   O     O_2   0.173063 0.719910 0.821664 -0.520106
O18   O     O_3   0.858121 0.554424 0.741423 -0.524740
C38   C     C_3   0.865959 0.681633 0.772780 0.081043
H28   H     H_    0.815066 0.722753 0.798396 0.161542
H29   H     H_    0.889430 0.730352 0.686185 0.119272
C39   C     C_3   0.913547 0.701626 0.895884 -0.676894
H30   H     H_    0.964901 0.662056 0.872456 0.250676
H31   H     H_    0.920184 0.801344 0.921416 0.194041
H32   H     H_    0.891131 0.656969 0.985585 0.255995
C40   C     C_2   0.719389 0.472995 0.758388 0.411470
H33   H     H_    0.678845 0.403367 0.760547 0.128050
O19   O     O_2   0.740838 0.517815 0.867470 -0.544209
O20   O     O_3   0.715987 0.438592 0.259120 -0.575823
C41   C     C_3   0.730165 0.311195 0.250841 0.066242
H34   H     H_    0.686276 0.260771 0.295353 0.148172
H35   H     H_    0.777328 0.285149 0.307972 0.140517
C42   C     C_3   0.741001 0.267647 0.102169 -0.705449
H36   H     H_    0.786825 0.314806 0.059520 0.262883
H37   H     H_    0.749741 0.167293 0.096214 0.188457
H38   H     H_    0.695443 0.286668 0.039016 0.294821
C43   C     C_2   0.853042 0.510312 0.234848 0.411596
H39   H     H_    0.824081 0.534023 0.145118 0.132497
O21   O     O_2   0.911590 0.472485 0.219394 -0.522157
C44   C     C_2   0.412316 0.867658 0.296746 0.388404
H40   H     H_    0.403232 0.910066 0.200629 0.112536
O22   O     O_2   0.378089 0.775897 0.319821 -0.555006

loop_
_geom_bond_atom_site_label_1
_geom_bond_atom_site_label_2
_ccdc_geom_bond_type
C31   H16   S    
C28   H9    S    
C21   C37   S    
O20   C41   S    
C32   H19   S    
O14   C33   S    
C37   H27   S    
C2    C12   S    
C44   O22   D    
C35   H25   S    
C7    C8    A    
C26   H5    S    
C34   H22   S    
C42   H37   S    
Cu2   O8    S    
C30   H14   S    
C33   H21   S    
C13   C18   S    
C6    C40   S    
C36   O16   D    
C43   O21   D    
C5    C6    A    
C41   H35   S    
C11   C14   S    
C31   C32   S    
C29   H12   S    
C41   C42   S    
C12   O3    A    
C32   H18   S    
C18   O5    A    
C18   O6    A    
C30   O12   D    
Cu1   O3    S    
O10   C26   S    
Cu2   N6    S    
C26   H4    S    
C8    C9    A    
C33   C34   S    
C27   H7    S    
C23   C24   A    
C1    C15   S    
C23   H1    S    
C8    O20   S    
C4    N1    A    
C19   O8    A    
C29   H13   S    
C31   H15   S    
C21   C22   A    
C41   H34   S    
N6    C36   S    
C44   H40   S    
C35   O15   D    
C26   C27   S    
C34   H23   S    
C9    C43   S    
C42   H38   S    
C27   H8    S    
C33   H20   S    
C2    C20   A    
C36   H26   S    
Cu1   O7    S    
C38   H28   S    
C16   C17   S    
C39   H32   S    
C29   H11   S    
C3    N2    A    
C39   H31   S    
C25   H3    S    
N1    N2    A    
C16   N5    D    
C38   H29   S    
C4    C22   S    
N3    N4    A    
C27   H6    S    
C39   H30   S    
C3    N3    A    
C25   O9    D    
C4    N4    A    
Cu1   O1    S    
N5    O14   S    
C14   O11   S    
C40   H33   S    
C7    C19   S    
C37   O17   D    
C2    C24   A    
C17   N6    D    
C5    O18   S    
C20   C25   S    
C1    O1    A    
C9    C10   A    
C34   H24   S    
Cu2   O2    S    
O11   C28   S    
C11   C44   S    
C14   C15   D    
Cu2   O4    S    
C24   H2    S    
C6    C7    A    
C42   H36   S    
C40   O19   D    
C28   H10   S    
Cu1   Cu2   S    
C5    C10   A    
C3    C10   S    
C43   H39   S    
Cu1   O5    S    
C38   C39   S    
C11   C13   D    
Cu2   O6    S    
O18   C38   S    
C13   O10   S    
C15   C30   S    
C17   C35   S    
C12   O4    A    
C32   H17   S    
C20   C21   A    
O13   C31   S    
C28   C29   S    
C22   C23   A    
C16   O13   S    
C19   O7    A    
C1    O2    A    
Cu1   N5    S    
