data_mof_unit_65237.cif
_audit_creation_date              2013-03-05T16:39:23-0500
_audit_creation_method            fapswitch 2.2
_symmetry_space_group_name_H-M    P1
_symmetry_Int_Tables_number       1
_space_group_crystal_system       triclinic
_cell_length_a                    25.690507
_cell_length_b                    25.696761
_cell_length_c                    39.796296
_cell_angle_alpha                 90.000564
_cell_angle_beta                  90.000517
_cell_angle_gamma                 89.999943
_cell_volume                      26272.0349248

loop_
_atom_site_label
_atom_site_type_symbol
_atom_site_description
_atom_site_fract_x
_atom_site_fract_y
_atom_site_fract_z
_atom_type_partial_charge
Zn1   Zn    Zn3+2 0.500000 0.061050 0.221990 1.033612
Zn2   Zn    Zn3+2 0.500000 0.938950 0.778010 1.033474
Zn3   Zn    Zn3+2 0.938950 0.500000 0.221990 1.039006
Zn4   Zn    Zn3+2 0.061050 0.500000 0.778010 1.039056
Zn5   Zn    Zn3+2 0.500000 0.938950 0.221990 1.033673
Zn6   Zn    Zn3+2 0.500000 0.061050 0.778010 1.033802
Zn7   Zn    Zn3+2 0.061050 0.500000 0.221990 1.038992
Zn8   Zn    Zn3+2 0.938950 0.500000 0.778010 1.038949
Zn9   Zn    Zn3+2 0.000000 0.561050 0.721990 1.033473
Zn10  Zn    Zn3+2 0.000000 0.438950 0.278010 1.033612
Zn11  Zn    Zn3+2 0.438950 0.000000 0.721990 1.039055
Zn12  Zn    Zn3+2 0.561050 0.000000 0.278010 1.039006
Zn13  Zn    Zn3+2 0.000000 0.438950 0.721990 1.033801
Zn14  Zn    Zn3+2 0.000000 0.561050 0.278010 1.033673
Zn15  Zn    Zn3+2 0.561050 0.000000 0.721990 1.038948
Zn16  Zn    Zn3+2 0.438950 0.000000 0.278010 1.038992
C1    C     C_1   0.170869 0.327702 0.249263 0.171828
C2    C     C_1   0.829122 0.672290 0.750745 0.171661
C3    C     C_1   0.670891 0.172276 0.250756 0.171494
C4    C     C_1   0.329105 0.827727 0.749244 0.171488
C5    C     C_1   0.829135 0.672303 0.249266 0.171890
C6    C     C_1   0.170879 0.327711 0.750745 0.171697
C7    C     C_1   0.329111 0.827721 0.250752 0.171521
C8    C     C_1   0.670864 0.172303 0.749267 0.171856
C9    C     C_1   0.170895 0.672272 0.750756 0.171488
C10   C     C_1   0.829107 0.327725 0.249245 0.171486
C11   C     C_1   0.670878 0.827710 0.749256 0.171662
C12   C     C_1   0.329130 0.172298 0.250737 0.171828
C13   C     C_1   0.829136 0.327697 0.750733 0.171856
C14   C     C_1   0.170888 0.672279 0.249248 0.171522
C15   C     C_1   0.329122 0.172289 0.749255 0.171702
C16   C     C_1   0.670865 0.827697 0.250734 0.171889
C17   C     C_1   0.361896 0.138761 0.250327 -0.041433
C18   C     C_1   0.638106 0.861241 0.749671 -0.041596
C19   C     C_1   0.861890 0.361245 0.249668 -0.041729
C20   C     C_1   0.138111 0.638754 0.750331 -0.041668
C21   C     C_1   0.638103 0.861238 0.250326 -0.041404
C22   C     C_1   0.361894 0.138759 0.749671 -0.041532
C23   C     C_1   0.138108 0.638756 0.249670 -0.041721
C24   C     C_1   0.861897 0.361238 0.750326 -0.041488
C25   C     C_1   0.361889 0.861246 0.749669 -0.041668
C26   C     C_1   0.638110 0.138755 0.250332 -0.041725
C27   C     C_1   0.861894 0.638759 0.750329 -0.041596
C28   C     C_1   0.138104 0.361239 0.249673 -0.041433
C29   C     C_1   0.638102 0.138762 0.749674 -0.041488
C30   C     C_1   0.361891 0.861244 0.250330 -0.041722
C31   C     C_1   0.138106 0.361241 0.750329 -0.041535
C32   C     C_1   0.861897 0.638762 0.249674 -0.041404
O1    O     O_3   0.500000 0.000000 0.250000 -0.510593
O2    O     O_3   0.500000 0.000000 0.750000 -0.510593
O3    O     O_3   0.000000 0.500000 0.250000 -0.510594
O4    O     O_3   0.000000 0.500000 0.750000 -0.510593
O5    O     O_R   0.457230 1.000000 0.324840 -0.632880
O6    O     O_R   0.542770 0.000000 0.675160 -0.632787
O7    O     O_R   0.000000 0.457230 0.324840 -0.636907
O8    O     O_R   0.000000 0.542770 0.675160 -0.636992
O9    O     O_R   0.542770 1.000000 0.324840 -0.632870
O10   O     O_R   0.457230 0.000000 0.675160 -0.632966
O11   O     O_R   0.000000 0.542770 0.324840 -0.636863
O12   O     O_R   0.000000 0.457230 0.675160 -0.636783
O13   O     O_R   0.957230 0.500000 0.824840 -0.632787
O14   O     O_R   0.042770 0.500000 0.175160 -0.632880
O15   O     O_R   0.500000 0.957230 0.824840 -0.636992
O16   O     O_R   0.500000 0.042770 0.175160 -0.636907
O17   O     O_R   0.042770 0.500000 0.824840 -0.632966
O18   O     O_R   0.957230 0.500000 0.175160 -0.632870
O19   O     O_R   0.500000 0.042770 0.824840 -0.636783
O20   O     O_R   0.500000 0.957230 0.175160 -0.636863
O21   O     O_R   0.602770 0.060140 0.269640 -0.615136
O22   O     O_R   0.397230 0.939860 0.730360 -0.615044
O23   O     O_R   0.939860 0.602770 0.269640 -0.614674
O24   O     O_R   0.060140 0.397230 0.730360 -0.614919
O25   O     O_R   0.397230 0.939860 0.269640 -0.615133
O26   O     O_R   0.602770 0.060140 0.730360 -0.615269
O27   O     O_R   0.060140 0.397230 0.269640 -0.614721
O28   O     O_R   0.939860 0.602770 0.730360 -0.614810
O29   O     O_R   0.602770 0.939860 0.730360 -0.615254
O30   O     O_R   0.397230 0.060140 0.269640 -0.615176
O31   O     O_R   0.939860 0.397230 0.730360 -0.614663
O32   O     O_R   0.060140 0.602770 0.269640 -0.615028
O33   O     O_R   0.397230 0.060140 0.730360 -0.615051
O34   O     O_R   0.602770 0.939860 0.269640 -0.615188
O35   O     O_R   0.060140 0.602770 0.730360 -0.615091
O36   O     O_R   0.939860 0.397230 0.269640 -0.615047
O37   O     O_R   0.102770 0.560140 0.769640 -0.615043
O38   O     O_R   0.897230 0.439860 0.230360 -0.615137
O39   O     O_R   0.439860 0.102770 0.769640 -0.614917
O40   O     O_R   0.560140 0.897230 0.230360 -0.614674
O41   O     O_R   0.897230 0.439860 0.769640 -0.615268
O42   O     O_R   0.102770 0.560140 0.230360 -0.615133
O43   O     O_R   0.560140 0.897230 0.769640 -0.614808
O44   O     O_R   0.439860 0.102770 0.230360 -0.614720
O45   O     O_R   0.102770 0.439860 0.230360 -0.615176
O46   O     O_R   0.897230 0.560140 0.769640 -0.615252
O47   O     O_R   0.439860 0.897230 0.230360 -0.615028
O48   O     O_R   0.560140 0.102770 0.769640 -0.614662
O49   O     O_R   0.897230 0.560140 0.230360 -0.615187
O50   O     O_R   0.102770 0.439860 0.769640 -0.615050
O51   O     O_R   0.560140 0.102770 0.230360 -0.615046
O52   O     O_R   0.439860 0.897230 0.769640 -0.615091
H1    H     H_    0.999986 0.584142 0.383044 0.184884
H2    H     H_    0.000001 0.415857 0.616956 0.184970
H3    H     H_    0.415838 0.000012 0.383043 0.187560
H4    H     H_    0.584163 0.000001 0.616957 0.187641
H5    H     H_    0.000013 0.415858 0.383043 0.184848
H6    H     H_    0.999996 0.584142 0.616957 0.184753
H7    H     H_    0.584163 0.999988 0.383044 0.187579
H8    H     H_    0.415837 0.000001 0.616955 0.187494
H9    H     H_    0.499999 0.084143 0.883044 0.184970
H10   H     H_    0.500014 0.915857 0.116956 0.184883
H11   H     H_    0.915837 0.499998 0.883043 0.187641
H12   H     H_    0.084162 0.499988 0.116957 0.187560
H13   H     H_    0.500004 0.915858 0.883043 0.184754
H14   H     H_    0.499987 0.084142 0.116957 0.184848
H15   H     H_    0.084163 0.499999 0.883044 0.187494
H16   H     H_    0.915837 0.500012 0.116956 0.187579
C33   C     C_R   1.000000 0.500000 0.378224 -0.028702
C34   C     C_R   0.999999 0.499999 0.621776 -0.028697
C35   C     C_R   0.500000 0.000000 0.378225 -0.032246
C36   C     C_R   0.500000 0.000001 0.621775 -0.032243
C37   C     C_R   0.500001 0.000001 0.878224 -0.028697
C38   C     C_R   0.500000 1.000000 0.121776 -0.028701
C39   C     C_R   0.000000 0.499999 0.878225 -0.032243
C40   C     C_R   1.000000 0.500000 0.121774 -0.032246
C41   C     C_R   0.999992 0.547195 0.396132 -0.159615
C42   C     C_R   0.000000 0.452804 0.603868 -0.159485
C43   C     C_R   0.452794 0.000007 0.396132 -0.153246
C44   C     C_R   0.547206 0.000001 0.603868 -0.153044
C45   C     C_R   0.000007 0.452805 0.396132 -0.159689
C46   C     C_R   0.999997 0.547194 0.603868 -0.159832
C47   C     C_R   0.547207 0.999993 0.396133 -0.153222
C48   C     C_R   0.452793 0.000001 0.603867 -0.153437
C49   C     C_R   0.500000 0.047196 0.896132 -0.159485
C50   C     C_R   0.500008 0.952805 0.103868 -0.159614
C51   C     C_R   0.952793 0.499999 0.896132 -0.153044
C52   C     C_R   0.047206 0.499993 0.103867 -0.153246
C53   C     C_R   0.500003 0.952806 0.896132 -0.159832
C54   C     C_R   0.499993 0.047195 0.103868 -0.159689
C55   C     C_R   0.047207 0.499999 0.896133 -0.153437
C56   C     C_R   0.952793 0.500006 0.103867 -0.153223
C57   C     C_R   0.999998 0.500000 0.448809 0.132451
C58   C     C_R   0.999998 0.499999 0.551191 0.132455
C59   C     C_R   0.500000 0.000001 0.448809 0.130169
C60   C     C_R   0.500000 0.000001 0.551191 0.130171
C61   C     C_R   0.500002 0.000001 0.948809 0.132455
C62   C     C_R   0.500002 0.000000 0.051191 0.132452
C63   C     C_R   1.000000 0.499998 0.948809 0.130171
C64   C     C_R   0.999999 0.499999 0.051191 0.130169
C65   C     C_1   0.999998 0.500000 0.484880 -0.024090
C66   C     C_1   0.999998 0.499999 0.515120 -0.024092
C67   C     C_1   0.500000 0.000001 0.484880 -0.021186
C68   C     C_1   0.500000 0.000001 0.515120 -0.021187
C69   C     C_1   0.500002 0.000001 0.984880 -0.024092
C70   C     C_1   0.500002 0.000000 0.015120 -0.024091
C71   C     C_1   1.000000 0.499999 0.984880 -0.021188
C72   C     C_1   0.999999 0.499999 0.015120 -0.021186
C73   C     C_R   0.500000 1.000000 0.341117 0.805054
C74   C     C_R   0.500000 0.000000 0.658883 0.805048
C75   C     C_R   1.000000 0.500000 0.341115 0.796672
C76   C     C_R   1.000000 0.500000 0.658885 0.796669
C77   C     C_R   0.000000 0.500000 0.841117 0.805048
C78   C     C_R   1.000000 0.500000 0.158883 0.805053
C79   C     C_R   0.500000 0.000000 0.841115 0.796669
C80   C     C_R   0.500000 1.000000 0.158885 0.796671
C81   C     C_R   0.599016 0.099012 0.250005 0.819409
C82   C     C_R   0.400984 0.900988 0.749995 0.819484
C83   C     C_R   0.900984 0.599013 0.249996 0.819452
C84   C     C_R   0.099016 0.400987 0.750004 0.819404
C85   C     C_R   0.400984 0.900987 0.250004 0.819372
C86   C     C_R   0.599015 0.099013 0.749996 0.819366
C87   C     C_R   0.099016 0.400987 0.249996 0.819459
C88   C     C_R   0.900984 0.599012 0.750004 0.819446
C89   C     C_R   0.599016 0.900987 0.749996 0.819445
C90   C     C_R   0.400984 0.099013 0.250004 0.819459
C91   C     C_R   0.900984 0.400987 0.750004 0.819366
C92   C     C_R   0.099016 0.599013 0.249996 0.819372
C93   C     C_R   0.400984 0.099013 0.749996 0.819404
C94   C     C_R   0.599016 0.900987 0.250004 0.819451
C95   C     C_R   0.099016 0.599012 0.750005 0.819484
C96   C     C_R   0.900984 0.400988 0.249995 0.819411
C97   C     C_R   0.204330 0.243115 0.269293 0.194521
C98   C     C_R   0.796003 0.757224 0.731094 0.194445
C99   C     C_R   0.756537 0.204655 0.269647 0.195700
C100  C     C_R   0.243378 0.795430 0.730447 0.195647
C101  C     C_R   0.795517 0.756730 0.269465 0.194564
C102  C     C_R   0.203967 0.242746 0.731128 0.194432
C103  C     C_R   0.243575 0.795233 0.269770 0.195734
C104  C     C_R   0.755488 0.205716 0.729241 0.196148
C105  C     C_R   0.203431 0.757797 0.731777 0.194299
C106  C     C_R   0.796491 0.242282 0.268319 0.194332
C107  C     C_R   0.756017 0.794819 0.729790 0.195959
C108  C     C_R   0.244336 0.205538 0.270580 0.196077
C109  C     C_R   0.795503 0.243282 0.730520 0.194564
C110  C     C_R   0.203614 0.757613 0.268448 0.194349
C111  C     C_R   0.243951 0.205148 0.729823 0.195867
C112  C     C_R   0.755503 0.794298 0.270745 0.196137
C113  C     C_R   0.703996 0.742776 0.768907 0.194447
C114  C     C_R   0.295670 0.256885 0.230707 0.194521
C115  C     C_R   0.256621 0.704569 0.769553 0.195647
C116  C     C_R   0.743461 0.295347 0.230355 0.195705
C117  C     C_R   0.296034 0.257256 0.768872 0.194429
C118  C     C_R   0.704483 0.743269 0.230534 0.194565
C119  C     C_R   0.744512 0.294284 0.770759 0.196148
C120  C     C_R   0.256424 0.704767 0.230230 0.195734
C121  C     C_R   0.703506 0.257720 0.231683 0.194325
C122  C     C_R   0.296569 0.742203 0.768223 0.194298
C123  C     C_R   0.255664 0.294462 0.229420 0.196077
C124  C     C_R   0.743981 0.705179 0.770211 0.195954
C125  C     C_R   0.296386 0.742387 0.231551 0.194347
C126  C     C_R   0.704496 0.256718 0.769480 0.194564
C127  C     C_R   0.744497 0.705702 0.229254 0.196136
C128  C     C_R   0.256051 0.294854 0.770177 0.195868
C129  C     C_R   0.210133 0.287436 0.248711 -0.192993
C130  C     C_R   0.789847 0.712544 0.751306 -0.193019
C131  C     C_R   0.710183 0.212514 0.251329 -0.193020
C132  C     C_R   0.289810 0.787493 0.748668 -0.193007
C133  C     C_R   0.789877 0.712574 0.248718 -0.192988
C134  C     C_R   0.210155 0.287458 0.751306 -0.192991
C135  C     C_R   0.289823 0.787480 0.251323 -0.193033
C136  C     C_R   0.710122 0.212575 0.748719 -0.193017
C137  C     C_R   0.210190 0.712507 0.751332 -0.193007
C138  C     C_R   0.789815 0.287488 0.248672 -0.193023
C139  C     C_R   0.710152 0.787455 0.748695 -0.193021
C140  C     C_R   0.289867 0.212564 0.251289 -0.192993
C141  C     C_R   0.789878 0.287425 0.751281 -0.193017
C142  C     C_R   0.210177 0.712520 0.248676 -0.193034
C143  C     C_R   0.289846 0.212543 0.748693 -0.192990
C144  C     C_R   0.710123 0.787426 0.251282 -0.192989
C145  C     C_R   0.999991 0.547139 0.431234 -0.133591
C146  C     C_R   0.999999 0.452860 0.568766 -0.133485
C147  C     C_R   0.452850 0.000007 0.431234 -0.130952
C148  C     C_R   0.547150 0.000002 0.568766 -0.130804
C149  C     C_R   0.000006 0.452861 0.431233 -0.133553
C150  C     C_R   0.999996 0.547138 0.568767 -0.133667
C151  C     C_R   0.547151 0.999994 0.431234 -0.130857
C152  C     C_R   0.452850 0.000001 0.568766 -0.131012
C153  C     C_R   0.500001 0.047139 0.931234 -0.133485
C154  C     C_R   0.500009 0.952861 0.068766 -0.133592
C155  C     C_R   0.952850 0.499998 0.931234 -0.130804
C156  C     C_R   0.047150 0.499993 0.068766 -0.130952
C157  C     C_R   0.500004 0.952862 0.931233 -0.133667
C158  C     C_R   0.499994 0.047138 0.068767 -0.133553
C159  C     C_R   0.047150 0.499999 0.931234 -0.131012
C160  C     C_R   0.952849 0.500006 0.068766 -0.130857
H17   H     H_    0.999985 0.583827 0.444655 0.159744
H18   H     H_    0.000000 0.416172 0.555345 0.159820
H19   H     H_    0.416153 0.000013 0.444655 0.160977
H20   H     H_    0.583848 0.000002 0.555346 0.161067
H21   H     H_    0.000012 0.416173 0.444654 0.159771
H22   H     H_    0.999995 0.583826 0.555346 0.159691
H23   H     H_    0.583848 0.999988 0.444655 0.161039
H24   H     H_    0.416152 0.000001 0.555344 0.160947
H25   H     H_    0.500000 0.083828 0.944655 0.159820
H26   H     H_    0.500015 0.916173 0.055345 0.159744
H27   H     H_    0.916152 0.499998 0.944654 0.161067
H28   H     H_    0.083847 0.499987 0.055345 0.160977
H29   H     H_    0.500005 0.916173 0.944654 0.159691
H30   H     H_    0.499988 0.083827 0.055346 0.159770
H31   H     H_    0.083848 0.499999 0.944656 0.160947
H32   H     H_    0.916151 0.500011 0.055344 0.161038
N1    N     N_R   0.237731 0.159279 0.290485 0.251192
O53   O     O_R   0.195253 0.131951 0.288067 -0.263510
O54   O     O_R   0.274154 0.144201 0.311016 -0.331978
N2    N     N_R   0.762963 0.841423 0.710273 0.251110
O55   O     O_R   0.805388 0.868713 0.713203 -0.264006
O56   O     O_R   0.726903 0.856854 0.689585 -0.331696
N3    N     N_R   0.842962 0.235440 0.287995 0.251187
O57   O     O_R   0.839757 0.223475 0.319700 -0.277463
O58   O     O_R   0.888623 0.241274 0.274354 -0.317043
N4    N     N_R   0.156878 0.764722 0.712195 0.251196
O59   O     O_R   0.159950 0.776828 0.680507 -0.277442
O60   O     O_R   0.111273 0.758822 0.725903 -0.316937
N5    N     N_R   0.761951 0.840397 0.290826 0.251213
O61   O     O_R   0.804449 0.867741 0.288641 -0.263419
O62   O     O_R   0.725365 0.855316 0.311285 -0.332117
N6    N     N_R   0.236975 0.158513 0.710341 0.251186
O63   O     O_R   0.194553 0.131229 0.713316 -0.263620
O64   O     O_R   0.273003 0.143048 0.689641 -0.331565
N7    N     N_R   0.157258 0.764342 0.288252 0.251159
O65   O     O_R   0.160647 0.776131 0.319977 -0.277689
O66   O     O_R   0.111517 0.758577 0.274709 -0.317080
N8    N     N_R   0.840913 0.237512 0.709702 0.250940
O67   O     O_R   0.836043 0.227212 0.677842 -0.278820
O68   O     O_R   0.887266 0.242669 0.722457 -0.316424
N9    N     N_R   0.235851 0.842623 0.711622 0.251099
O69   O     O_R   0.193528 0.869810 0.715437 -0.264031
O70   O     O_R   0.271279 0.858692 0.690683 -0.331081
N10   N     N_R   0.763983 0.157544 0.288570 0.251076
O71   O     O_R   0.806322 0.130340 0.284879 -0.264267
O72   O     O_R   0.728468 0.141568 0.309476 -0.331172
N11   N     N_R   0.841950 0.763536 0.710840 0.251053
O73   O     O_R   0.837911 0.774668 0.679049 -0.278176
O74   O     O_R   0.887964 0.758048 0.724041 -0.316398
N12   N     N_R   0.158743 0.237167 0.289927 0.250970
O75   O     O_R   0.163341 0.226593 0.321767 -0.278627
O76   O     O_R   0.112500 0.242433 0.277026 -0.316276
N13   N     N_R   0.761921 0.159630 0.709145 0.251183
O77   O     O_R   0.804419 0.132282 0.711313 -0.263685
O78   O     O_R   0.725323 0.144728 0.688691 -0.332187
N14   N     N_R   0.236238 0.842236 0.288824 0.251093
O79   O     O_R   0.193881 0.869462 0.285297 -0.264199
O80   O     O_R   0.271873 0.858091 0.309684 -0.331332
N15   N     N_R   0.157989 0.236401 0.710908 0.251068
O81   O     O_R   0.161977 0.225220 0.679121 -0.278091
O82   O     O_R   0.111996 0.241909 0.724136 -0.316866
N16   N     N_R   0.840942 0.762513 0.290269 0.250935
O83   O     O_R   0.836094 0.772831 0.322128 -0.278819
O84   O     O_R   0.887286 0.757350 0.277502 -0.316272
N17   N     N_R   0.737036 0.658574 0.789727 0.251110
O85   O     O_R   0.694607 0.631289 0.786800 -0.264001
O86   O     O_R   0.773098 0.643138 0.810412 -0.331700
N18   N     N_R   0.262269 0.340720 0.209515 0.251192
O87   O     O_R   0.304747 0.368048 0.211932 -0.263509
O88   O     O_R   0.225846 0.355799 0.188984 -0.331978
N19   N     N_R   0.343122 0.735278 0.787805 0.251196
O89   O     O_R   0.340050 0.723172 0.819493 -0.277442
O90   O     O_R   0.388726 0.741177 0.774096 -0.316937
N20   N     N_R   0.657035 0.264563 0.212007 0.251185
O91   O     O_R   0.660240 0.276539 0.180304 -0.277452
O92   O     O_R   0.611374 0.258720 0.225647 -0.317053
N21   N     N_R   0.263027 0.341490 0.789657 0.251188
O93   O     O_R   0.305449 0.368773 0.786682 -0.263622
O94   O     O_R   0.226999 0.356956 0.810357 -0.331563
N22   N     N_R   0.738049 0.659602 0.209174 0.251213
O95   O     O_R   0.695551 0.632259 0.211359 -0.263417
O96   O     O_R   0.774635 0.644683 0.188715 -0.332117
N23   N     N_R   0.659087 0.262487 0.790298 0.250940
O97   O     O_R   0.663957 0.272788 0.822158 -0.278820
O98   O     O_R   0.612734 0.257331 0.777543 -0.316424
N24   N     N_R   0.342742 0.735658 0.211748 0.251158
O99   O     O_R   0.339353 0.723868 0.180023 -0.277689
O100  O     O_R   0.388482 0.741423 0.225291 -0.317080
N25   N     N_R   0.736014 0.342459 0.211433 0.251080
O101  O     O_R   0.693679 0.369667 0.215128 -0.264272
O102  O     O_R   0.771527 0.358434 0.190524 -0.331167
N26   N     N_R   0.264149 0.657376 0.788378 0.251100
O103  O     O_R   0.306471 0.630190 0.784563 -0.264031
O104  O     O_R   0.228721 0.641307 0.809317 -0.331081
N27   N     N_R   0.341257 0.262833 0.210073 0.250970
O105  O     O_R   0.336659 0.273407 0.178233 -0.278627
O106  O     O_R   0.387500 0.257567 0.222974 -0.316275
N28   N     N_R   0.658051 0.736465 0.789163 0.251056
O107  O     O_R   0.662092 0.725331 0.820954 -0.278176
O108  O     O_R   0.612036 0.741960 0.775965 -0.316404
N29   N     N_R   0.263762 0.657764 0.211176 0.251093
O109  O     O_R   0.306119 0.630538 0.214703 -0.264197
O110  O     O_R   0.228126 0.641907 0.190316 -0.331333
N30   N     N_R   0.738079 0.340370 0.790854 0.251182
O111  O     O_R   0.695581 0.367718 0.788687 -0.263685
O112  O     O_R   0.774677 0.355272 0.811309 -0.332187
N31   N     N_R   0.659058 0.737487 0.209731 0.250934
O113  O     O_R   0.663906 0.727169 0.177872 -0.278819
O114  O     O_R   0.612714 0.742650 0.222498 -0.316271
N32   N     N_R   0.342012 0.263599 0.789093 0.251068
O115  O     O_R   0.338022 0.274786 0.820879 -0.278085
O116  O     O_R   0.388006 0.258084 0.775868 -0.316875

loop_
_geom_bond_atom_site_label_1
_geom_bond_atom_site_label_2
_geom_bond_distance
_ccdc_geom_bond_type
Zn12  O21   1.909979 S    
Zn13  O31   1.909823 S    
C33   C75   1.476813 S    
O24   C84   1.271985 A    
Zn14  O23   1.909816 S    
C34   C76   1.476813 S    
N11   O73   1.301270 A    
O16   C80   1.275693 A    
C29   C86   1.432423 S    
Zn1   O51   1.909812 S    
C112  C144  1.410767 A    
Zn12  O1    1.924162 S    
N15   O82   1.301258 A    
Zn13  O12   1.921952 S    
N25   O101  1.301271 A    
O15   C79   1.275696 A    
C21   C94   1.432423 S    
N8    O67   1.301271 A    
C154  H26   1.083566 S    
H12   C52   1.082925 S    
O42   C92   1.271891 A    
C123  N18   1.438516 S    
O43   C89   1.271995 A    
C117  C143  1.410749 A    
O36   C96   1.272000 A    
O46   C88   1.271904 A    
Zn5   O40   1.909814 S    
N22   O95   1.301269 A    
C124  C130  1.410769 A    
C119  C126  1.411126 A    
C106  N3    1.438513 S    
C63   C71   1.435488 S    
C117  C128  1.411126 A    
C146  H18   1.083565 S    
C5    C32   1.204796 T    
C53   C157  1.396898 A    
C59   C67   1.435488 S    
C6    C31   1.204798 T    
C44   C148  1.396895 A    
C7    C30   1.204799 T    
C36   C74   1.476777 S    
C158  H30   1.083566 S    
C150  H22   1.083566 S    
Zn9   O4    1.924493 S    
Zn10  O3    1.924492 S    
Zn5   O47   1.909823 S    
C60   C148  1.398746 A    
O20   C80   1.275698 A    
C99   C131  1.410772 A    
Zn7   O45   1.909976 S    
C7    C135  1.445189 S    
N24   O99   1.301272 A    
H9    C49   1.082922 S    
Zn15  O6    1.921916 S    
Zn16  O1    1.924180 S    
N28   O107  1.301274 A    
C122  N19   1.438514 S    
C47   C151  1.396895 A    
C56   C160  1.396895 A    
Zn7   O14   1.921916 S    
Zn14  O11   1.921952 S    
O39   C93   1.271985 A    
C102  C111  1.411123 A    
N15   O81   1.301267 A    
C62   C70   1.435496 S    
C63   C159  1.398749 A    
C128  N21   1.438508 S    
O34   C94   1.271906 A    
N31   O114  1.301257 A    
N16   O83   1.301273 A    
C48   C152  1.396899 A    
Zn9   O35   1.909812 S    
C8    C136  1.445189 S    
C99   N10   1.438510 S    
H15   C55   1.082923 S    
C12   C17   1.204799 T    
C52   C156  1.396895 A    
C155  H27   1.083567 S    
N4    O60   1.301257 A    
C107  C139  1.410765 A    
C119  C141  1.410768 A    
N14   O79   1.301269 A    
H6    C46   1.082921 S    
C64   C156  1.398746 A    
C147  H19   1.083567 S    
N26   O103  1.301267 A    
C125  N24   1.438517 S    
Zn13  O24   1.909814 S    
C11   C139  1.445187 S    
C111  C143  1.410764 A    
C109  C141  1.410747 A    
N9    O70   1.301259 A    
C58   C66   1.435496 S    
C45   C149  1.396898 A    
N30   O111  1.301268 A    
C3    C131  1.445191 S    
N7    O66   1.301258 A    
C28   C87   1.432423 S    
C9    C20   1.204798 T    
C10   C19   1.204797 T    
C57   C149  1.398748 A    
N21   O93   1.301268 A    
O17   C77   1.275509 A    
C71   C72   1.203420 T    
Zn11  O2    1.924166 S    
C113  C124  1.411128 A    
C65   C66   1.203428 T    
O50   C84   1.271895 A    
O51   C81   1.272003 A    
C100  N9    1.438513 S    
C14   C142  1.445189 S    
N31   O113  1.301273 A    
C160  H32   1.083566 S    
C118  C127  1.411125 A    
Zn11  O22   1.909981 S    
C102  C134  1.410740 A    
N11   O74   1.301261 A    
C41   C145  1.396902 A    
C106  C138  1.410736 A    
N1    O53   1.301268 A    
C39   C77   1.476777 S    
C97   C108  1.411126 A    
C58   C146  1.398751 A    
C37   C79   1.476813 S    
C39   C55   1.406646 A    
C38   C80   1.476813 S    
N18   O87   1.301268 A    
C37   C53   1.406653 A    
O28   C88   1.271995 A    
C38   C50   1.406651 A    
N20   O92   1.301259 A    
Zn2   O2    1.924492 S    
C62   C154  1.398749 A    
N2    O55   1.301267 A    
C10   C138  1.445192 S    
H1    C41   1.082920 S    
C98   N11   1.438515 S    
Zn11  O10   1.921924 S    
C33   C45   1.406653 A    
Zn8   O4    1.924180 S    
C3    C26   1.204799 T    
C35   C73   1.476777 S    
C145  H17   1.083566 S    
C126  N23   1.438517 S    
C22   C93   1.432423 S    
C5    C133  1.445185 S    
N13   O78   1.301258 A    
C2    C130  1.445191 S    
C49   C153  1.396902 A    
C152  H24   1.083564 S    
C43   C147  1.396895 A    
N17   O86   1.301260 A    
C156  H28   1.083567 S    
C61   C157  1.398749 A    
C125  C135  1.410744 A    
H3    C43   1.082925 S    
N23   O98   1.301264 A    
C118  C144  1.410751 A    
O44   C90   1.271986 A    
Zn7   O42   1.909970 S    
C39   C51   1.406647 A    
C148  H20   1.083567 S    
N10   O72   1.301255 A    
Zn10  O7    1.921943 S    
Zn10  O27   1.909815 S    
C120  N29   1.438507 S    
C12   C140  1.445187 S    
C25   C82   1.432423 S    
C62   C158  1.398746 A    
Zn9   O8    1.921943 S    
C16   C21   1.204796 T    
Zn6   O2    1.924472 S    
C17   C90   1.432423 S    
Zn12  O9    1.921924 S    
Zn6   O19   1.921952 S    
C104  C109  1.411126 A    
C117  N32   1.438514 S    
H10   C50   1.082923 S    
Zn1   O16   1.921943 S    
Zn2   O15   1.921943 S    
C114  C123  1.411126 A    
C113  C139  1.410746 A    
N3    O57   1.301267 A    
O40   C94   1.271973 A    
C63   C155  1.398746 A    
N8    O68   1.301264 A    
O35   C95   1.272005 A    
C107  N2    1.438510 S    
O33   C93   1.271895 A    
C60   C68   1.435488 S    
C114  N27   1.438517 S    
Zn15  O29   1.909976 S    
C32   C83   1.432423 S    
C13   C24   1.204799 T    
O7    C75   1.275693 A    
N5    O62   1.301257 A    
C14   C23   1.204797 T    
H14   C54   1.082923 S    
Zn2   O43   1.909815 S    
O21   C81   1.271888 A    
H8    C48   1.082923 S    
O19   C79   1.275696 A    
N6    O63   1.301270 A    
N22   O96   1.301259 A    
N32   O115  1.301275 A    
C64   C160  1.398751 A    
C97   C129  1.410748 A    
Zn8   O41   1.909972 S    
C59   C147  1.398746 A    
C33   C41   1.406653 A    
C35   C43   1.406647 A    
C116  C121  1.411126 A    
C50   C154  1.396902 A    
Zn5   O1    1.924477 S    
C149  H21   1.083566 S    
C20   C95   1.432423 S    
N24   O100  1.301255 A    
C4    C132  1.445189 S    
C153  H25   1.083565 S    
C15   C143  1.445189 S    
N12   O75   1.301273 A    
N28   O108  1.301261 A    
C100  C132  1.410769 A    
C57   C145  1.398747 A    
O18   C78   1.275509 A    
C108  N1    1.438516 S    
O11   C75   1.275698 A    
C16   C144  1.445185 S    
C120  C125  1.411124 A    
N16   O84   1.301257 A    
C67   C68   1.203420 T    
Zn9   O28   1.909817 S    
C13   C141  1.445189 S    
N29   O110  1.301261 A    
N25   O102  1.301255 A    
N19   O89   1.301271 A    
Zn3   O38   1.909981 S    
Zn5   O20   1.921952 S    
N14   O80   1.301256 A    
C40   C78   1.476777 S    
C104  C136  1.410768 A    
C127  C133  1.410767 A    
C40   C52   1.406647 A    
C105  N4    1.438514 S    
Zn8   O46   1.909973 S    
C108  C140  1.410768 A    
N26   O104  1.301259 A    
C60   C152  1.398749 A    
H2    C42   1.082922 S    
C46   C150  1.396898 A    
C115  C122  1.411125 A    
C114  C140  1.410748 A    
N9    O69   1.301267 A    
C34   C46   1.406653 A    
Zn13  O4    1.924477 S    
Zn3   O49   1.909972 S    
N27   O105  1.301273 A    
N30   O112  1.301259 A    
C159  H31   1.083564 S    
C38   C54   1.406653 A    
C157  H29   1.083566 S    
C121  N20   1.438518 S    
C115  N26   1.438513 S    
Zn1   O44   1.909817 S    
C103  C110  1.411122 A    
Zn3   O18   1.921924 S    
C98   C107  1.411122 A    
O41   C91   1.271912 A    
C101  C112  1.411125 A    
O25   C85   1.271891 A    
C99   C106  1.411124 A    
C127  N22   1.438519 S    
O45   C87   1.271914 A    
O29   C89   1.271906 A    
C40   C56   1.406646 A    
C36   C44   1.406647 A    
C116  N25   1.438506 S    
C15   C22   1.204796 T    
N32   O116  1.301257 A    
C116  C138  1.410767 A    
C110  C142  1.410742 A    
C1    C28   1.204799 T    
Zn7   O3    1.924181 S    
N23   O97   1.301271 A    
C18   C89   1.432423 S    
C2    C27   1.204800 T    
C120  C142  1.410770 A    
N3    O58   1.301256 A    
H11   C51   1.082926 S    
O14   C78   1.275506 A    
N18   O88   1.301258 A    
Zn15  O26   1.909970 S    
C121  C131  1.410743 A    
N2    O56   1.301256 A    
N4    O59   1.301271 A    
C64   C72   1.435488 S    
C109  N8    1.438517 S    
C31   C84   1.432421 S    
Zn4   O50   1.909974 S    
N13   O77   1.301268 A    
C102  N15   1.438513 S    
C151  H23   1.083566 S    
C4    C25   1.204798 T    
C57   C65   1.435496 S    
C103  C135  1.410767 A    
N17   O85   1.301269 A    
Zn11  O33   1.909972 S    
C101  C133  1.410748 A    
Zn4   O4    1.924162 S    
O13   C77   1.275506 A    
C8    C29   1.204799 T    
C42   C146  1.396902 A    
O22   C82   1.271886 A    
Zn4   O17   1.921924 S    
C105  C137  1.410741 A    
C123  C129  1.410768 A    
C126  C136  1.410747 A    
O52   C82   1.272005 A    
Zn15  O2    1.924181 S    
C59   C151  1.398751 A    
Zn16  O5    1.921916 S    
C113  N28   1.438515 S    
Zn14  O3    1.924472 S    
N21   O94   1.301259 A    
H4    C44   1.082926 S    
C9    C137  1.445189 S    
C115  C137  1.410769 A    
Zn14  O32   1.909821 S    
Zn16  O30   1.909973 S    
C54   C158  1.396898 A    
Zn8   O13   1.921916 S    
C61   C69   1.435496 S    
C6    C134  1.445189 S    
Zn2   O52   1.909814 S    
C110  N7    1.438516 S    
O48   C86   1.271977 A    
C1    C129  1.445187 S    
C11   C18   1.204799 T    
N19   O90   1.301257 A    
Zn3   O3    1.924166 S    
Zn16  O25   1.909972 S    
O31   C91   1.271977 A    
C97   N12   1.438517 S    
O32   C92   1.271998 A    
H7    C47   1.082925 S    
O10   C74   1.275509 A    
N1    O54   1.301257 A    
H5    C45   1.082923 S    
Zn4   O37   1.909979 S    
O49   C83   1.271906 A    
Zn6   O39   1.909816 S    
C61   C153  1.398751 A    
N20   O91   1.301266 A    
O6    C74   1.275506 A    
C35   C47   1.406646 A    
O37   C95   1.271886 A    
N7    O65   1.301268 A    
O38   C96   1.271888 A    
N5    O61   1.301269 A    
Zn12  O34   1.909974 S    
C124  N17   1.438512 S    
O47   C85   1.272000 A    
C104  N13   1.438516 S    
N27   O106  1.301263 A    
N6    O64   1.301256 A    
Zn6   O48   1.909821 S    
O27   C87   1.271986 A    
C101  N16   1.438518 S    
C103  N14   1.438507 S    
C55   C159  1.396899 A    
C98   C130  1.410741 A    
C122  C132  1.410741 A    
C19   C96   1.432427 S    
O9    C73   1.275509 A    
C36   C48   1.406646 A    
O12   C76   1.275696 A    
C23   C92   1.432424 S    
C24   C91   1.432423 S    
C27   C88   1.432423 S    
C26   C81   1.432426 S    
O5    C73   1.275506 A    
C30   C85   1.432424 S    
N10   O71   1.301270 A    
C69   C70   1.203428 T    
O8    C76   1.275696 A    
N12   O76   1.301263 A    
C128  C134  1.410768 A    
C119  N30   1.438514 S    
Zn10  O36   1.909814 S    
C51   C155  1.396895 A    
H13   C53   1.082921 S    
O26   C86   1.271912 A    
C58   C150  1.398749 A    
C111  N6    1.438511 S    
O30   C90   1.271914 A    
C100  C105  1.411125 A    
O23   C83   1.271973 A    
C34   C42   1.406651 A    
C37   C49   1.406651 A    
N29   O109  1.301269 A    
Zn1   O1    1.924493 S    
C118  N31   1.438516 S    
C112  N5    1.438519 S    
H16   C56   1.082925 S    
