data_mof_unit_62160.cif
_audit_creation_date              2012-10-26T20:45:59-0400
_audit_creation_method            fapswitch 2.2
_symmetry_space_group_name_H-M    P1
_symmetry_Int_Tables_number       1
_space_group_crystal_system       triclinic
_cell_length_a                    23.538413
_cell_length_b                    14.676632
_cell_length_c                    15.926728
_cell_angle_alpha                 90.086452
_cell_angle_beta                  89.971226
_cell_angle_gamma                 89.987909
_cell_volume                      5502.11404285

loop_
_atom_site_label
_atom_site_type_symbol
_atom_type_description
_atom_site_fract_x
_atom_site_fract_y
_atom_site_fract_z
_atom_type_partial_charge
Br1   Br    Br    0.069568 0.649001 0.724354 -0.193373
Br2   Br    Br    0.543959 0.690400 0.109224 -0.195443
Br3   Br    Br    0.463307 0.303485 0.076328 -0.174076
Br4   Br    Br    0.555546 0.314953 0.914643 -0.238554
Br5   Br    Br    0.627307 0.467743 0.880063 -0.172739
Br6   Br    Br    0.547655 0.120879 0.327045 -0.191752
Br7   Br    Br    0.583043 0.912474 0.358727 -0.168469
Br8   Br    Br    0.623334 0.882010 0.547843 -0.187308
Br9   Br    Br    0.625112 0.090302 0.490203 -0.218054
Br10  Br    Br    0.373165 0.905383 0.478944 -0.198491
Br11  Br    Br    0.375655 0.121378 0.541488 -0.220789
Br12  Br    Br    0.343212 0.391869 0.654073 -0.255275
Br13  Br    Br    0.462155 0.880560 0.323277 -0.156514
Br14  Br    Br    0.425627 0.087113 0.352806 -0.166380
Br15  Br    Br    0.662674 0.627587 0.362372 -0.285703
Br16  Br    Br    0.659292 0.378482 0.645899 -0.255622
Br17  Br    Br    0.800729 0.374425 0.644760 -0.203315
Br18  Br    Br    0.193967 0.604689 0.355843 -0.218134
Br19  Br    Br    0.382414 0.447079 0.113009 -0.211106
Br20  Br    Br    0.423687 0.651738 0.085113 -0.216163
Br21  Br    Br    0.376541 0.516220 0.923681 -0.169030
Br22  Br    Br    0.454246 0.687081 0.892076 -0.205147
Br23  Br    Br    0.574402 0.665554 0.914686 -0.179839
Br24  Br    Br    0.423872 0.339750 0.887401 -0.179926
C1    C     C_R   0.500115 0.500043 0.660028 0.569099
C2    C     C_R   0.879290 0.439144 0.452502 0.454098
C3    C     C_R   0.762193 0.551359 0.444301 0.069142
C4    C     C_R   0.609220 0.500002 0.500405 0.589934
C5    C     C_R   0.702367 0.552540 0.443195 0.108513
C6    C     C_R   0.671598 0.499878 0.501863 -0.022747
C7    C     C_R   0.700582 0.447065 0.562195 0.137325
C8    C     C_R   0.760104 0.446899 0.563741 0.228021
C9    C     C_R   0.790756 0.498941 0.505333 0.143274
C10   C     C_R   0.240184 0.448854 0.567554 0.073691
C11   C     C_R   0.300022 0.452483 0.566959 0.116509
C12   C     C_R   0.030929 0.593241 0.629252 0.164606
C13   C     C_R   0.328543 0.500028 0.502431 -0.047257
C14   C     C_R   0.297317 0.545030 0.438982 0.008087
C15   C     C_R   0.237766 0.540660 0.439551 0.197123
C16   C     C_R   0.500209 0.499896 0.340054 0.561766
C17   C     C_R   0.209383 0.492506 0.503150 0.159488
C18   C     C_3   0.446701 0.449674 0.950996 0.259454
C19   C     C_3   0.505343 0.601269 0.950644 0.253097
C20   C     C_3   0.496877 0.599259 0.049958 0.239085
C21   C     C_3   0.453972 0.433371 0.049172 0.254922
C22   C     C_1   0.501675 0.499326 0.250904 0.151519
C23   C     C_R   0.971151 0.593512 0.629970 0.047790
C24   C     C_3   0.503113 0.498697 0.916287 -0.084392
C25   C     C_3   0.505317 0.496254 0.083395 -0.133381
C26   C     C_3   0.566010 0.457812 0.049172 -0.022288
C27   C     C_3   0.558724 0.444371 0.948459 0.214473
C28   C     C_1   0.503379 0.497934 0.175686 0.131484
C29   C     C_1   0.501727 0.499588 0.824277 0.115658
C30   C     C_R   0.390939 0.500061 0.500346 0.563996
C31   C     C_1   0.500813 0.500021 0.749105 0.129780
C32   C     C_3   0.509001 0.946320 0.406296 0.285463
C33   C     C_3   0.498316 0.054073 0.405970 0.276984
C34   C     C_R   0.940295 0.546122 0.566909 -0.006213
C35   C     C_3   0.549059 0.944377 0.561995 0.087186
C36   C     C_3   0.555056 0.054335 0.549912 0.069064
C37   C     C_3   0.500551 0.907461 0.499226 -0.121597
C38   C     C_3   0.500303 0.092478 0.500029 -0.106812
C39   C     C_3   0.447200 0.052723 0.548364 0.017929
C40   C     C_3   0.442543 0.946652 0.535255 -0.002049
C41   C     C_1   0.499204 0.195430 0.498961 0.318348
C42   C     C_1   0.499293 0.804569 0.498680 0.296898
C43   C     C_R   0.119856 0.434882 0.451754 0.491285
C44   C     C_R   0.120533 0.549008 0.558133 0.458983
C45   C     C_R   0.969963 0.492554 0.506883 -0.053468
C46   C     C_R   0.060749 0.545728 0.565249 0.026594
C47   C     C_R   0.030145 0.492072 0.506275 -0.064174
C48   C     C_R   0.059886 0.438077 0.446641 0.010809
C49   C     C_2   0.326316 0.593933 0.369895 0.628154
C50   C     C_2   0.587622 0.369735 0.090891 0.664841
C51   C     C_2   0.614302 0.521660 0.078119 0.632323
C52   C     C_2   0.941998 0.639336 0.700944 0.687912
C53   C     C_2   0.533504 0.912576 0.652331 0.588196
C54   C     C_2   0.565621 0.102778 0.634007 0.661472
C55   C     C_2   0.938772 0.346788 0.313360 0.660385
C56   C     C_R   0.939321 0.439917 0.447239 0.015155
C57   C     C_2   0.058967 0.344839 0.312893 0.658902
C58   C     C_2   0.795270 0.603483 0.381187 0.671216
C59   C     C_2   0.209118 0.400046 0.635079 0.665557
C60   C     C_R   0.969240 0.390333 0.384531 0.026490
C61   C     C_R   0.029191 0.389305 0.384314 0.024672
C62   C     C_R   0.880383 0.550701 0.561177 0.481476
Cu1   Cu    Cu3+1 0.500070 0.410080 0.500090 1.190406
Cu2   Cu    Cu3+1 0.500070 0.589920 0.500090 1.197463
H1    H     H_    0.434589 0.916202 0.597937 0.168400
H2    H     H_    0.107139 0.360665 0.209227 0.385692
H3    H     H_    0.807984 0.633674 0.259085 0.379527
H4    H     H_    0.146234 0.312820 0.665780 0.372959
H5    H     H_    0.454813 0.063072 0.616128 0.207223
H6    H     H_    0.342593 0.601080 0.245896 0.390396
H7    H     H_    0.647638 0.271143 0.091637 0.387450
H8    H     H_    0.657834 0.573235 0.176786 0.401816
H9    H     H_    0.923881 0.757263 0.760242 0.382254
H10   H     H_    0.501265 0.939704 0.767448 0.398835
H11   H     H_    0.541318 0.195718 0.720688 0.398195
H12   H     H_    0.891550 0.364183 0.209029 0.381218
N1    N     N_R   0.148285 0.491997 0.504452 -0.384671
N2    N     N_R   0.851794 0.496088 0.506464 -0.382955
N3    N     N_1   0.498850 0.275030 0.498610 -0.123552
N4    N     N_1   0.498850 0.724970 0.498610 -0.121808
O1    O     O_R   0.500060 0.424030 0.620640 -0.468824
O2    O     O_2   0.151319 0.609383 0.602752 -0.374513
O3    O     O_2   0.850397 0.610014 0.608427 -0.384536
O4    O     O_2   0.848067 0.381713 0.405098 -0.403056
O5    O     O_2   0.353259 0.663359 0.384533 -0.412565
O6    O     O_R   0.321496 0.561528 0.287688 -0.594340
O7    O     O_2   0.569240 0.344148 0.158723 -0.427443
O8    O     O_R   0.635341 0.325779 0.057253 -0.571875
O9    O     O_2   0.646033 0.560418 0.029400 -0.360509
O10   O     O_R   0.624331 0.531961 0.164393 -0.640354
O11   O     O_2   0.915596 0.594063 0.752218 -0.396832
O12   O     O_R   0.500060 0.575970 0.620640 -0.484023
O13   O     O_R   0.945298 0.734001 0.709296 -0.586020
O14   O     O_2   0.538518 0.831935 0.670686 -0.419285
O15   O     O_R   0.510261 0.971347 0.712475 -0.671954
O16   O     O_2   0.607410 0.082116 0.675645 -0.346709
O17   O     O_R   0.528713 0.169862 0.664645 -0.666762
O18   O     O_2   0.937784 0.263787 0.306882 -0.383638
O19   O     O_R   0.911020 0.401345 0.254348 -0.613488
O20   O     O_2   0.057944 0.261941 0.305372 -0.383379
O21   O     O_R   0.088359 0.398402 0.254816 -0.596534
O22   O     O_2   0.834575 0.652251 0.403571 -0.435255
O23   O     O_R   0.582180 0.424050 0.500100 -0.473161
O24   O     O_R   0.782212 0.595395 0.295879 -0.603210
O25   O     O_2   0.221494 0.412805 0.708712 -0.377607
O26   O     O_R   0.164667 0.340958 0.614458 -0.640968
O27   O     O_R   0.582180 0.575950 0.500100 -0.461414
O28   O     O_R   0.500060 0.424100 0.379510 -0.483029
O29   O     O_R   0.500060 0.575900 0.379510 -0.473041
O30   O     O_R   0.417940 0.424080 0.500050 -0.467235
O31   O     O_R   0.417940 0.575920 0.500050 -0.472498
O32   O     O_2   0.150072 0.374843 0.405610 -0.377445

loop_
_geom_bond_atom_site_label_1
_geom_bond_atom_site_label_2
_ccdc_geom_bond_type
C20   C25   S    
Cu1   Cu2   S    
C3    C5    A    
Br24  C18   S    
C54   O16   D    
C62   O3    S    
Cu1   O30   S    
C56   C60   A    
C35   C53   S    
Cu1   O23   S    
C48   C61   A    
C1    O1    A    
H10   O15   S    
C15   C17   A    
C3    C9    A    
Br16  C7    S    
C16   C22   S    
C36   C54   S    
C5    C6    A    
Br7   C32   S    
C11   C13   A    
C13   C14   A    
Cu2   O29   S    
C59   O25   D    
Br11  C39   S    
H7    O8    S    
C26   C50   S    
Br8   C35   S    
C50   O8    S    
C55   C60   S    
C49   O6    S    
C30   O30   A    
C22   C28   T    
C52   O11   D    
Br23  C19   S    
C32   C33   S    
C12   C23   A    
C36   C38   S    
C10   C11   A    
C45   C47   A    
C54   O17   S    
C58   O22   D    
Br20  C20   S    
C37   C42   S    
C24   C27   S    
C7    C8    A    
Br2   C20   S    
H12   O19   S    
C46   C47   A    
C51   O9    D    
C19   C24   S    
C17   N1    S    
C4    O23   A    
H11   O17   S    
Br13  C32   S    
C16   O28   A    
C35   C36   S    
Br6   C33   S    
H8    O10   S    
C10   C17   A    
C44   O2    S    
C40   H1    S    
C34   C62   A    
Cu2   N4    S    
C12   C46   A    
Br15  C5    S    
C29   C31   T    
C24   C29   S    
C55   O18   D    
C35   C37   S    
H3    O24   S    
Br4   C27   S    
C9    N2    S    
C42   N4    T    
C33   C38   S    
C14   C15   A    
C60   C61   A    
C59   O26   S    
C53   O14   D    
C1    O12   A    
C2    O4    S    
C50   O7    D    
C57   O20   D    
C55   O19   S    
Br3   C21   S    
C2    C56   A    
Br21  C18   S    
C18   C21   S    
Cu1   O28   S    
Cu2   O12   S    
C37   C40   S    
H4    O26   S    
Br18  C15   S    
C38   C39   S    
Br22  C19   S    
Cu1   O1    S    
C21   C25   S    
C25   C28   S    
C26   C27   S    
C51   O10   S    
C18   C24   S    
C44   N1    A    
Br12  C11   S    
C58   O24   S    
Cu1   N3    S    
C13   C30   S    
C19   C20   S    
C10   C59   S    
C41   N3    T    
C62   N2    A    
C43   C48   A    
C43   N1    A    
Br14  C33   S    
C38   C41   S    
C57   O21   S    
C3    C58   S    
Br10  C40   S    
C1    C31   S    
Cu2   O31   S    
C53   O15   S    
C23   C52   S    
Br19  C21   S    
C34   C45   A    
C49   O5    D    
C16   O29   A    
C39   H5    S    
C52   O13   S    
Br9   C36   S    
C8    C9    A    
C4    O27   A    
C4    C6    S    
C43   O32   S    
C47   C48   A    
C26   C51   S    
C2    N2    A    
C23   C34   A    
C6    C7    A    
C30   O31   A    
H2    O21   S    
H6    O6    S    
H9    O13   S    
C39   C40   S    
C44   C46   A    
C25   C26   S    
Br17  C8    S    
C32   C37   S    
Br5   C27   S    
C45   C56   A    
Cu2   O27   S    
C57   C61   S    
Br1   C12   S    
C14   C49   S    
