data_mof_unit_55918.cif
_audit_creation_date              2012-12-10T19:22:02-0500
_audit_creation_method            fapswitch 2.2
_symmetry_space_group_name_H-M    P1
_symmetry_Int_Tables_number       1
_space_group_crystal_system       triclinic
_cell_length_a                    8.733308
_cell_length_b                    17.752094
_cell_length_c                    16.454043
_cell_angle_alpha                 89.944105
_cell_angle_beta                  97.993828
_cell_angle_gamma                 90.123023
_cell_volume                      2526.15060434

loop_
_atom_site_label
_atom_site_type_symbol
_atom_type_description
_atom_site_fract_x
_atom_site_fract_y
_atom_site_fract_z
_atom_type_partial_charge
C1    C     C_R   0.499879 0.355430 0.500049 0.848537
C2    C     C_R   0.500314 0.644611 0.499990 0.850726
C3    C     C_1   0.502166 0.966248 0.500972 0.205969
C4    C     C_1   0.502080 0.033939 0.501065 0.206909
C5    C     C_R   0.600929 0.549156 0.835592 0.341672
C6    C     C_R   0.395511 0.452883 0.164023 0.342006
C7    C     C_R   0.596980 0.547451 0.749274 0.013178
C8    C     C_R   0.399499 0.454397 0.250358 0.011506
C9    C     C_R   0.404212 0.453041 0.736606 0.072982
C10   C     C_R   0.599276 0.545270 0.263728 0.078145
C11   C     C_R   0.403507 0.452818 0.822246 -0.278082
C12   C     C_R   0.600114 0.545580 0.178099 -0.269111
C13   C     C_R   0.502139 0.501042 0.873176 -0.001925
C14   C     C_R   0.497881 0.499262 0.126803 -0.005724
C15   C     C_1   0.500446 0.500418 0.962764 0.154386
C16   C     C_1   0.499504 0.500069 0.037210 0.156340
C17   C     C_R   0.203297 0.499972 0.479107 0.896438
C18   C     C_R   0.796702 0.500004 0.520892 0.893820
C19   C     C_2   0.037713 0.500000 0.467425 -0.347084
C20   C     C_2   0.962286 0.499943 0.532573 -0.347328
C21   C     C_R   0.552896 0.845236 0.573670 0.304185
C22   C     C_R   0.562146 0.154757 0.438046 0.313163
C23   C     C_R   0.549415 0.766566 0.572850 -0.207847
C24   C     C_R   0.557998 0.233420 0.437597 -0.205111
C25   C     C_R   0.501101 0.727245 0.500132 -0.176508
C26   C     C_R   0.500143 0.272874 0.500206 -0.151667
C27   C     C_R   0.453643 0.767040 0.427631 -0.224775
C28   C     C_R   0.443084 0.233337 0.563177 -0.243048
C29   C     C_R   0.451253 0.845701 0.427301 0.403821
C30   C     C_R   0.440927 0.154668 0.563593 0.373815
C31   C     C_R   0.502181 0.885297 0.500640 -0.155661
C32   C     C_R   0.501890 0.114891 0.500970 -0.138222
Cu1   Cu    Cu3+1 0.499990 0.499980 0.580420 0.972658
Cu2   Cu    Cu3+1 0.500010 0.500020 0.419580 0.973909
H1    H     H_    0.977647 0.500100 0.404929 0.183776
H2    H     H_    0.022352 0.499839 0.595068 0.184635
H3    H     H_    0.586387 0.735730 0.628961 0.205758
H4    H     H_    0.602313 0.264183 0.388951 0.205435
H5    H     H_    0.416513 0.736576 0.371328 0.213639
H6    H     H_    0.398177 0.264097 0.611478 0.176671
H7    H     H_    0.672011 0.584210 0.720180 0.168352
H8    H     H_    0.321543 0.419044 0.279147 0.174492
H9    H     H_    0.327539 0.415460 0.698407 0.138801
H10   H     H_    0.678643 0.581444 0.302189 0.145650
H11   H     H_    0.326102 0.415017 0.848559 0.189524
H12   H     H_    0.680367 0.582000 0.152074 0.193773
N1    N     N_R   0.499960 0.499970 0.701210 -0.202399
N2    N     N_R   0.500040 0.500030 0.298790 -0.205699
O1    O     O_R   0.499990 0.391240 0.567930 -0.586181
O2    O     O_R   0.500010 0.608760 0.432070 -0.585802
O3    O     O_R   0.500000 0.391270 0.432120 -0.581410
O4    O     O_R   0.500000 0.608730 0.567880 -0.583214
O5    O     O_R   0.274830 0.499990 0.552240 -0.581724
O6    O     O_R   0.725170 0.500010 0.447760 -0.583412
O7    O     O_R   0.274840 0.500020 0.416420 -0.585046
O8    O     O_R   0.725160 0.499980 0.583580 -0.583850
S1    S     S_3+6 0.618372 0.891288 0.667597 0.103998
O9    O     O_2   0.479922 0.917709 0.704396 -0.135062
O10   O     O_2   0.709922 0.838145 0.726718 -0.212718
O11   O     O_3   0.729499 0.966015 0.652164 -0.462489
H13   H     H_    0.813375 0.945381 0.624008 0.353973
S2    S     S_3+6 0.641021 0.108469 0.358051 0.100030
O12   O     O_2   0.510243 0.081667 0.295734 -0.132021
O13   O     O_2   0.740432 0.161585 0.316885 -0.233139
O14   O     O_3   0.748060 0.034011 0.394506 -0.469819
H14   H     H_    0.827069 0.054985 0.437622 0.352208
S3    S     S_3+6 0.387197 0.892090 0.333459 0.076873
O15   O     O_2   0.287198 0.958278 0.347677 -0.231974
O16   O     O_2   0.526235 0.918961 0.297193 -0.174415
O17   O     O_3   0.285193 0.832328 0.267386 -0.517394
H15   H     H_    0.259874 0.861502 0.215929 0.407178
S4    S     S_3+6 0.364148 0.108367 0.644403 0.084069
O18   O     O_2   0.265497 0.042706 0.611686 -0.217855
O19   O     O_2   0.495505 0.080032 0.705407 -0.178704
O20   O     O_3   0.255383 0.167804 0.691725 -0.491897
H16   H     H_    0.328766 0.193619 0.734079 0.356971
S5    S     S_3+6 0.729608 0.611267 0.894974 0.038117
O21   O     O_2   0.826751 0.653709 0.841660 -0.242008
O22   O     O_2   0.637760 0.666140 0.938106 -0.243306
O23   O     O_3   0.845218 0.561137 0.965324 -0.504199
H17   H     H_    0.904580 0.599213 0.000783 0.391169
S6    S     S_3+6 0.261663 0.393525 0.104114 0.033595
O24   O     O_2   0.174673 0.345785 0.157857 -0.239898
O25   O     O_2   0.149435 0.441444 0.049067 -0.266724
O26   O     O_3   0.357423 0.337481 0.046092 -0.500138
H18   H     H_    0.275879 0.312812 0.007184 0.391737

loop_
_geom_bond_atom_site_label_1
_geom_bond_atom_site_label_2
_ccdc_geom_bond_type
C6    S6    S    
C27   C29   A    
C19   C20   D    
S5    O21   D    
Cu1   O4    S    
C21   C31   A    
Cu2   O3    S    
C22   C32   A    
C8    H8    S    
O26   H18   S    
S1    O10   D    
C6    C14   A    
C28   H6    S    
Cu1   O1    S    
C15   C16   T    
C18   C20   S    
S2    O13   D    
C2    O2    A    
C29   S3    S    
C27   H5    S    
C24   H4    S    
O17   H15   S    
C17   O7    A    
C5    C13   A    
C18   O8    A    
Cu1   O8    S    
C23   C25   A    
Cu2   O7    S    
S4    O20   S    
C10   C12   A    
S5    O22   D    
C21   C23   A    
Cu1   O5    S    
Cu2   O2    S    
C9    H9    S    
C10   H10   S    
S3    O15   D    
S4    O19   D    
C5    C7    A    
O23   H17   S    
S1    O11   S    
C6    C8    A    
C23   H3    S    
O11   H13   S    
S3    O16   D    
C7    N1    A    
O20   H16   S    
C8    N2    A    
C21   S1    S    
S2    O12   D    
C22   S2    S    
C1    O3    A    
Cu1   Cu2   S    
C3    C31   S    
C9    C11   A    
C4    C32   S    
C2    O4    A    
C12   H12   S    
C12   C14   A    
Cu2   O6    S    
S6    O25   D    
C13   C15   S    
C10   N2    A    
C1    C26   S    
Cu1   N1    S    
C22   C24   A    
C11   H11   S    
Cu2   N2    S    
O14   H14   S    
C5    S5    S    
C3    C4    T    
C17   O5    A    
S5    O23   S    
S2    O14   S    
C24   C26   A    
S4    O18   D    
C30   S4    S    
C9    N1    A    
C25   C27   A    
S6    O26   S    
C26   C28   A    
S3    O17   S    
C28   C30   A    
C29   C31   A    
C19   H1    S    
C30   C32   A    
C11   C13   A    
S1    O9    D    
C17   C19   S    
C2    C25   S    
C14   C16   S    
C7    H7    S    
C18   O6    A    
C20   H2    S    
S6    O24   D    
C1    O1    A    
