data_mof_unit_58604.cif
_audit_creation_date              2012-12-10T17:17:31-0500
_audit_creation_method            fapswitch 2.2
_symmetry_space_group_name_H-M    P1
_symmetry_Int_Tables_number       1
_space_group_crystal_system       triclinic
_cell_length_a                    10.205913
_cell_length_b                    10.666418
_cell_length_c                    12.493729
_cell_angle_alpha                 91.046163
_cell_angle_beta                  110.330121
_cell_angle_gamma                 95.219785
_cell_volume                      1268.24919038

loop_
_atom_site_label
_atom_site_type_symbol
_atom_type_description
_atom_site_fract_x
_atom_site_fract_y
_atom_site_fract_z
_atom_type_partial_charge
C1    C     C_R   0.047838 0.732871 0.487799 0.924568
C2    C     C_R   0.220120 0.574566 0.829714 -0.144306
C3    C     C_2   0.061305 0.864018 0.461507 -0.377327
C4    C     C_R   0.138414 0.527333 0.711766 0.868824
C5    C     C_2   0.946915 0.926257 0.434342 -0.283435
C6    C     C_2   0.907191 0.131645 0.486621 -0.417429
C7    C     C_2   0.958451 0.061216 0.423187 0.490579
C8    C     C_2   0.430761 0.518516 0.500483 -0.147448
C9    C     C_2   0.567328 0.487545 0.490178 -0.124056
C10   C     C_R   0.945548 0.266555 0.501165 0.994217
C11   C     C_R   0.865257 0.491269 0.285831 0.894285
C12   C     C_R   0.443947 0.597132 0.985583 0.106371
C13   C     C_R   0.788477 0.530188 0.969067 -0.217923
C14   C     C_R   0.795295 0.508362 0.163724 -0.160642
C15   C     C_R   0.151444 0.595519 0.907071 -0.151772
C16   C     C_R   0.228932 0.624931 0.021971 -0.097545
C17   C     C_R   0.373599 0.619614 0.062585 -0.202921
C18   C     C_R   0.367856 0.596279 0.867839 0.086476
C19   C     C_R   0.585832 0.572097 0.020032 0.080099
C20   C     C_R   0.653400 0.567827 0.938601 0.092721
C21   C     C_R   0.583709 0.599562 0.827096 -0.221239
C22   C     C_R   0.442264 0.616146 0.792577 -0.184297
C23   C     C_R   0.657585 0.540156 0.130769 -0.319259
C24   C     C_R   0.861279 0.501643 0.081148 0.430542
H1    H     H_    0.846430 0.881444 0.433513 0.176771
H2    H     H_    0.604919 0.535838 0.192063 0.183389
H3    H     H_    0.038375 0.590382 0.878468 0.156632
H4    H     H_    0.428380 0.637686 0.153274 0.132760
H5    H     H_    0.176609 0.647789 0.080391 0.145619
H6    H     H_    0.391489 0.645334 0.707285 0.159418
H7    H     H_    0.057853 0.520251 0.168690 0.335823
H8    H     H_    0.050824 0.047860 0.311696 0.335831
H9    H     H_    0.844281 0.088541 0.533443 0.109367
H10   H     H_    0.162248 0.909418 0.464228 0.164413
H11   H     H_    0.566337 0.407887 0.434525 0.166906
H12   H     H_    0.430623 0.604352 0.547669 0.148670
H13   H     H_    0.682517 0.630572 0.594363 0.152415
H14   H     H_    0.318872 0.365419 0.411053 0.190914
H15   H     H_    0.636973 0.606889 0.765894 0.134964
H16   H     H_    0.837104 0.522206 0.905293 0.153073
N1    N     N_2   0.313640 0.446500 0.454900 -0.181712
N2    N     N_2   0.686360 0.553430 0.545150 -0.195666
O1    O     O_R   0.936910 0.692950 0.509080 -0.605850
O2    O     O_3   0.029318 0.115798 0.356320 -0.730900
O3    O     O_R   0.138320 0.658600 0.480130 -0.631869
O4    O     O_R   0.002900 0.525670 0.675280 -0.610350
O5    O     O_R   0.204310 0.491320 0.646330 -0.606934
O6    O     O_R   0.861680 0.341400 0.519870 -0.616677
O7    O     O_R   0.063090 0.307050 0.490920 -0.530489
O8    O     O_R   0.795690 0.508680 0.353670 -0.621145
O9    O     O_R   0.997100 0.474330 0.324720 -0.590453
O10   O     O_3   0.993123 0.463622 0.105162 -0.752721
Zn1   Zn    Zn3+2 0.865520 0.522940 0.519330 0.932573
Zn2   Zn    Zn3+2 0.134480 0.477060 0.480670 0.976143

loop_
_geom_bond_atom_site_label_1
_geom_bond_atom_site_label_2
_ccdc_geom_bond_type
C12   C17   A    
C6    C10   S    
C2    C4    S    
C24   O10   S    
C6    C7    D    
C2    C18   A    
C19   C23   A    
C19   C20   A    
C21   H15   S    
C6    H9    S    
H7    O10   S    
O9    Zn2   S    
C18   C22   A    
H8    O2    S    
C13   C20   A    
C11   O8    A    
C4    O4    A    
C7    O2    S    
C20   C21   A    
C2    C15   A    
C17   H4    S    
C1    O3    A    
C9    N2    D    
O5    Zn2   S    
C5    H1    S    
O4    Zn1   S    
C14   C23   A    
O1    Zn1   S    
O3    Zn2   S    
N2    Zn1   S    
C10   O6    A    
O6    Zn1   S    
C11   C14   S    
N1    Zn2   S    
O8    Zn1   S    
C11   O9    A    
C14   C24   A    
C15   C16   A    
C8    N1    D    
C12   C19   A    
H14   N1    S    
C5    C7    S    
C8    H12   S    
C23   H2    S    
C12   C18   A    
H13   N2    S    
C9    H11   S    
C16   C17   A    
C13   H16   S    
C22   H6    S    
C3    H10   S    
C3    C5    D    
C16   H5    S    
C21   C22   A    
C10   O7    A    
C15   H3    S    
C1    O1    A    
O7    Zn2   S    
C13   C24   A    
C8    C9    S    
C1    C3    S    
C4    O5    A    
