data_mof_unit_16180.cif
_audit_creation_date              2012-12-11T15:56:46-0500
_audit_creation_method            fapswitch 2.2
_symmetry_space_group_name_H-M    P1
_symmetry_Int_Tables_number       1
_space_group_crystal_system       triclinic
_cell_length_a                    17.41865
_cell_length_b                    24.336996
_cell_length_c                    14.969788
_cell_angle_alpha                 90.038149
_cell_angle_beta                  126.081382
_cell_angle_gamma                 90.037516
_cell_volume                      5128.67818865

loop_
_atom_site_label
_atom_site_type_symbol
_atom_type_description
_atom_site_fract_x
_atom_site_fract_y
_atom_site_fract_z
_atom_type_partial_charge
C1    C     C_R   0.307557 0.122418 0.906515 -0.140421
C2    C     C_R   0.556871 0.152370 0.908677 -0.164846
C3    C     C_R   0.810005 0.365001 0.998813 0.021581
C4    C     C_R   0.583926 0.000079 0.377029 -0.093731
C5    C     C_R   0.083927 0.500079 0.377029 -0.093762
C6    C     C_R   0.192078 0.999463 0.636052 0.042460
C7    C     C_R   0.692026 0.499470 0.636093 0.042475
C8    C     C_R   0.520092 0.046051 0.752352 -0.138346
C9    C     C_R   0.520094 0.953982 0.752329 -0.137878
C10   C     C_R   0.020092 0.546050 0.752353 -0.138345
C11   C     C_R   0.020094 0.453982 0.752329 -0.137883
C12   C     C_R   0.769589 0.954081 0.248256 -0.144840
C13   C     C_R   0.057028 0.347678 0.908523 -0.164984
C14   C     C_R   0.769364 0.046454 0.249016 -0.130735
C15   C     C_R   0.269579 0.454079 0.248216 -0.144714
C16   C     C_R   0.269361 0.546448 0.248974 -0.130834
C17   C     C_R   0.056872 0.652369 0.908676 -0.164845
C18   C     C_R   0.550462 0.000030 0.726358 0.027656
C19   C     C_R   0.050462 0.500030 0.726358 0.027660
C20   C     C_R   0.824506 0.000491 0.273134 0.029117
C21   C     C_R   0.324494 0.500484 0.273045 0.029055
C22   C     C_R   0.620159 0.183276 0.000632 0.003668
C23   C     C_R   0.620417 0.816858 0.000420 0.003175
C24   C     C_R   0.120160 0.683275 0.000632 0.003667
C25   C     C_R   0.307514 0.877550 0.906601 -0.140213
C26   C     C_R   0.120415 0.316858 0.000418 0.003178
C27   C     C_3   0.034914 0.948793 0.484968 -0.167622
C28   C     C_3   0.022117 0.035050 0.518179 -0.153745
C29   C     C_3   0.534696 0.448868 0.485357 -0.167579
C30   C     C_3   0.522152 0.535293 0.517891 -0.153960
C31   C     C_3   0.956574 0.984767 0.471961 -0.136902
C32   C     C_3   0.456450 0.485076 0.472021 -0.136698
C33   C     C_3   0.925808 0.000746 0.356111 0.183193
C34   C     C_3   0.425787 0.500733 0.356069 0.183204
C35   C     C_3   0.003164 0.964705 0.367836 -0.152288
C36   C     C_R   0.807559 0.622421 0.906517 -0.140394
C37   C     C_3   0.990937 0.051201 0.401776 -0.171248
C38   C     C_3   0.503054 0.464459 0.368131 -0.152550
C39   C     C_3   0.491066 0.551124 0.401375 -0.171144
C40   C     C_3   0.070909 0.015286 0.415984 -0.136842
C41   C     C_3   0.570952 0.514973 0.415917 -0.136709
C42   C     C_R   0.400157 0.878016 0.091794 -0.101704
C43   C     C_R   0.400174 0.122100 0.091753 -0.101472
C44   C     C_R   0.900158 0.378015 0.091794 -0.101710
C45   C     C_R   0.900176 0.622100 0.091754 -0.101477
C46   C     C_3   0.100081 0.999192 0.530938 0.182867
C47   C     C_R   0.807515 0.377547 0.906601 -0.140188
C48   C     C_3   0.600024 0.499201 0.530975 0.182835
C49   C     C_3   0.249652 0.822115 0.099203 -0.349776
C50   C     C_3   0.249381 0.178020 0.098732 -0.350125
C51   C     C_3   0.749661 0.322112 0.099211 -0.349780
C52   C     C_3   0.749389 0.678023 0.098739 -0.350124
C53   C     C_3   0.694225 0.272179 0.097299 -0.454346
C54   C     C_3   0.694133 0.727996 0.096875 -0.454113
C55   C     C_3   0.194218 0.772180 0.097293 -0.454343
C56   C     C_3   0.194126 0.227994 0.096868 -0.454111
C57   C     C_3   0.806728 0.266105 0.005419 -0.410348
C58   C     C_R   0.650795 0.151716 0.092398 -0.158214
C59   C     C_3   0.807183 0.734031 0.005774 -0.410111
C60   C     C_3   0.306733 0.766107 0.005428 -0.410341
C61   C     C_3   0.307185 0.234030 0.005779 -0.410104
C62   C     C_3   0.151297 0.818188 0.892027 -0.398166
C63   C     C_3   0.151564 0.181950 0.891599 -0.399641
C64   C     C_3   0.651294 0.318191 0.892034 -0.398167
C65   C     C_3   0.651564 0.681949 0.891605 -0.399629
C66   C     C_3   0.254657 0.819414 0.998971 0.330428
C67   C     C_3   0.254785 0.180716 0.998813 0.331591
C68   C     C_3   0.754658 0.319413 0.998973 0.330433
C69   C     C_R   0.650929 0.848399 0.092287 -0.157579
C70   C     C_3   0.754788 0.680717 0.998816 0.331586
C71   C     C_3   0.666667 0.233326 0.999872 0.348940
C72   C     C_3   0.666861 0.766810 0.999632 0.349072
C73   C     C_3   0.166667 0.733326 0.999871 0.348940
C74   C     C_3   0.166859 0.266809 0.999629 0.349069
C75   C     C_3   0.759913 0.215654 0.014616 -0.105304
C76   C     C_3   0.760287 0.784501 0.014715 -0.105728
C77   C     C_3   0.259917 0.715655 0.014623 -0.105303
C78   C     C_3   0.260288 0.284499 0.014720 -0.105728
C79   C     C_3   0.599982 0.266855 0.891452 -0.404126
C80   C     C_R   0.150796 0.651716 0.092397 -0.158225
C81   C     C_3   0.600247 0.733221 0.891086 -0.403241
C82   C     C_3   0.099984 0.766853 0.891447 -0.404128
C83   C     C_3   0.100247 0.233222 0.891080 -0.403233
C84   C     C_3   0.620884 0.051330 0.645888 -0.400334
C85   C     C_3   0.620668 0.948770 0.645601 -0.400721
C86   C     C_3   0.120886 0.551329 0.645890 -0.400331
C87   C     C_3   0.120667 0.448769 0.645600 -0.400718
C88   C     C_R   0.561228 0.045692 0.309136 0.139979
C89   C     C_R   0.561298 0.954405 0.309138 0.139560
C90   C     C_R   0.061229 0.545692 0.309137 0.139982
C91   C     C_R   0.150926 0.348398 0.092286 -0.157598
C92   C     C_R   0.061299 0.454405 0.309138 0.139560
C93   C     C_3   0.628558 0.051226 0.548892 -0.445418
C94   C     C_3   0.628347 0.948916 0.548614 -0.445190
C95   C     C_3   0.128560 0.551226 0.548893 -0.445423
C96   C     C_3   0.128347 0.448916 0.548613 -0.445193
C97   C     C_3   0.464667 0.000031 0.527875 -0.497115
C98   C     C_3   0.964668 0.500032 0.527875 -0.497140
C99   C     C_3   0.565125 0.000039 0.639044 0.300189
C100  C     C_3   0.065126 0.500039 0.639045 0.300197
C101  C     C_3   0.577725 0.000075 0.473075 0.207638
C102  C     C_R   0.557029 0.847678 0.908524 -0.164988
C103  C     C_3   0.077726 0.500075 0.473075 0.207652
C104  C     C_3   0.469986 0.000062 0.428956 0.816903
C105  C     C_3   0.969986 0.500063 0.428956 0.816911
C106  C     C_R   0.240550 0.953760 0.696345 -0.138100
C107  C     C_R   0.240700 0.045612 0.695347 -0.151883
C108  C     C_R   0.740518 0.453763 0.696366 -0.138204
C109  C     C_R   0.740677 0.545616 0.695371 -0.151789
C110  C     C_R   0.310070 0.135102 0.998712 0.020613
C111  C     C_R   0.310004 0.865003 0.998812 0.021584
C112  C     C_R   0.810072 0.635103 0.998714 0.020619
Cl1   Cl    Cl    0.406070 0.059096 0.344593 -0.725527
Cl2   Cl    Cl    0.405834 0.941046 0.344200 -0.724843
Cl3   Cl    Cl    0.906071 0.559096 0.344594 -0.725526
Cl4   Cl    Cl    0.905834 0.441047 0.344200 -0.724853
H1    H     H_    0.251266 0.129956 0.820845 0.091118
H2    H     H_    0.971180 0.093048 0.365450 0.106633
H3    H     H_    0.512980 0.165221 0.823311 0.090444
H4    H     H_    0.013201 0.334775 0.823120 0.090539
H5    H     H_    0.012981 0.665221 0.823310 0.090446
H6    H     H_    0.908169 0.972339 0.493837 0.109158
H7    H     H_    0.407967 0.472905 0.493936 0.109166
H8    H     H_    0.689031 0.182440 0.856029 0.108742
H9    H     H_    0.734497 0.135096 0.958531 0.118948
H10   H     H_    0.689823 0.817448 0.856129 0.109063
H11   H     H_    0.734902 0.864960 0.958493 0.118250
H12   H     H_    0.189045 0.682439 0.856039 0.108745
H13   H     H_    0.492310 0.435773 0.303974 0.114483
H14   H     H_    0.234504 0.635096 0.958541 0.118945
H15   H     H_    0.189832 0.317450 0.856137 0.109064
H16   H     H_    0.234908 0.364960 0.958504 0.118255
H17   H     H_    0.570708 0.125246 0.356004 0.106720
H18   H     H_    0.677817 0.092275 0.419931 0.082699
H19   H     H_    0.571065 0.874834 0.355851 0.106371
H20   H     H_    0.678060 0.908121 0.419943 0.081025
H21   H     H_    0.070710 0.625246 0.356006 0.106724
H22   H     H_    0.177818 0.592274 0.419931 0.082682
H23   H     H_    0.071066 0.374834 0.355851 0.106370
H24   H     H_    0.471419 0.592902 0.364706 0.106703
H25   H     H_    0.178061 0.408121 0.419943 0.081033
H26   H     H_    0.120959 0.027634 0.396610 0.128555
H27   H     H_    0.621070 0.527067 0.396494 0.128632
H28   H     H_    0.321877 0.821519 0.178525 0.172726
H29   H     H_    0.321506 0.178548 0.178213 0.172730
H30   H     H_    0.821889 0.321513 0.178529 0.172717
H31   H     H_    0.821516 0.678554 0.178218 0.172727
H32   H     H_    0.214538 0.860852 0.096700 0.190799
H33   H     H_    0.251226 0.869764 0.821019 0.091118
H34   H     H_    0.213926 0.139308 0.095786 0.190250
H35   H     H_    0.714554 0.360849 0.096717 0.190807
H36   H     H_    0.713938 0.639311 0.095799 0.190256
H37   H     H_    0.129299 0.786265 0.088503 0.173389
H38   H     H_    0.129090 0.213943 0.087917 0.173272
H39   H     H_    0.629308 0.286264 0.088515 0.173392
H40   H     H_    0.629100 0.713945 0.087929 0.173273
H41   H     H_    0.739792 0.250838 0.178122 0.152645
H42   H     H_    0.739734 0.749367 0.177783 0.152796
H43   H     H_    0.239785 0.750841 0.178118 0.152649
H44   H     H_    0.751271 0.629964 0.820848 0.091100
H45   H     H_    0.239724 0.249363 0.177778 0.152794
H46   H     H_    0.882671 0.267119 0.078355 0.141373
H47   H     H_    0.883000 0.733051 0.079008 0.141208
H48   H     H_    0.382674 0.767122 0.078369 0.141369
H49   H     H_    0.383001 0.233048 0.079017 0.141205
H50   H     H_    0.809940 0.198746 0.099723 0.120566
H51   H     H_    0.810184 0.801537 0.099834 0.120627
H52   H     H_    0.309942 0.698748 0.099731 0.120552
H53   H     H_    0.310183 0.301534 0.099841 0.120614
H54   H     H_    0.149376 0.816619 0.816672 0.145502
H55   H     H_    0.751231 0.369756 0.821021 0.091095
H56   H     H_    0.149992 0.183620 0.816482 0.145414
H57   H     H_    0.649365 0.316625 0.816674 0.145489
H58   H     H_    0.649986 0.683616 0.816485 0.145404
H59   H     H_    0.428702 0.871050 0.177114 0.129441
H60   H     H_    0.428679 0.129143 0.177070 0.129335
H61   H     H_    0.928703 0.371051 0.177115 0.129443
H62   H     H_    0.928681 0.629143 0.177071 0.129337
H63   H     H_    0.112660 0.855845 0.886865 0.162465
H64   H     H_    0.112711 0.144249 0.885926 0.161783
H65   H     H_    0.612661 0.355848 0.886882 0.162469
H66   H     H_    0.053707 0.906761 0.520451 0.104272
H67   H     H_    0.612714 0.644247 0.885939 0.161794
H68   H     H_    0.034740 0.779254 0.883567 0.157586
H69   H     H_    0.034947 0.220736 0.883060 0.157533
H70   H     H_    0.534739 0.279256 0.883577 0.157586
H71   H     H_    0.534949 0.720735 0.883070 0.157534
H72   H     H_    0.576382 0.242449 0.816749 0.142545
H73   H     H_    0.576723 0.757615 0.816486 0.142402
H74   H     H_    0.076388 0.742445 0.816747 0.142545
H75   H     H_    0.076727 0.257617 0.816483 0.142402
H76   H     H_    0.806309 0.263020 0.930839 0.165149
H77   H     H_    0.031351 0.063667 0.581686 0.108474
H78   H     H_    0.807206 0.737071 0.931497 0.165163
H79   H     H_    0.306322 0.763020 0.930853 0.165148
H80   H     H_    0.307212 0.237071 0.931506 0.165164
H81   H     H_    0.584725 0.089830 0.641738 0.159441
H82   H     H_    0.584334 0.910261 0.641213 0.159539
H83   H     H_    0.084728 0.589830 0.641742 0.159440
H84   H     H_    0.084332 0.410261 0.641210 0.159539
H85   H     H_    0.693071 0.051721 0.725687 0.164208
H86   H     H_    0.692849 0.948375 0.725403 0.164139
H87   H     H_    0.193073 0.551720 0.725688 0.164209
H88   H     H_    0.553350 0.406903 0.521171 0.104275
H89   H     H_    0.192848 0.448373 0.725403 0.164141
H90   H     H_    0.704735 0.051792 0.581264 0.167796
H91   H     H_    0.704528 0.948369 0.581009 0.167418
H92   H     H_    0.204736 0.551791 0.581265 0.167789
H93   H     H_    0.204527 0.448368 0.581009 0.167414
H94   H     H_    0.595661 0.089841 0.503389 0.191756
H95   H     H_    0.595282 0.910307 0.502878 0.191869
H96   H     H_    0.095663 0.589841 0.503390 0.191758
H97   H     H_    0.095281 0.410307 0.502877 0.191870
H98   H     H_    0.424399 0.036436 0.524648 0.192132
H99   H     H_    0.531448 0.564113 0.581162 0.108414
H100  H     H_    0.424289 0.963593 0.524444 0.192873
H101  H     H_    0.924401 0.536438 0.524649 0.192134
H102  H     H_    0.924289 0.463595 0.524444 0.192865
H103  H     H_    0.226965 0.911720 0.667369 0.086640
H104  H     H_    0.226291 0.087487 0.665511 0.093185
H105  H     H_    0.726918 0.411725 0.667375 0.086689
H106  H     H_    0.726271 0.587490 0.665532 0.093141
H107  H     H_    0.525689 0.088622 0.737090 0.092093
H108  H     H_    0.525714 0.911411 0.737049 0.092150
H109  H     H_    0.025689 0.588622 0.737089 0.092094
H110  H     H_    0.992480 0.936222 0.303442 0.114555
H111  H     H_    0.025714 0.411411 0.737050 0.092152
H112  H     H_    0.793401 0.911919 0.264766 0.099913
H113  H     H_    0.792426 0.088767 0.265770 0.093700
H114  H     H_    0.293391 0.411917 0.264732 0.099892
H115  H     H_    0.292439 0.588759 0.265740 0.093774
H116  H     H_    0.694695 0.164544 0.177860 0.089708
H117  H     H_    0.694923 0.835664 0.177742 0.089941
H118  H     H_    0.194698 0.664543 0.177861 0.089715
H119  H     H_    0.194918 0.335662 0.177740 0.089943
H120  H     H_    0.513202 0.834774 0.823121 0.090540
N1    N     N_R   0.392450 0.103580 0.942190 -0.038340
N2    N     N_R   0.525490 0.971610 0.207550 -0.049934
N3    N     N_R   0.025490 0.528390 0.207550 -0.050040
N4    N     N_R   0.025490 0.471610 0.207550 -0.049933
N5    N     N_R   0.317450 0.971190 0.792000 -0.034385
N6    N     N_R   0.317450 0.028810 0.792000 -0.033673
N7    N     N_R   0.817450 0.471190 0.792000 -0.034374
N8    N     N_R   0.817450 0.528810 0.792000 -0.033673
N9    N     N_R   0.473900 0.028390 0.792280 -0.037112
N10   N     N_R   0.473900 0.971610 0.792280 -0.037259
N11   N     N_R   0.973900 0.528390 0.792280 -0.037118
N12   N     N_R   0.392450 0.896420 0.942190 -0.038802
N13   N     N_R   0.973900 0.471610 0.792280 -0.037264
N14   N     N_R   0.682310 0.971180 0.208170 -0.044900
N15   N     N_R   0.682310 0.028820 0.208170 -0.045434
N16   N     N_R   0.182310 0.471180 0.208170 -0.044915
N17   N     N_R   0.182310 0.528820 0.208170 -0.045439
N18   N     N_R   0.606470 0.103570 0.057210 -0.032176
N19   N     N_R   0.606470 0.896430 0.057210 -0.031718
N20   N     N_R   0.106470 0.603570 0.057210 -0.032169
N21   N     N_R   0.106470 0.396430 0.057210 -0.031718
N22   N     N_R   0.549740 0.896000 0.943240 -0.033863
N23   N     N_R   0.892450 0.603580 0.942190 -0.038344
N24   N     N_R   0.549740 0.104000 0.943240 -0.033808
N25   N     N_R   0.049740 0.396000 0.943240 -0.033861
N26   N     N_R   0.049740 0.604000 0.943240 -0.033807
N27   N     N_3   0.746687 0.173171 0.936668 -0.219072
N28   N     N_3   0.747295 0.826878 0.936843 -0.219424
N29   N     N_3   0.246698 0.673171 0.936680 -0.219074
N30   N     N_3   0.247301 0.326879 0.936853 -0.219421
N31   N     N_3   0.610354 0.097250 0.345829 -0.230009
N32   N     N_3   0.610636 0.902985 0.345804 -0.229904
N33   N     N_3   0.110355 0.597250 0.345829 -0.230008
N34   N     N_R   0.892450 0.396420 0.942190 -0.038800
N35   N     N_3   0.110636 0.402985 0.345804 -0.229903
N36   N     N_R   0.450490 0.896000 0.057360 -0.043207
N37   N     N_R   0.450490 0.104000 0.057360 -0.043145
N38   N     N_R   0.950490 0.396000 0.057360 -0.043207
N39   N     N_R   0.950490 0.604000 0.057360 -0.043146
N40   N     N_R   0.525490 0.028390 0.207550 -0.050042
Ni1   Ni    Ni4+2 0.433780 0.065390 0.868430 0.211003
Ni2   Ni    Ni4+2 0.433780 0.934610 0.868430 0.211300
Ni3   Ni    Ni4+2 0.933780 0.565390 0.868430 0.211011
Ni4   Ni    Ni4+2 0.933780 0.434610 0.868430 0.211306
Ni5   Ni    Ni4+2 0.565800 0.934190 0.131570 0.215375
Ni6   Ni    Ni4+2 0.565800 0.065810 0.131570 0.215788
Ni7   Ni    Ni4+2 0.065800 0.434190 0.131570 0.215377
Ni8   Ni    Ni4+2 0.065800 0.565810 0.131570 0.215785

loop_
_geom_bond_atom_site_label_1
_geom_bond_atom_site_label_2
_ccdc_geom_bond_type
C84   H85   S    
C2    N24   A    
C23   C72   S    
C5    C103  S    
C102  H120  S    
C16   C21   A    
N24   Ni1   S    
C79   H70   S    
N20   N26   A    
C65   H58   S    
C35   H110  S    
C23   C69   A    
C105  Cl4   S    
N23   Ni3   S    
C3    C68   S    
C47   N34   A    
C74   C83   S    
C72   C76   S    
C71   C79   S    
N38   Ni7   S    
C45   C112  A    
C39   C41   S    
H15   N30   S    
C77   H52   S    
C40   C46   S    
C28   C46   S    
C11   N13   A    
C98   C105  S    
C90   N3    A    
C78   N30   S    
N21   N25   A    
C95   H96   S    
C64   C68   S    
C30   C48   S    
C41   H27   S    
C29   C32   S    
C40   H26   S    
C42   H59   S    
C54   H40   S    
C24   C73   S    
C12   H112  S    
C23   C102  A    
C15   N16   A    
N26   Ni3   S    
N7    N8    A    
C49   H28   S    
C82   H68   S    
C95   H92   S    
C12   N14   A    
H11   N28   S    
C108  N7    A    
C76   H51   S    
C25   H33   S    
N5    N6    A    
C85   C94   S    
C36   N23   A    
N34   Ni4   S    
C17   N26   A    
N10   Ni2   S    
C69   H117  S    
C5    C92   A    
C87   H89   S    
C14   H113  S    
C26   C74   S    
C30   H99   S    
H14   N29   S    
C24   C80   A    
C37   H2    S    
N3    N4    A    
C94   C101  S    
C52   C54   S    
N4    Ni7   S    
C29   C38   S    
C36   C112  A    
C10   H109  S    
H12   N29   S    
C31   C33   S    
C107  N6    A    
N23   N39   A    
C43   C110  A    
C66   C111  S    
C30   C32   S    
C43   H60   S    
C86   C100  S    
C50   C67   S    
C10   C19   A    
N12   Ni2   S    
C5    C90   A    
N17   Ni8   S    
H8    N27   S    
C86   H83   S    
C51   C68   S    
C43   N37   A    
C55   H43   S    
C106  H103  S    
C76   N28   S    
N19   N22   A    
C60   C66   S    
C94   H95   S    
C29   H88   S    
N9    N10   A    
C87   C96   S    
C85   C99   S    
C45   N39   A    
C32   H7    S    
C12   C20   A    
C87   H84   S    
N2    N40   A    
C93   H90   S    
C89   N2    A    
C97   C99   S    
C95   C103  S    
H17   N31   S    
C63   C67   S    
N11   N13   A    
C59   H78   S    
C86   C95   S    
C62   H54   S    
C75   N27   S    
C3    C44   A    
C17   C24   A    
C56   C74   S    
C79   H72   S    
C57   H46   S    
C29   C48   S    
C27   C31   S    
C34   C39   S    
C91   H119  S    
C38   H13   S    
C80   H118  S    
C52   C70   S    
C57   H76   S    
C56   H38   S    
C44   N38   A    
C49   C66   S    
N16   Ni7   S    
C93   C101  S    
C60   C77   S    
C92   N35   S    
C62   C66   S    
C21   C34   S    
C109  N8    A    
C1    N1    A    
C26   C91   A    
C49   C55   S    
H23   N35   S    
C56   H45   S    
C97   H100  S    
C78   H53   S    
C50   C56   S    
C63   H64   S    
C7    C109  A    
N20   Ni8   S    
C63   C83   S    
C96   H97   S    
N15   Ni6   S    
C32   C34   S    
C44   H61   S    
C60   H48   S    
N1    Ni1   S    
C42   C111  A    
C2    C22   A    
C91   N21   A    
C14   C20   A    
C1    C110  A    
C54   H42   S    
C16   N17   A    
C61   C67   S    
C67   C110  S    
C65   C81   S    
N12   N36   A    
N18   N24   A    
C61   C78   S    
C52   H36   S    
C11   C19   A    
C4    C101  S    
N19   Ni5   S    
C87   C100  S    
C8    C18   A    
C28   H77   S    
C6    C106  A    
H10   N28   S    
C6    C107  A    
C103  C105  S    
C80   N20   A    
C1    H1    S    
C9    N10   A    
N14   Ni5   S    
C61   H80   S    
C81   H73   S    
C8    H107  S    
C70   C112  S    
C85   H86   S    
C38   C41   S    
C14   N15   A    
C104  Cl2   S    
C64   H65   S    
C45   H62   S    
C27   C46   S    
C17   H5    S    
C8    N9    A    
C53   H39   S    
C101  C104  S    
C98   C100  S    
C97   H98   S    
C98   H102  S    
C15   H114  S    
C74   C78   S    
N22   Ni2   S    
C64   C79   S    
C13   C26   A    
C96   C103  S    
C90   N33   S    
C18   C99   S    
C20   C33   S    
C106  N5    A    
C53   C71   S    
N18   Ni6   S    
C22   C71   S    
C62   H63   S    
C13   H4    S    
C50   H29   S    
N21   Ni7   S    
C4    C89   A    
C65   H67   S    
C83   H75   S    
N36   Ni5   S    
C55   H37   S    
C39   H24   S    
C92   N4    A    
H21   N33   S    
C96   H93   S    
C6    C46   S    
C52   H31   S    
N34   N38   A    
C34   C38   S    
C84   C99   S    
N5    Ni2   S    
C105  Cl3   S    
C28   C31   S    
N1    N37   A    
C94   H91   S    
C72   C81   S    
C31   H6    S    
N7    Ni4   S    
C22   C58   A    
C47   H55   S    
C19   C100  S    
C88   N31   S    
C9    C18   A    
C62   C82   S    
H25   N35   S    
C84   H81   S    
C37   C40   S    
N3    Ni8   S    
C16   H115  S    
C53   H41   S    
C51   H30   S    
N13   Ni4   S    
H20   N32   S    
C89   N32   S    
C27   C35   S    
C7    C48   S    
C57   C75   S    
C35   C40   S    
C88   N40   A    
C27   H66   S    
H18   N31   S    
C69   N19   A    
N37   Ni6   S    
C71   C75   S    
C108  H105  S    
C9    H108  S    
C63   H56   S    
H19   N32   S    
N25   Ni4   S    
N40   Ni6   S    
C28   C37   S    
N11   Ni3   S    
H9    N27   S    
C59   C76   S    
C2    H3    S    
C3    C47   A    
C50   H34   S    
C33   C35   S    
C41   C48   S    
C77   N29   S    
C73   C82   S    
C58   N18   A    
C75   H50   S    
C61   H49   S    
C84   C93   S    
N8    Ni3   S    
C42   N36   A    
C104  Cl1   S    
C33   C37   S    
N14   N15   A    
C97   C104  S    
C58   H116  S    
C36   H44   S    
C25   C111  A    
C59   C70   S    
C51   H35   S    
C107  H104  S    
C55   C73   S    
C25   N12   A    
C102  N22   A    
C85   H82   S    
C15   C21   A    
C54   C72   S    
C49   H32   S    
C11   H111  S    
N39   Ni8   S    
C98   H101  S    
N6    Ni1   S    
C93   H94   S    
N2    Ni5   S    
C59   H47   S    
C73   C77   S    
C7    C108  A    
C83   H69   S    
N9    Ni1   S    
C10   N11   A    
C57   C68   S    
H16   N30   S    
C51   C53   S    
C64   H57   S    
C13   N25   A    
C86   H87   S    
C81   H71   S    
C4    C88   A    
C82   H74   S    
C109  H106  S    
C65   C70   S    
C60   H79   S    
C30   C39   S    
N16   N17   A    
H22   N33   S    
