data_mof_unit_18491.cif
_audit_creation_date              2012-12-11T17:14:05-0500
_audit_creation_method            fapswitch 2.2
_symmetry_space_group_name_H-M    P1
_symmetry_Int_Tables_number       1
_space_group_crystal_system       triclinic
_cell_length_a                    18.216169
_cell_length_b                    7.097447
_cell_length_c                    13.019494
_cell_angle_alpha                 90.00389
_cell_angle_beta                  72.479316
_cell_angle_gamma                 89.999763
_cell_volume                      1605.17854709

loop_
_atom_site_label
_atom_site_type_symbol
_atom_type_description
_atom_site_fract_x
_atom_site_fract_y
_atom_site_fract_z
_atom_type_partial_charge
O1    O     O_R   0.453880 0.506200 0.150010 -0.535678
O2    O     O_R   0.546120 0.006200 0.849990 -0.535675
O3    O     O_R   0.604080 0.177770 0.007280 -0.536288
O4    O     O_R   0.395920 0.677770 0.992720 -0.536279
C1    C     C_R   0.635944 0.344493 0.001895 0.724077
C2    C     C_R   0.364056 0.844493 0.998105 0.724069
O5    O     O_R   0.458010 0.176640 0.159130 -0.534044
O6    O     O_R   0.541990 0.676640 0.840870 -0.534046
O7    O     O_R   0.399010 0.004010 0.002930 -0.537033
O8    O     O_R   0.600990 0.504010 0.997070 -0.537017
C3    C     C_R   0.443603 0.345220 0.201463 0.705124
C4    C     C_R   0.556391 0.845206 0.798536 0.705129
O9    O     O_3   0.480810 0.338440 0.948570 -0.368538
O10   O     O_3   0.519190 0.838440 0.051430 -0.368534
V1    V     V_3+5 0.503560 0.064490 0.009540 1.512370
V2    V     V_3+5 0.496440 0.564490 0.990460 1.512407
C5    C     C_R   0.574373 0.857074 0.504502 0.328587
C6    C     C_R   0.425629 0.356930 0.495500 0.328579
H1    H     H_    0.480470 0.850715 0.651235 0.149982
H2    H     H_    0.519528 0.350466 0.348763 0.149985
H3    H     H_    0.650947 0.865499 0.294982 0.200215
H4    H     H_    0.349058 0.365549 0.705023 0.200210
C7    C     C_R   0.589886 0.853251 0.682014 -0.069275
C8    C     C_R   0.410111 0.353282 0.317988 -0.069266
C9    C     C_R   0.948005 0.856099 0.382789 -0.185900
C10   C     C_R   0.052003 0.355220 0.617219 -0.185906
C11   C     C_R   0.916818 0.850379 0.493451 -0.119316
C12   C     C_R   0.083197 0.348513 0.506574 -0.119289
C13   C     C_R   0.837593 0.850330 0.540101 -0.138608
C14   C     C_R   0.162424 0.348428 0.459929 -0.138622
C15   C     C_R   0.786432 0.856176 0.476623 0.068704
C16   C     C_R   0.213575 0.355462 0.523392 0.068696
C17   C     C_R   0.818388 0.860570 0.361528 0.013608
C18   C     C_R   0.181616 0.360354 0.638478 0.013618
C19   C     C_R   0.704609 0.857042 0.524747 0.042240
C20   C     C_R   0.295394 0.356755 0.475263 0.042243
C21   C     C_R   0.655438 0.859140 0.458123 0.026846
C22   C     C_R   0.344566 0.358962 0.541883 0.026853
C23   C     C_R   0.687601 0.863088 0.346654 -0.156051
C24   C     C_R   0.312402 0.363036 0.653352 -0.156056
C25   C     C_R   0.766728 0.864492 0.297885 0.174052
C26   C     C_R   0.233275 0.364548 0.702119 0.174058
C27   C     C_R   0.669665 0.855584 0.637615 -0.194818
C28   C     C_R   0.330331 0.355758 0.362392 -0.194883
C29   C     C_R   0.542476 0.853542 0.615949 -0.089085
C30   C     C_R   0.457523 0.353369 0.384051 -0.089071
C31   C     C_R   0.900450 0.860953 0.316363 -0.065662
C32   C     C_R   0.099554 0.360775 0.683639 -0.065675
H5    H     H_    0.702184 0.855513 0.694244 0.099092
H6    H     H_    0.297801 0.356333 0.305775 0.099132
H7    H     H_    0.010127 0.856619 0.348382 0.099759
H8    H     H_    0.989880 0.355674 0.651622 0.099770
H9    H     H_    0.818815 0.844831 0.626608 0.105631
H10   H     H_    0.181222 0.341691 0.373447 0.105638
H11   H     H_    0.954487 0.846036 0.543838 0.126228
H12   H     H_    0.045532 0.343292 0.456200 0.126228
C33   C     C_1   0.216319 0.858833 0.000220 -0.110633
C34   C     C_1   0.783681 0.358833 0.999780 -0.110637
C35   C     C_1   0.283628 0.852571 0.998976 -0.141423
C36   C     C_1   0.716371 0.352570 0.001024 -0.141424
O11   O     O_R   0.899030 0.205490 0.002790 -0.520022
O12   O     O_R   0.100970 0.705490 0.997210 -0.519975
O13   O     O_R   0.042000 0.536370 0.840840 -0.539301
O14   O     O_R   0.958000 0.036370 0.159160 -0.539325
C37   C     C_R   0.060004 0.368594 0.799030 0.750353
C38   C     C_R   0.939996 0.868617 0.200970 0.750361
O15   O     O_R   0.895930 0.535070 0.992690 -0.524830
O16   O     O_R   0.104070 0.035070 0.007310 -0.524878
O17   O     O_R   0.953870 0.707520 0.150040 -0.533294
O18   O     O_R   0.046130 0.207520 0.849960 -0.533315
C39   C     C_R   0.864147 0.366784 0.998704 0.744075
C40   C     C_R   0.135853 0.866784 0.001296 0.744076
O19   O     O_3   0.019200 0.374340 0.051340 -0.366783
O20   O     O_3   0.980800 0.874340 0.948660 -0.366789
V3    V     V_3+5 0.996440 0.648350 0.990470 1.528377
V4    V     V_3+5 0.003560 0.148350 0.009530 1.528302
Br1   Br    Br    0.503327 0.856904 0.420909 -0.578543
Br2   Br    Br    0.496679 0.356856 0.579090 -0.578542
Br3   Br    Br    0.793429 0.871012 0.143082 -0.554170
Br4   Br    Br    0.206571 0.371316 0.856918 -0.554175

loop_
_geom_bond_atom_site_label_1
_geom_bond_atom_site_label_2
_ccdc_geom_bond_type
C14   C16   A    
O13   C37   A    
C26   Br4   S    
C7    C29   A    
C11   C13   A    
O1    C3    A    
O2    C4    A    
C2    O7    A    
C12   H12   S    
C23   C25   A    
O5    C3    A    
C14   H10   S    
C4    C7    S    
O20   V4    S    
C16   C20   A    
C19   C21   A    
C5    C29   A    
C11   H11   S    
C34   C39   S    
C33   C35   T    
C38   O17   A    
C34   C36   T    
C37   O18   A    
C3    C8    S    
C7    C27   A    
C18   C26   A    
C15   C17   A    
C32   C37   S    
C19   C27   A    
C9    C31   A    
C31   C38   S    
C10   C32   A    
O11   C39   A    
C24   C26   A    
O6    V2    S    
O19   V3    S    
C6    C30   A    
O11   V4    S    
O20   V3    S    
O4    C2    A    
C27   H5    S    
O5    V1    S    
O14   C38   A    
O4    V2    S    
C9    H7    S    
C10   H8    S    
H3    C23   S    
O16   C40   A    
H4    C24   S    
C5    Br1   S    
O14   V4    S    
O12   C40   A    
O1    V2    S    
C5    C21   A    
O2    V1    S    
C6    Br2   S    
O18   V4    S    
C9    C11   A    
C17   C31   A    
O19   V4    S    
C15   C19   A    
O12   V3    S    
C20   C28   A    
C18   C32   A    
O3    V1    S    
O13   V3    S    
C28   H6    S    
C1    C36   S    
C2    C35   S    
O3    C1    A    
C25   Br3   S    
H1    C29   S    
O16   V4    S    
C10   C12   A    
C17   C25   A    
C12   C14   A    
C6    C22   A    
C8    C30   A    
C1    O8    A    
C21   C23   A    
O8    V2    S    
C22   C24   A    
C13   H9    S    
C8    C28   A    
C20   C22   A    
O17   V3    S    
O15   C39   A    
C33   C40   S    
O7    V1    S    
O15   V3    S    
C13   C15   A    
O9    V2    S    
O10   V1    S    
H2    C30   S    
O6    C4    A    
C16   C18   A    
