data_mof_unit_19092.cif
_audit_creation_date              2012-10-26T19:36:21-0400
_audit_creation_method            fapswitch 2.2
_symmetry_space_group_name_H-M    P1
_symmetry_Int_Tables_number       1
_space_group_crystal_system       triclinic
_cell_length_a                    10.875902
_cell_length_b                    16.002065
_cell_length_c                    14.742862
_cell_angle_alpha                 89.97274
_cell_angle_beta                  91.200877
_cell_angle_gamma                 89.677131
_cell_volume                      2565.19713593

loop_
_atom_site_label
_atom_site_type_symbol
_atom_type_description
_atom_site_fract_x
_atom_site_fract_y
_atom_site_fract_z
_atom_type_partial_charge
C1    C     C_R   0.499579 0.340917 0.499944 0.536026
C2    C     C_R   0.489501 0.087396 0.498940 -0.038962
C3    C     C_R   0.539955 0.956959 0.421944 0.005607
C4    C     C_R   0.447565 0.043134 0.575055 -0.001637
C5    C     C_1   0.500044 0.822892 0.499449 0.020699
C6    C     C_1   0.492908 0.177176 0.499211 0.025110
C7    C     C_1   0.496215 0.252069 0.499608 0.021797
C8    C     C_1   0.500929 0.747960 0.500085 0.014587
C9    C     C_R   0.538269 0.570306 0.952206 -0.132367
C10   C     C_R   0.462254 0.429543 0.047799 -0.129281
C11   C     C_R   0.498801 0.499813 0.902846 -0.043405
C12   C     C_R   0.500538 0.659079 0.500039 0.535206
C13   C     C_R   0.501728 0.500039 0.097161 -0.041591
C14   C     C_R   0.458660 0.429441 0.951565 0.257920
C15   C     C_R   0.541778 0.570437 0.048445 0.257227
C16   C     C_R   0.261765 0.498567 0.498774 0.511963
C17   C     C_R   0.738227 0.501542 0.501225 0.513913
C18   C     C_1   0.499447 0.500029 0.802719 0.182924
C19   C     C_1   0.500793 0.499902 0.197286 0.181536
C20   C     C_R   0.212303 0.704509 0.277173 0.023686
C21   C     C_R   0.783335 0.299735 0.725370 0.013822
C22   C     C_R   0.161568 0.667440 0.355828 0.068306
C23   C     C_R   0.872194 0.504476 0.503870 -0.060558
C24   C     C_R   0.834044 0.335311 0.645872 0.056236
C25   C     C_R   0.124024 0.583234 0.352657 0.016352
C26   C     C_R   0.876189 0.418536 0.648448 0.017644
C27   C     C_R   0.134388 0.537364 0.272578 -0.024008
C28   C     C_R   0.869218 0.465002 0.728379 -0.022782
C29   C     C_R   0.180100 0.573197 0.193582 0.039853
C30   C     C_R   0.823125 0.430597 0.807979 0.040405
C31   C     C_R   0.219264 0.657610 0.195391 -0.039266
C32   C     C_R   0.780623 0.346953 0.807117 -0.038840
C33   C     C_R   0.932782 0.549189 0.435527 -0.008186
C34   C     C_R   0.127797 0.495640 0.496103 -0.060456
C35   C     C_R   0.067174 0.450721 0.564290 -0.008932
C36   C     C_2   0.269205 0.697568 0.112938 0.203094
C37   C     C_2   0.731639 0.308126 0.890563 0.200692
C38   C     C_2   0.256351 0.792508 0.278273 0.268129
C39   C     C_2   0.734480 0.213015 0.725123 0.282189
C40   C     C_2   0.139482 0.715867 0.440044 0.264578
C41   C     C_2   0.850549 0.286406 0.561110 0.283156
C42   C     C_2   0.189130 0.520164 0.110972 0.257346
C43   C     C_2   0.816802 0.484436 0.890144 0.257748
C44   C     C_2   0.861577 0.608403 0.375561 0.279079
C45   C     C_R   0.939008 0.458058 0.570463 -0.054271
C46   C     C_2   0.138277 0.390870 0.623607 0.271396
C47   C     C_2   0.405039 0.089223 0.656836 0.297911
C48   C     C_2   0.593867 0.910987 0.343895 0.289176
C49   C     C_3   0.277809 0.892916 0.628841 -0.045954
C50   C     C_3   0.469647 0.104759 0.288925 -0.054620
C51   C     C_3   0.707915 0.645484 0.094234 -0.054081
C52   C     C_3   0.292191 0.354914 0.905431 -0.055576
C53   C     C_R   0.061021 0.542318 0.429713 -0.051799
C54   C     C_R   0.446695 0.954991 0.572138 0.290499
C55   C     C_R   0.531538 0.045002 0.421813 0.298323
C56   C     C_R   0.496214 0.912676 0.497477 -0.030178
Cu1   Cu    Cu3+1 0.500040 0.500000 0.589220 1.015431
Cu2   Cu    Cu3+1 0.499960 0.500000 0.410780 1.009977
H1    H     H_    0.567442 0.625454 0.916045 0.156614
H2    H     H_    0.843074 0.317297 0.495678 0.100711
H3    H     H_    0.240102 0.540556 0.052789 0.159699
H4    H     H_    0.764823 0.465667 0.948481 0.157323
H5    H     H_    0.784575 0.643047 0.402756 0.119018
H6    H     H_    0.215723 0.356860 0.596178 0.114158
H7    H     H_    0.389567 0.156202 0.654229 0.111447
H8    H     H_    0.585977 0.843613 0.338880 0.119933
H9    H     H_    0.223110 0.951715 0.622402 0.148406
H10   H     H_    0.242616 0.857786 0.687655 0.168725
H11   H     H_    0.263348 0.853433 0.567533 0.154952
H12   H     H_    0.432995 0.374408 0.083950 0.148210
H13   H     H_    0.429537 0.044971 0.263924 0.145773
H14   H     H_    0.501601 0.139909 0.229071 0.170549
H15   H     H_    0.397641 0.143293 0.321744 0.100473
H16   H     H_    0.741291 0.657159 0.024593 0.160928
H17   H     H_    0.751310 0.587789 0.123028 0.170269
H18   H     H_    0.737882 0.698688 0.137379 0.189213
H19   H     H_    0.249389 0.412637 0.876227 0.170734
H20   H     H_    0.258348 0.343646 0.975023 0.159320
H21   H     H_    0.262058 0.301637 0.862457 0.186800
H22   H     H_    0.103952 0.472952 0.271984 0.172135
H23   H     H_    0.902374 0.528782 0.728309 0.171648
H24   H     H_    0.350670 0.736232 0.118345 0.149442
H25   H     H_    0.649609 0.269925 0.886467 0.154429
H26   H     H_    0.245885 0.831338 0.218241 0.117002
H27   H     H_    0.747478 0.173299 0.784246 0.124240
H28   H     H_    0.150418 0.685891 0.505784 0.086562
N1    N     N_1   0.500040 0.499980 0.276710 -0.182233
N2    N     N_1   0.499960 0.500020 0.723290 -0.180808
O1    O     O_R   0.500060 0.380310 0.575320 -0.491833
O2    O     O_2   0.785422 0.315185 0.963646 -0.477422
O3    O     O_2   0.308439 0.821757 0.344970 -0.514329
O4    O     O_2   0.675353 0.186092 0.660423 -0.473745
O5    O     O_2   0.102311 0.787951 0.436768 -0.463613
O6    O     O_2   0.878880 0.212502 0.563411 -0.433970
O7    O     O_2   0.140233 0.451694 0.107080 -0.510342
O8    O     O_2   0.869044 0.551768 0.893440 -0.505734
O9    O     O_2   0.885116 0.617388 0.295580 -0.509513
O10   O     O_2   0.114116 0.380498 0.703276 -0.513098
O11   O     O_2   0.388446 0.053569 0.728736 -0.426118
O12   O     O_R   0.499940 0.619690 0.424680 -0.495309
O13   O     O_2   0.649420 0.947247 0.284649 -0.424799
O14   O     O_3   0.403735 0.909430 0.644682 -0.505461
O15   O     O_3   0.571176 0.090554 0.348198 -0.490794
O16   O     O_3   0.578497 0.641257 0.095033 -0.579537
O17   O     O_3   0.421654 0.358682 0.904993 -0.580981
O18   O     O_R   0.500000 0.380310 0.424640 -0.489573
O19   O     O_R   0.500000 0.619690 0.575360 -0.483948
O20   O     O_R   0.319670 0.500010 0.575340 -0.491619
O21   O     O_R   0.680330 0.499990 0.424660 -0.489292
O22   O     O_R   0.319610 0.500010 0.424650 -0.506525
O23   O     O_R   0.680390 0.499990 0.575350 -0.504405
O24   O     O_2   0.216794 0.690907 0.039284 -0.476507

loop_
_geom_bond_atom_site_label_1
_geom_bond_atom_site_label_2
_ccdc_geom_bond_type
C11   C18   S    
C23   C45   A    
C49   H10   S    
C29   C42   S    
C27   C29   A    
Cu2   O21   S    
C5    C56   S    
C51   H16   S    
C40   O5    D    
Cu2   N1    S    
C16   O22   A    
C17   C23   S    
Cu1   O1    S    
C37   O2    D    
C25   C53   S    
C19   N1    T    
C2    C55   A    
C1    C7    S    
C11   C14   A    
C55   O15   S    
C3    C48   S    
C47   O11   D    
C34   C35   A    
C3    C56   A    
C40   H28   S    
C50   H14   S    
C26   C45   S    
C16   C34   S    
C3    C55   A    
C14   O17   S    
C36   H24   S    
C23   C33   A    
C22   C25   A    
C36   O24   D    
C15   O16   S    
C52   H21   S    
C1    O18   A    
C4    C54   A    
C46   O10   D    
C50   O15   S    
C49   H11   S    
C24   C41   S    
C2    C6    S    
C52   H20   S    
C17   O23   A    
C44   H5    S    
C33   C53   A    
C21   C32   A    
C54   C56   A    
C13   C19   S    
C42   O7    D    
Cu2   O12   S    
C51   H18   S    
C27   H22   S    
C10   C14   A    
C50   H15   S    
C49   O14   S    
C51   O16   S    
C38   O3    D    
C18   N2    T    
C46   H6    S    
Cu2   O18   S    
C2    C4    A    
C50   H13   S    
C5    C8    T    
C20   C38   S    
C44   O9    D    
C41   O6    D    
C21   C39   S    
C8    C12   S    
C22   C40   S    
C43   O8    D    
C32   C37   S    
C9    C11   A    
C42   H3    S    
C10   H12   S    
Cu1   O19   S    
C20   C22   A    
C52   O17   S    
C13   C15   A    
C20   C31   A    
C30   C43   S    
C39   H27   S    
C52   H19   S    
C35   C45   A    
C39   O4    D    
C51   H17   S    
C1    O1    A    
C49   H9    S    
C38   H26   S    
C28   H23   S    
Cu2   O22   S    
C33   C44   S    
C54   O14   S    
C41   H2    S    
C24   C26   A    
C10   C13   A    
C17   O21   A    
C12   O19   A    
C6    C7    T    
C25   C27   A    
C26   C28   A    
Cu1   N2    S    
C28   C30   A    
C9    C15   A    
C29   C31   A    
C30   C32   A    
Cu1   Cu2   S    
Cu1   O23   S    
C48   O13   D    
C12   O12   A    
C16   O20   A    
Cu1   O20   S    
C34   C53   A    
C21   C24   A    
C31   C36   S    
C37   H25   S    
C48   H8    S    
C35   C46   S    
C9    H1    S    
C47   H7    S    
C43   H4    S    
C4    C47   S    
