data_mof_unit_27465.cif
_audit_creation_date              2013-03-05T15:41:47-0500
_audit_creation_method            fapswitch 2.2
_symmetry_space_group_name_H-M    P1
_symmetry_Int_Tables_number       1
_space_group_crystal_system       triclinic
_cell_length_a                    19.288188
_cell_length_b                    8.764764
_cell_length_c                    7.427725
_cell_angle_alpha                 102.540249
_cell_angle_beta                  94.377246
_cell_angle_gamma                 92.936356
_cell_volume                      1219.20401487

loop_
_atom_site_label
_atom_site_type_symbol
_atom_site_description
_atom_site_fract_x
_atom_site_fract_y
_atom_site_fract_z
_atom_type_partial_charge
O1    O     O_R   0.505010 0.286130 0.619770 -0.602722
O2    O     O_R   0.494990 0.713870 0.380230 -0.602726
O3    O     O_R   0.491990 0.256780 0.308370 -0.578341
O4    O     O_R   0.508010 0.743220 0.691630 -0.578338
C1    C     C_R   0.495949 0.200439 0.454829 0.885915
C2    C     C_R   0.504051 0.799561 0.545171 0.885900
O5    O     O_R   0.406650 0.514660 0.655750 -0.590830
O6    O     O_R   0.593350 0.485340 0.344250 -0.590832
O7    O     O_R   0.393640 0.485310 0.344340 -0.543529
O8    O     O_R   0.606360 0.514690 0.655660 -0.543519
C3    C     C_R   0.367706 0.499033 0.501934 0.844395
C4    C     C_R   0.632294 0.500969 0.498066 0.844379
Cu1   Cu    Cu3+1 0.507710 0.517380 0.684380 0.989525
Cu2   Cu    Cu3+1 0.492290 0.482620 0.315620 0.989517
C5    C     C_R   0.260086 0.623395 0.607441 0.099901
C6    C     C_R   0.739913 0.376621 0.392521 0.099917
C7    C     C_R   0.187504 0.618453 0.602879 -0.160902
C8    C     C_R   0.812496 0.381560 0.397086 -0.160903
H1    H     H_    0.162878 0.716682 0.681808 0.170192
H2    H     H_    0.837121 0.283344 0.318127 0.170186
C9    C     C_R   0.146002 0.488644 0.498713 -0.042489
C10   C     C_R   0.853998 0.511347 0.501294 -0.042485
C11   C     C_R   0.177426 0.359851 0.394356 0.073399
C12   C     C_R   0.822577 0.640123 0.605691 0.073405
C13   C     C_R   0.250748 0.363603 0.399544 0.332925
C14   C     C_R   0.749255 0.636378 0.600497 0.332922
C15   C     C_R   0.291820 0.495295 0.504783 -0.180412
C16   C     C_R   0.708180 0.504706 0.495218 -0.180422
N1    N     N_R   0.029352 0.366149 0.511066 -0.227504
N2    N     N_R   0.970648 0.633842 0.488942 -0.227496
N3    N     N_R   0.960630 0.371994 0.511720 -0.230604
N4    N     N_R   0.039369 0.627997 0.488287 -0.230613
C17   C     C_R   0.930087 0.506210 0.501518 0.437988
C18   C     C_R   0.069913 0.493781 0.498489 0.437992
C19   C     C_2   0.484828 0.034511 0.434891 -0.049915
C20   C     C_2   0.515173 0.965488 0.565108 -0.049923
N5    N     N_2   0.480680 0.456420 0.038530 -0.219323
N6    N     N_2   0.519320 0.543580 0.961470 -0.219319
H3    H     H_    0.445240 0.379028 0.948663 0.246600
H4    H     H_    0.554759 0.620972 0.051337 0.246604
C21   C     C_3   0.302582 0.767304 0.718107 -0.734532
H5    H     H_    0.336111 0.816905 0.626776 0.218074
H6    H     H_    0.268976 0.859883 0.781353 0.246971
H7    H     H_    0.335828 0.736451 0.831817 0.242480
C22   C     C_3   0.697416 0.232733 0.281808 -0.734533
H8    H     H_    0.663883 0.183108 0.373110 0.218064
H9    H     H_    0.664175 0.263617 0.168109 0.242492
H10   H     H_    0.731021 0.140160 0.218539 0.246963
C23   C     C_3   0.133184 0.222986 0.272097 -0.708181
H11   H     H_    0.163520 0.144207 0.175087 0.264010
H12   H     H_    0.108119 0.151929 0.359127 0.246731
H13   H     H_    0.092567 0.266518 0.185501 0.220579
C24   C     C_3   0.866821 0.776959 0.727998 -0.708181
H14   H     H_    0.836487 0.855713 0.825039 0.264010
H15   H     H_    0.907437 0.733394 0.814564 0.220572
H16   H     H_    0.891888 0.848048 0.641005 0.246734
N7    N     N_R   0.283924 0.230933 0.303926 0.094170
O9    O     O_R   0.303672 0.228271 0.139752 -0.376665
O10   O     O_R   0.284569 0.104364 0.368451 -0.392045
N8    N     N_R   0.716081 0.769040 0.696148 0.094173
O11   O     O_R   0.696325 0.771666 0.860306 -0.376655
O12   O     O_R   0.715453 0.895639 0.631679 -0.392034
C25   C     C_3   0.434095 0.948995 0.272593 -0.732316
H17   H     H_    0.406022 0.031300 0.204005 0.276470
H18   H     H_    0.462523 0.875517 0.165099 0.238341
H19   H     H_    0.393577 0.876429 0.320801 0.241662
C26   C     C_3   0.565907 0.051004 0.727402 -0.732345
H20   H     H_    0.593981 0.968698 0.795987 0.276468
H21   H     H_    0.606425 0.123569 0.679190 0.241660
H22   H     H_    0.537481 0.124483 0.834898 0.238349

loop_
_geom_bond_atom_site_label_1
_geom_bond_atom_site_label_2
_geom_bond_distance
_ccdc_geom_bond_type
C6    C22   1.509796 S    
C6    C16   1.409467 A    
O5    C3    1.295690 A    
O7    Cu2   1.931581 S    
N3    C17   1.356308 A    
C14   N8    1.432849 S    
N5    N6    1.289710 D    
Cu1   Cu2   2.680979 S    
C13   C15   1.410993 A    
C21   H6    1.110913 S    
C21   H5    1.110700 S    
C24   H15   1.110556 S    
C5    C15   1.409460 A    
C19   C20   1.359431 D    
C3    C15   1.464249 S    
O6    C4    1.295694 A    
C23   H13   1.110555 S    
C26   H22   1.110235 S    
C25   H18   1.110235 S    
Cu1   N6    2.014446 S    
C25   H19   1.110946 S    
N1    N3    1.329454 A    
N6    H4    1.029162 S    
C24   H14   1.108167 S    
Cu2   N5    2.014446 S    
N2    N4    1.329449 A    
O7    C3    1.292024 A    
N7    O9    1.300814 A    
O2    C2    1.284480 A    
O3    Cu2   1.968142 S    
O8    C4    1.292026 A    
C22   H10   1.110912 S    
C4    C16   1.464254 S    
O1    C1    1.284481 A    
C1    C19   1.432706 S    
O4    C2    1.287469 A    
C7    H1    1.084336 S    
C12   C14   1.410328 A    
C8    H2    1.084337 S    
C11   C13   1.410328 A    
C9    C11   1.415740 A    
N8    O12   1.300732 A    
O3    C1    1.287466 A    
O2    Cu2   1.975887 S    
C21   H7    1.109936 S    
C10   C12   1.415733 A    
C20   C26   1.524790 S    
N7    O10   1.300730 A    
C11   C23   1.515140 S    
C25   H17   1.109344 S    
C13   N7    1.432847 S    
C22   H8    1.110701 S    
O5    Cu1   1.942983 S    
O1    Cu1   1.975887 S    
C5    C21   1.509794 S    
C6    C8    1.396028 A    
C23   H11   1.108167 S    
C22   H9    1.109937 S    
C24   H16   1.109588 S    
O4    Cu1   1.968142 S    
C5    C7    1.396027 A    
C10   C17   1.470489 S    
C19   C25   1.524792 S    
C9    C18   1.470499 S    
O6    Cu2   1.942983 S    
N2    C17   1.356126 A    
C23   H12   1.109588 S    
C12   C24   1.515139 S    
C8    C10   1.401335 A    
C14   C16   1.411000 A    
N1    C18   1.356125 A    
O8    Cu1   1.931580 S    
C7    C9    1.401340 A    
C26   H20   1.109345 S    
C2    C20   1.432706 S    
N8    O11   1.300813 A    
C26   H21   1.110948 S    
N5    H3    1.029163 S    
N4    C18   1.356313 A    
