data_mof_unit_11500.cif
_audit_creation_date              2012-12-10T18:47:44-0500
_audit_creation_method            fapswitch 2.2
_symmetry_space_group_name_H-M    P1
_symmetry_Int_Tables_number       1
_space_group_crystal_system       triclinic
_cell_length_a                    9.887786
_cell_length_b                    10.719675
_cell_length_c                    15.192314
_cell_angle_alpha                 91.488023
_cell_angle_beta                  75.396184
_cell_angle_gamma                 91.976072
_cell_volume                      1557.09207746

loop_
_atom_site_label
_atom_site_type_symbol
_atom_type_description
_atom_site_fract_x
_atom_site_fract_y
_atom_site_fract_z
_atom_type_partial_charge
C1    C     C_R   0.503833 0.739994 0.497235 1.003866
C2    C     C_R   0.495826 0.260096 0.503792 1.015138
C3    C     C_R   0.302900 0.305342 0.082874 0.316169
C4    C     C_R   0.634950 0.268517 0.924145 0.311728
C5    C     C_R   0.220095 0.279616 0.020116 0.603035
C6    C     C_R   0.718890 0.264283 0.986179 0.470918
C7    C     C_R   0.597854 0.941998 0.539036 0.388136
C8    C     C_R   0.399257 0.057847 0.465711 0.396550
C9    C     C_R   0.580886 0.069925 0.550935 0.363308
C10   C     C_R   0.417333 0.930519 0.452715 0.364309
C11   C     C_R   0.488169 0.127180 0.509267 -0.391159
C12   C     C_R   0.510743 0.873071 0.493629 -0.418648
C13   C     C_R   0.949525 0.430516 0.436681 0.275846
C14   C     C_R   0.051222 0.571849 0.561848 0.278859
C15   C     C_R   0.094673 0.428373 0.438165 0.297281
C16   C     C_R   0.904447 0.567334 0.564326 0.269363
C17   C     C_R   0.418940 0.479055 0.671287 0.971474
C18   C     C_R   0.581801 0.500781 0.324803 0.928675
C19   C     C_R   0.383697 0.406514 0.754103 -0.227128
C20   C     C_R   0.618028 0.477194 0.226362 -0.308032
C21   C     C_R   0.194040 0.306148 0.861007 0.449131
C22   C     C_R   0.794202 0.404242 0.096084 0.602301
C23   C     C_R   0.264969 0.328460 0.770078 0.236471
C24   C     C_R   0.759465 0.466532 0.179816 0.244255
C25   C     C_R   0.468906 0.405531 0.814619 0.455547
C26   C     C_R   0.512079 0.447489 0.181113 0.404689
C27   C     C_R   0.417713 0.341913 0.897342 -0.105986
C28   C     C_R   0.545506 0.374408 0.099858 -0.167523
C29   C     C_R   0.273859 0.309425 0.926980 -0.284067
C30   C     C_R   0.687762 0.345039 0.062239 -0.261316
C31   C     C_R   0.503008 0.320814 0.955096 -0.056649
C32   C     C_R   0.447657 0.336759 0.048764 -0.177472
N1    N     N_R   0.142780 0.500030 0.500020 -0.122438
N2    N     N_R   0.857220 0.499970 0.499980 -0.130973
O1    O     O_R   0.385370 0.683250 0.500010 -0.577297
O2    O     O_R   0.614630 0.316750 0.499990 -0.595852
O3    O     O_R   0.614700 0.683220 0.500000 -0.589485
O4    O     O_R   0.385300 0.316780 0.500000 -0.555481
O5    O     O_R   0.319830 0.500020 0.632250 -0.546156
O6    O     O_R   0.680170 0.499980 0.367750 -0.570805
O7    O     O_R   0.549160 0.499990 0.632240 -0.523823
O8    O     O_R   0.450840 0.500010 0.367760 -0.518050
Zn1   Zn    Zn3+2 0.346870 0.500020 0.500000 1.091589
Zn2   Zn    Zn3+2 0.653130 0.499980 0.500000 1.067475
O9    O     O_3   0.090261 0.221936 0.050307 -0.463911
C33   C     C_3   0.108130 0.091857 0.048767 -0.171865
H1    H     H_    0.138345 0.055315 0.977505 0.143464
H2    H     H_    0.007312 0.046210 0.083691 0.172971
H3    H     H_    0.186169 0.065326 0.086063 0.132859
O10   O     O_3   0.828133 0.183656 0.973471 -0.508916
C34   C     C_3   0.772362 0.063342 0.999388 -0.286679
H4    H     H_    0.724728 0.060703 0.073988 0.164063
H5    H     H_    0.858441 0.996319 0.982855 0.173444
H6    H     H_    0.694546 0.030781 0.961487 0.160402
O11   O     O_3   0.381792 0.497170 0.215109 -0.679174
H7    H     H_    0.341436 0.514517 0.163471 0.347546
O12   O     O_3   0.595489 0.471383 0.793693 -0.716804
H8    H     H_    0.626329 0.489392 0.849949 0.318019
O13   O     O_3   0.866505 0.514210 0.215016 -0.713678
H9    H     H_    0.838094 0.597029 0.242887 0.325704
O14   O     O_3   0.212533 0.286229 0.698261 -0.771669
H10   H     H_    0.151931 0.211337 0.718402 0.330628
O15   O     O_3   0.049467 0.292487 0.885464 -0.503003
C35   C     C_3   0.985691 0.375223 0.836432 -0.127558
H11   H     H_    0.958202 0.325679 0.778101 0.161830
H12   H     H_    0.049263 0.461503 0.812821 0.129429
H13   H     H_    0.887537 0.409962 0.880402 0.159044
O16   O     O_3   0.931382 0.406169 0.044748 -0.474014
C36   C     C_3   0.977209 0.530168 0.019711 -0.264006
H14   H     H_    0.010251 0.582127 0.075069 0.200858
H15   H     H_    0.897393 0.582598 0.996597 0.095099
H16   H     H_    0.072243 0.527103 0.962646 0.166246
O17   O     O_3   0.243876 0.280826 0.173351 -0.715198
H17   H     H_    0.319478 0.262534 0.202787 0.378066
O18   O     O_3   0.672407 0.214397 0.838165 -0.721662
H18   H     H_    0.767107 0.180443 0.827668 0.353418
O19   O     O_3   0.690297 0.884053 0.578687 -0.518402
C37   C     C_3   0.823696 0.880713 0.516042 -0.221630
H19   H     H_    0.904697 0.879629 0.554938 0.151589
H20   H     H_    0.834641 0.794528 0.473377 0.187198
H21   H     H_    0.848519 0.961851 0.469860 0.084940
O20   O     O_3   0.299568 0.114237 0.431743 -0.541789
C38   C     C_3   0.171591 0.116725 0.500140 -0.259348
H22   H     H_    0.083845 0.104931 0.467098 0.133912
H23   H     H_    0.158297 0.042412 0.551901 0.105416
H24   H     H_    0.159382 0.208318 0.536176 0.225825
O21   O     O_3   0.629922 0.135331 0.617492 -0.541594
C39   C     C_3   0.774676 0.163513 0.587909 -0.131086
H25   H     H_    0.795768 0.255850 0.617244 0.183484
H26   H     H_    0.814117 0.170154 0.512663 0.132087
H27   H     H_    0.834156 0.094562 0.614950 0.155566
O22   O     O_3   0.364929 0.865042 0.387614 -0.573715
C40   C     C_3   0.219497 0.840956 0.418533 -0.157492
H28   H     H_    0.180887 0.838198 0.493936 0.132747
H29   H     H_    0.194894 0.747929 0.391765 0.176105
H30   H     H_    0.161947 0.910041 0.390105 0.165088
O23   O     O_3   0.898301 0.362616 0.373323 -0.699101
H31   H     H_    0.972950 0.356700 0.316206 0.386696
O24   O     O_3   0.104849 0.648645 0.619718 -0.734144
H32   H     H_    0.043690 0.720950 0.637893 0.307532
O25   O     O_3   0.189695 0.355160 0.378938 -0.647633
H33   H     H_    0.139595 0.282355 0.359480 0.351255
O26   O     O_3   0.806871 0.628039 0.631065 -0.663091
H34   H     H_    0.841341 0.635029 0.686824 0.336854

loop_
_geom_bond_atom_site_label_1
_geom_bond_atom_site_label_2
_ccdc_geom_bond_type
O21   C39   S    
C40   H28   S    
C27   C29   A    
O17   H17   S    
O11   H7    S    
C26   O11   S    
C14   N1    A    
O23   H31   S    
C14   O24   S    
O9    C33   S    
C33   H3    S    
O25   H33   S    
C20   C26   A    
C8    O20   S    
C22   C24   A    
C18   O8    A    
C37   H20   S    
C17   O5    A    
C36   H15   S    
C18   O6    A    
C4    O18   S    
C13   N2    A    
C16   N2    A    
C31   C32   A    
O16   C36   S    
O1    Zn1   S    
O6    Zn2   S    
O14   H10   S    
C1    O3    A    
C7    O19   S    
C10   O22   S    
O13   H9    S    
C40   H29   S    
C3    C32   A    
C1    C12   S    
C25   O12   S    
C3    O17   S    
C2    C11   S    
C5    C29   A    
C7    C12   A    
C33   H2    S    
C27   C31   A    
C34   H4    S    
N1    Zn1   S    
C35   H13   S    
C20   C24   A    
C28   C32   A    
N2    Zn2   S    
C4    C6    A    
C37   H19   S    
O5    Zn1   S    
O19   C37   S    
C21   C29   A    
C15   O25   S    
C34   H5    S    
C35   H12   S    
C36   H16   S    
C19   C23   A    
O18   H18   S    
C2    O4    A    
C16   O26   S    
C38   H22   S    
C39   H27   S    
C8    C11   A    
O10   C34   S    
C6    O10   S    
C9    C11   A    
C22   O16   S    
C10   C12   A    
C38   H23   S    
C39   H26   S    
C40   H30   S    
C21   C23   A    
O7    Zn2   S    
C14   C16   A    
O2    Zn2   S    
O8    Zn1   S    
C1    O1    A    
C2    O2    A    
C7    C9    A    
C33   H1    S    
C22   C30   A    
C6    C30   A    
C3    C5    A    
C25   C27   A    
C26   C28   A    
O24   H32   S    
C34   H6    S    
C35   H11   S    
O3    Zn2   S    
C13   C15   A    
O4    Zn1   S    
C9    O21   S    
C37   H21   S    
O12   H8    S    
C5    O9    S    
C24   O13   S    
C28   C30   A    
O22   C40   S    
C17   C19   S    
C18   C20   S    
C13   O23   S    
C36   H14   S    
C19   C25   A    
C17   O7    A    
C21   O15   S    
C4    C31   A    
O15   C35   S    
C23   O14   S    
C38   H24   S    
C39   H25   S    
C8    C10   A    
O20   C38   S    
O26   H34   S    
C15   N1    A    
