data_mof_unit_32724.cif
_audit_creation_date              2012-12-11T16:26:24-0500
_audit_creation_method            fapswitch 2.2
_symmetry_space_group_name_H-M    P1
_symmetry_Int_Tables_number       1
_space_group_crystal_system       triclinic
_cell_length_a                    13.998497
_cell_length_b                    13.999122
_cell_length_c                    31.987606
_cell_angle_alpha                 90.001674
_cell_angle_beta                  89.999819
_cell_angle_gamma                 119.993371
_cell_volume                      5429.04676549

loop_
_atom_site_label
_atom_site_type_symbol
_atom_type_description
_atom_site_fract_x
_atom_site_fract_y
_atom_site_fract_z
_atom_type_partial_charge
C1    C     C_R   0.567942 0.444050 0.810432 0.640181
C2    C     C_R   0.444050 0.567941 0.189568 0.641248
C3    C     C_R   0.431802 0.875501 0.310663 0.605963
C4    C     C_R   0.123911 0.555965 0.189562 0.640665
C5    C     C_1   0.010354 0.547548 0.018333 0.138874
C6    C     C_1   0.538031 0.991213 0.481569 0.139233
C7    C     C_1   0.452585 0.462777 0.018353 0.138783
C8    C     C_1   0.009299 0.546981 0.481629 0.138793
C9    C     C_1   0.537098 0.989483 0.018314 0.138915
C10   C     C_1   0.453291 0.461990 0.481564 0.139081
C11   C     C_1   0.546583 0.008368 0.518463 0.138418
C12   C     C_R   0.875538 0.431818 0.689348 0.603448
C13   C     C_1   0.990149 0.537435 0.981610 0.138709
C14   C     C_1   0.461935 0.453379 0.518449 0.138850
C15   C     C_1   0.547191 0.009677 0.981591 0.138639
C16   C     C_1   0.992062 0.538326 0.518515 0.138633
C17   C     C_1   0.462695 0.452688 0.981630 0.138677
C18   C     C_R   0.917409 0.461605 0.853413 0.010578
C19   C     C_R   0.542890 0.078233 0.646939 -0.034108
C20   C     C_R   0.538413 0.455807 0.853419 0.010633
C21   C     C_R   0.921856 0.464681 0.646960 -0.034016
C22   C     C_R   0.544193 0.082568 0.853406 0.010683
C23   C     C_R   0.555947 0.123875 0.810426 0.640386
C24   C     C_R   0.535405 0.457078 0.646929 -0.034034
C25   C     C_R   0.464652 0.921723 0.353069 -0.030572
C26   C     C_R   0.082711 0.544273 0.146564 0.010458
C27   C     C_R   0.456988 0.535533 0.353097 -0.034248
C28   C     C_R   0.461555 0.917302 0.146561 0.011128
C29   C     C_R   0.078634 0.543087 0.353116 -0.030067
C30   C     C_R   0.455764 0.538446 0.146572 0.010706
C31   C     C_R   0.999305 0.569369 0.865104 0.194934
C32   C     C_R   0.595204 0.018661 0.633841 0.209373
C33   C     C_R   0.430581 0.429695 0.865134 0.194951
C34   C     C_R   0.568192 0.443704 0.689342 0.603478
C35   C     C_R   0.981458 0.576565 0.633879 0.209483
C36   C     C_R   0.569909 0.000552 0.865079 0.194789
C37   C     C_R   0.423539 0.404849 0.633824 0.209425
C38   C     C_R   0.576534 0.980900 0.366180 0.211631
C39   C     C_R   0.001084 0.570502 0.134826 0.195818
C40   C     C_R   0.405376 0.423675 0.366153 0.208546
C41   C     C_R   0.569536 0.998520 0.134795 0.197294
C42   C     C_R   0.018871 0.595173 0.366243 0.210126
C43   C     C_R   0.429837 0.430679 0.134851 0.194969
C44   C     C_R   0.022125 0.594828 0.907738 -0.128018
C45   C     C_R   0.876120 0.432065 0.810429 0.640211
C46   C     C_R   0.596526 0.995886 0.591201 -0.109867
C47   C     C_R   0.405167 0.427047 0.907772 -0.128033
C48   C     C_R   0.004350 0.600689 0.591247 -0.109886
C49   C     C_R   0.572509 0.977668 0.907708 -0.128247
C50   C     C_R   0.399474 0.403502 0.591181 -0.109721
C51   C     C_R   0.600565 0.003472 0.408855 -0.114207
C52   C     C_R   0.978411 0.573214 0.092182 -0.127590
C53   C     C_R   0.404014 0.399567 0.408794 -0.109513
C54   C     C_R   0.594876 0.021131 0.092146 -0.127816
C55   C     C_R   0.996326 0.596613 0.408900 -0.110307
C56   C     C_R   0.556292 0.124473 0.689343 0.603470
C57   C     C_R   0.427158 0.405276 0.092210 -0.127875
C58   C     C_R   0.964439 0.514424 0.938184 -0.035383
C59   C     C_R   0.545886 0.030401 0.562018 -0.052330
C60   C     C_R   0.485681 0.450008 0.938201 -0.035367
C61   C     C_R   0.969924 0.515563 0.562060 -0.052202
C62   C     C_R   0.549907 0.035419 0.938169 -0.035483
C63   C     C_R   0.484646 0.454021 0.562001 -0.052132
C64   C     C_R   0.515376 0.969263 0.438006 -0.050146
C65   C     C_R   0.035976 0.550221 0.061767 -0.035061
C66   C     C_R   0.453859 0.484718 0.438018 -0.051750
C67   C     C_R   0.443697 0.568211 0.310660 0.605224
C68   C     C_R   0.514159 0.963919 0.061751 -0.035169
C69   C     C_R   0.031328 0.546377 0.438072 -0.053058
C70   C     C_R   0.449887 0.485733 0.061784 -0.035119
C71   C     C_R   0.885627 0.407564 0.926477 0.475360
C72   C     C_R   0.490492 0.084726 0.575016 0.446803
C73   C     C_R   0.592603 0.478311 0.926472 0.475341
C74   C     C_R   0.915566 0.405849 0.575042 0.446864
C75   C     C_R   0.522018 0.114362 0.926479 0.475531
C76   C     C_R   0.594351 0.509309 0.575003 0.446752
C77   C     C_R   0.405708 0.915403 0.424970 0.446850
C78   C     C_R   0.432039 0.876071 0.189557 0.641366
C79   C     C_R   0.114528 0.521839 0.073517 0.474958
C80   C     C_R   0.508419 0.594460 0.425069 0.446454
C81   C     C_R   0.407116 0.885796 0.073527 0.474941
C82   C     C_R   0.085988 0.491334 0.425055 0.446277
C83   C     C_R   0.477980 0.592590 0.073519 0.475050
C84   C     C_R   0.862479 0.381124 0.884483 0.414268
C85   C     C_R   0.488891 0.108667 0.617004 0.377729
C86   C     C_R   0.619000 0.481604 0.884473 0.414401
C87   C     C_R   0.891506 0.380279 0.617020 0.377821
C88   C     C_R   0.518762 0.137569 0.884488 0.414473
C89   C     C_R   0.124528 0.556320 0.310666 0.606334
C90   C     C_R   0.619859 0.510941 0.616995 0.377774
C91   C     C_R   0.380214 0.891599 0.382976 0.376797
C92   C     C_R   0.137534 0.518474 0.115523 0.413272
C93   C     C_R   0.510064 0.619986 0.383081 0.379262
C94   C     C_R   0.380784 0.862841 0.115538 0.413623
C95   C     C_R   0.109667 0.489586 0.383049 0.384073
C96   C     C_R   0.481312 0.618976 0.115521 0.413887
Cr1   Cr    Cr6+3 0.504240 0.249200 0.750000 1.239008
Cr2   Cr    Cr6+3 0.744960 0.495760 0.750000 1.239043
Cr3   Cr    Cr6+3 0.750800 0.255040 0.750000 1.238926
Cr4   Cr    Cr6+3 0.249200 0.504240 0.250000 1.246017
Cr5   Cr    Cr6+3 0.495760 0.744960 0.250000 1.214966
Cr6   Cr    Cr6+3 0.255040 0.750800 0.250000 1.238214
F1    F     F_    0.217121 0.494221 0.125815 -0.589378
F2    F     F_    0.495001 0.217518 0.874249 -0.589228
F3    F     F_    0.832178 0.272094 0.627840 -0.556382
F4    F     F_    0.722820 0.505757 0.874201 -0.588907
F5    F     F_    0.169597 0.497890 0.044163 -0.548398
F6    F     F_    0.322686 0.883103 0.453234 -0.539328
F7    F     F_    0.501679 0.671514 0.044155 -0.548561
F8    F     F_    0.119100 0.441362 0.453341 -0.539366
F9    F     F_    0.327956 0.831070 0.044193 -0.548453
F10   F     F_    0.557977 0.677470 0.453404 -0.539777
F11   F     F_    0.440094 0.117331 0.546724 -0.539443
F12   F     F_    0.272030 0.832711 0.372107 -0.556589
F13   F     F_    0.830440 0.328690 0.955861 -0.547952
F14   F     F_    0.677367 0.559593 0.546713 -0.539830
F15   F     F_    0.498459 0.169624 0.955875 -0.547988
F16   F     F_    0.883043 0.322878 0.546743 -0.539712
F17   F     F_    0.671579 0.502235 0.955839 -0.548091
F18   F     F_    0.505270 0.722726 0.125802 -0.589348
F19   F     F_    0.169258 0.441028 0.372176 -0.552494
F20   F     F_    0.276828 0.783596 0.125845 -0.588774
F21   F     F_    0.558026 0.728111 0.372279 -0.549961
F22   F     F_    0.440001 0.167966 0.627841 -0.556438
F23   F     F_    0.782656 0.277373 0.874228 -0.589071
F24   F     F_    0.728028 0.559728 0.627841 -0.556544
H1    H     H_    0.915536 0.592168 0.082570 0.199075
H2    H     H_    0.591077 0.914502 0.917271 0.199066
H3    H     H_    0.048339 0.685573 0.580692 0.214735
H4    H     H_    0.323351 0.408167 0.917368 0.199095
H5    H     H_    0.193072 0.678086 0.780017 0.398321
H6    H     H_    0.699092 0.840070 0.669943 0.397428
H7    H     H_    0.321327 0.514283 0.780089 0.398358
H8    H     H_    0.159886 0.859002 0.670023 0.397448
H9    H     H_    0.484754 0.806976 0.779925 0.398318
H10   H     H_    0.141111 0.301291 0.669905 0.397393
H11   H     H_    0.768136 0.955026 0.296713 0.379928
H12   H     H_    0.685408 0.047098 0.419476 0.205687
H13   H     H_    0.807245 0.486159 0.219866 0.398547
H14   H     H_    0.303475 0.141630 0.329949 0.396925
H15   H     H_    0.679900 0.192492 0.219712 0.400803
H16   H     H_    0.839714 0.698540 0.330279 0.394034
H17   H     H_    0.515111 0.321686 0.219763 0.398554
H18   H     H_    0.408445 0.323519 0.082609 0.199120
H19   H     H_    0.952135 0.637287 0.419485 0.214818
H20   H     H_    0.676803 0.083690 0.082515 0.198989
H21   H     H_    0.363692 0.314680 0.419326 0.214797
H22   H     H_    0.637445 0.951918 0.580635 0.214804
H23   H     H_    0.085202 0.676589 0.917315 0.199101
H24   H     H_    0.314599 0.362669 0.580610 0.214832
O1    O     O_R   0.480350 0.140770 0.796330 -0.447256
O2    O     O_R   0.140770 0.480350 0.203670 -0.445309
O3    O     O_R   0.519650 0.660420 0.296330 -0.437495
O4    O     O_R   0.339580 0.859230 0.203670 -0.446754
O5    O     O_R   0.514930 0.348530 0.793250 -0.437299
O6    O     O_R   0.833600 0.485070 0.706750 -0.441894
O7    O     O_R   0.651470 0.166400 0.793250 -0.437355
O8    O     O_R   0.514930 0.348530 0.706750 -0.442016
O9    O     O_R   0.833600 0.485070 0.793250 -0.437304
O10   O     O_R   0.651470 0.166400 0.706750 -0.442030
O11   O     O_R   0.348530 0.514930 0.293250 -0.442018
O12   O     O_R   0.660420 0.519650 0.703670 -0.436376
O13   O     O_R   0.485070 0.833600 0.206750 -0.438972
O14   O     O_R   0.166400 0.651470 0.293250 -0.444018
O15   O     O_R   0.348530 0.514930 0.206750 -0.436770
O16   O     O_R   0.485070 0.833600 0.293250 -0.439963
O17   O     O_R   0.166400 0.651470 0.206750 -0.437338
O18   O     O_3   0.666667 0.333333 0.750000 -0.353931
O19   O     O_3   0.333333 0.666667 0.250000 -0.352992
O20   O     O_2   0.007921 0.706836 0.805038 -0.177011
O21   O     O_2   0.173992 0.768483 0.847712 -0.249665
O22   O     O_3   0.127043 0.614644 0.792478 -0.488529
O23   O     O_R   0.859230 0.339580 0.796330 -0.447272
O24   O     O_2   0.772950 0.061108 0.678846 -0.165242
O25   O     O_2   0.592343 0.932769 0.709119 -0.248707
O26   O     O_3   0.664348 0.863093 0.648189 -0.488749
O27   O     O_2   0.293122 0.300567 0.805117 -0.177136
O28   O     O_2   0.231228 0.404789 0.847790 -0.249742
O29   O     O_3   0.384878 0.511800 0.792506 -0.488238
O30   O     O_2   0.938839 0.711764 0.678873 -0.165268
O31   O     O_2   0.067214 0.659559 0.709175 -0.248731
O32   O     O_3   0.136916 0.801267 0.648262 -0.488758
O33   O     O_2   0.698702 0.991810 0.805020 -0.177153
O34   O     O_R   0.480350 0.140770 0.703670 -0.436356
O35   O     O_2   0.594039 0.825700 0.847641 -0.249694
O36   O     O_3   0.487411 0.873013 0.792411 -0.488444
O37   O     O_2   0.288114 0.227206 0.678838 -0.165237
O38   O     O_2   0.340539 0.407874 0.709093 -0.248820
O39   O     O_3   0.198891 0.335979 0.648155 -0.488768
O40   O     O_2   0.659899 0.068253 0.291156 -0.249791
O41   O     O_2   0.790280 0.122784 0.349500 -0.223312
O42   O     O_3   0.711709 0.925595 0.319113 -0.410422
O43   O     O_2   0.992793 0.699753 0.194805 -0.179512
O44   O     O_2   0.826700 0.595553 0.152127 -0.251165
O45   O     O_R   0.660420 0.519650 0.796330 -0.447132
O46   O     O_3   0.873238 0.488550 0.207453 -0.485868
O47   O     O_2   0.228332 0.287784 0.320963 -0.158016
O48   O     O_2   0.409437 0.341251 0.290886 -0.249897
O49   O     O_3   0.337755 0.199352 0.351739 -0.489268
O50   O     O_2   0.706946 0.006063 0.194700 -0.194525
O51   O     O_2   0.769370 0.172272 0.152049 -0.247590
O52   O     O_3   0.616144 0.126372 0.207449 -0.487512
O53   O     O_2   0.060601 0.772536 0.321136 -0.168068
O54   O     O_2   0.932352 0.591678 0.291032 -0.247253
O55   O     O_3   0.862810 0.663747 0.351986 -0.489854
O56   O     O_R   0.859230 0.339580 0.703670 -0.436440
O57   O     O_2   0.301176 0.293334 0.194984 -0.177458
O58   O     O_2   0.405125 0.231397 0.152167 -0.250117
O59   O     O_3   0.512517 0.385189 0.207362 -0.488505
O60   O     O_R   0.140770 0.480350 0.296330 -0.427319
O61   O     O_R   0.519650 0.660420 0.203670 -0.450303
O62   O     O_R   0.339580 0.859230 0.296330 -0.437091
S1    S     S_3+6 0.078741 0.670285 0.827274 0.092189
S2    S     S_3+6 0.670942 0.077436 0.172553 0.090250
S3    S     S_3+6 0.969547 0.657567 0.330756 0.098685
S4    S     S_3+6 0.408376 0.329697 0.172651 0.091698
S5    S     S_3+6 0.658009 0.969817 0.669342 0.100027
S6    S     S_3+6 0.329503 0.407926 0.827329 0.092179
S7    S     S_3+6 0.030194 0.688175 0.669389 0.100016
S8    S     S_3+6 0.591284 0.921082 0.827229 0.092109
S9    S     S_3+6 0.311881 0.342181 0.669321 0.099990
S10   S     S_3+6 0.687961 0.029135 0.330542 0.105249
S11   S     S_3+6 0.921793 0.592377 0.172609 0.091013
S12   S     S_3+6 0.343443 0.312118 0.330592 0.100941

loop_
_geom_bond_atom_site_label_1
_geom_bond_atom_site_label_2
_ccdc_geom_bond_type
C19   C56   S    
C52   C65   A    
C21   C87   A    
Cr6   O17   S    
C65   C79   A    
O35   S8    D    
C29   C42   A    
C64   C77   A    
C60   C73   A    
C75   F15   S    
C93   F21   S    
O27   S6    D    
O47   S12   D    
C36   S8    S    
C7    C70   S    
C29   C89   S    
C72   C85   A    
C66   C80   A    
H17   O59   S    
O20   S1    D    
C33   S6    S    
Cr5   O61   S    
O54   S3    D    
C2    O61   A    
O33   S8    D    
C40   S12   S    
C73   F17   S    
C68   C81   A    
C82   F8    S    
O53   S3    D    
C1    O45   A    
H14   O49   S    
H8    O32   S    
C71   C84   A    
O40   S10   D    
C42   C55   A    
O39   S9    S    
C58   C71   A    
C55   H19   S    
C54   C68   A    
C63   C76   A    
C43   S4    S    
C26   C92   A    
C28   C41   A    
C53   H21   S    
C85   F22   S    
C28   C94   A    
H6    O26   S    
H16   O55   S    
C6    C64   S    
C1    O5    A    
C50   H24   S    
C30   C96   A    
C69   C82   A    
C92   F1    S    
C88   F2    S    
C47   C60   A    
C46   H22   S    
C81   F9    S    
C44   C58   A    
C7    C17   T    
C20   C86   A    
O31   S7    D    
O50   S2    D    
C83   F7    S    
Cr5   O19   S    
Cr4   O11   S    
C42   S3    S    
C22   C88   A    
C57   C70   A    
C82   C95   A    
C28   C78   S    
Cr6   O4    S    
C89   O14   A    
C5    C13   T    
C32   S5    S    
O41   S10   D    
C59   C72   A    
C54   H20   S    
C30   C43   A    
O38   S9    D    
C95   F19   S    
Cr6   O19   S    
C39   C52   A    
O32   S7    S    
O58   S4    D    
Cr3   O10   S    
C50   C63   A    
O25   S5    D    
C39   S11   S    
C86   F4    S    
C12   O6    A    
C11   C59   S    
C19   C32   A    
O51   S2    D    
Cr2   O12   S    
C52   H1    S    
C96   F18   S    
C10   C66   S    
C90   F24   S    
C74   F16   S    
Cr2   O6    S    
H5    O22   S    
C25   C91   A    
O59   S4    S    
C31   C44   A    
Cr3   O56   S    
C79   F5    S    
C8    C16   T    
C70   C83   A    
C3    C25   S    
C27   C67   S    
H15   O52   S    
C5    C65   S    
C10   C14   T    
C6    C11   T    
C29   C95   A    
C8    C69   S    
C78   O4    A    
C38   C51   A    
C56   O34   A    
C19   C85   A    
O36   S8    S    
C72   F11   S    
C24   C34   S    
C18   C31   A    
C24   C90   A    
Cr4   O15   S    
C12   O56   A    
O48   S12   D    
C36   C49   A    
C53   C66   A    
C45   O23   A    
C25   C38   A    
H11   O42   S    
C67   O11   A    
C18   C84   A    
Cr3   O23   S    
Cr5   O3    S    
C27   C40   A    
O43   S11   D    
C80   F10   S    
C24   C37   A    
Cr1   O1    S    
C71   F13   S    
Cr4   O2    S    
O24   S5    D    
O52   S2    S    
C4    O2    A    
C41   C54   A    
C2    O15   A    
C79   C92   A    
C55   C69   A    
C12   C21   S    
C87   F3    S    
C21   C35   A    
C20   C33   A    
C94   F20   S    
O26   S5    S    
Cr3   O7    S    
O29   S6    S    
Cr4   O60   S    
C47   H4    S    
C74   C87   A    
C48   H3    S    
C27   C93   A    
C16   C61   S    
O22   S1    S    
C18   C45   S    
C34   O8    A    
C22   C36   A    
H13   O46   S    
Cr1   O34   S    
Cr3   O18   S    
C84   F23   S    
C13   C58   S    
C49   H2    S    
C23   O1    A    
C77   C91   A    
C1    C20   S    
C49   C62   A    
H9    O36   S    
C57   H18   S    
Cr4   O19   S    
C32   C46   A    
O28   S6    D    
C77   F6    S    
H7    O29   S    
C51   C64   A    
C3    O62   A    
C34   O12   A    
C35   S7    S    
C4    C26   S    
C81   C94   A    
C91   F12   S    
C89   O60   A    
C31   S1    S    
C61   C74   A    
Cr1   O18   S    
O37   S9    D    
C44   H23   S    
C4    O17   A    
C67   O3    A    
H10   O39   S    
C2    C30   S    
Cr1   O8    S    
C38   S10   S    
C9    C15   T    
C9    C68   S    
C37   S9    S    
C56   O10   A    
C41   S2    S    
Cr6   O62   S    
C48   C61   A    
C33   C47   A    
C83   C96   A    
C23   O7    A    
Cr5   O13   S    
C37   C50   A    
O57   S4    D    
C76   F14   S    
C15   C62   S    
Cr2   O45   S    
C14   C63   S    
Cr1   O5    S    
C45   O9    A    
Cr5   O16   S    
C26   C39   A    
C73   C86   A    
O46   S11   S    
C35   C48   A    
C43   C57   A    
C17   C60   S    
O42   S10   S    
O21   S1    D    
C51   H12   S    
C75   C88   A    
C78   O13   A    
Cr2   O9    S    
O55   S3    S    
C46   C59   A    
Cr6   O14   S    
C40   C53   A    
C22   C23   S    
O30   S7    D    
O49   S12   S    
C80   C93   A    
Cr2   O18   S    
C62   C75   A    
C3    O16   A    
C76   C90   A    
O44   S11   D    
