data_mof_unit_59671.cif
_audit_creation_date              2012-12-10T17:48:44-0500
_audit_creation_method            fapswitch 2.2
_symmetry_space_group_name_H-M    P1
_symmetry_Int_Tables_number       1
_space_group_crystal_system       triclinic
_cell_length_a                    15.733733
_cell_length_b                    10.714098
_cell_length_c                    9.884532
_cell_angle_alpha                 90.758106
_cell_angle_beta                  89.903686
_cell_angle_gamma                 91.675222
_cell_volume                      1665.40345724

loop_
_atom_site_label
_atom_site_type_symbol
_atom_type_description
_atom_site_fract_x
_atom_site_fract_y
_atom_site_fract_z
_atom_type_partial_charge
C1    C     C_R   0.506723 0.260505 0.499666 0.886336
C2    C     C_3   0.950504 0.470929 0.642960 -0.349050
C3    C     C_3   0.917539 0.501909 0.499731 0.201203
C4    C     C_3   0.954097 0.632212 0.456631 0.062540
C5    C     C_3   0.052415 0.631578 0.458030 -0.435086
C6    C     C_1   0.825933 0.501497 0.499765 -0.009879
C7    C     C_1   0.174144 0.500901 0.499974 -0.078551
C8    C     C_1   0.249456 0.500370 0.500181 -0.191847
C9    C     C_R   0.565924 0.120369 0.736937 -0.123772
C10   C     C_R   0.560776 0.064315 0.863156 -0.126380
C11   C     C_R   0.515911 0.951667 0.876886 -0.160683
C12   C     C_R   0.338328 0.499855 0.500122 0.876334
C13   C     C_R   0.483257 0.889906 0.762408 -0.142788
C14   C     C_R   0.495753 0.940250 0.631294 0.052090
C15   C     C_R   0.525565 0.063798 0.622432 0.098194
C16   C     C_R   0.511401 0.127139 0.500322 -0.193175
C17   C     C_R   0.484608 0.063106 0.383487 -0.306584
C18   C     C_R   0.469940 0.936422 0.385789 0.459909
C19   C     C_R   0.480899 0.872884 0.508083 -0.277369
C20   C     C_R   0.391189 0.332505 0.138549 -0.164989
C21   C     C_R   0.338480 0.248577 0.067340 -0.202845
C22   C     C_R   0.338050 0.248919 0.927366 -0.183693
C23   C     C_R   0.491938 0.739520 0.501862 0.917966
C24   C     C_R   0.390431 0.333020 0.857871 -0.139320
C25   C     C_R   0.446280 0.417370 0.926671 0.159783
C26   C     C_R   0.446462 0.417258 0.071438 0.153541
C27   C     C_R   0.550847 0.579730 0.072591 -0.093046
C28   C     C_R   0.550864 0.579641 0.929297 -0.137948
C29   C     C_R   0.661683 0.500365 0.499864 0.910035
C30   C     C_3   0.048525 0.471515 0.642885 -0.399134
C31   C     C_3   0.047375 0.401750 0.398275 -0.461192
C32   C     C_3   0.948779 0.401881 0.396722 0.330594
C33   C     C_1   0.750593 0.500898 0.499722 -0.148622
C34   C     C_3   0.082722 0.501471 0.499708 0.253959
H1    H     H_    0.925287 0.377691 0.674737 0.204644
H2    H     H_    0.073340 0.542366 0.717382 0.184924
H3    H     H_    0.927914 0.539832 0.719054 0.203739
H4    H     H_    0.932649 0.651653 0.351907 0.120143
H5    H     H_    0.473326 0.111169 0.289670 0.188819
H6    H     H_    0.601841 0.207688 0.730115 0.157732
H7    H     H_    0.589369 0.110151 0.950845 0.142635
H8    H     H_    0.507725 0.910917 0.975864 0.177515
H9    H     H_    0.445818 0.805465 0.779400 0.166419
H10   H     H_    0.592290 0.644869 0.127377 0.163440
H11   H     H_    0.070553 0.378738 0.675307 0.179238
H12   H     H_    0.386326 0.328513 0.245720 0.203470
H13   H     H_    0.297103 0.183755 0.121285 0.141824
H14   H     H_    0.296263 0.184441 0.872110 0.146501
H15   H     H_    0.384630 0.329533 0.750727 0.204356
H16   H     H_    0.592320 0.644710 0.876065 0.163777
H17   H     H_    0.071991 0.421270 0.294784 0.133895
H18   H     H_    0.069869 0.308013 0.426564 0.202044
H19   H     H_    0.927295 0.430176 0.293944 0.028939
H20   H     H_    0.078656 0.704030 0.529376 0.217680
H21   H     H_    0.077156 0.654990 0.355560 0.153135
N1    N     N_R   0.499210 0.498800 0.142780 -0.126760
N2    N     N_R   0.499180 0.498720 0.857170 -0.126967
O1    O     O_R   0.500000 0.316780 0.614690 -0.649352
O2    O     O_R   0.499990 0.316750 0.385360 -0.641379
O3    O     O_R   0.377150 0.500020 0.614720 -0.637226
O4    O     O_R   0.377140 0.499990 0.385380 -0.636273
O5    O     O_R   0.500010 0.683250 0.614640 -0.634537
O6    O     O_R   0.500000 0.683220 0.385310 -0.558364
O7    O     O_R   0.622860 0.500010 0.614620 -0.610922
O8    O     O_R   0.622850 0.499980 0.385280 -0.615752
Zn1   Zn    Zn3+2 0.500010 0.500020 0.653130 0.925432
Zn2   Zn    Zn3+2 0.499990 0.499980 0.346870 0.947613
O9    O     O_3   0.448747 0.875367 0.265750 -0.598496
C35   C     C_3   0.359666 0.855771 0.261575 0.114643
H22   H     H_    0.327129 0.946708 0.259098 0.121413
H23   H     H_    0.336394 0.801391 0.350336 0.126743
C36   C     C_3   0.336080 0.781703 0.134056 -0.801731
H24   H     H_    0.367617 0.690312 0.133909 0.268596
H25   H     H_    0.266149 0.764851 0.130196 0.199257
H26   H     H_    0.356371 0.834482 0.043037 0.238869
O10   O     O_3   0.915114 0.282243 0.432324 -0.595169
C37   C     C_3   0.903457 0.205740 0.315985 0.056335
H27   H     H_    0.963014 0.201417 0.255180 0.135475
H28   H     H_    0.851492 0.241600 0.252260 0.144403
C38   C     C_3   0.878515 0.074031 0.359316 -0.722554
H29   H     H_    0.818670 0.074985 0.419064 0.262673
H30   H     H_    0.868617 0.013038 0.268669 0.202438
H31   H     H_    0.929766 0.035586 0.422128 0.278510
Br1   Br    Br    0.912844 0.769197 0.569559 -0.588320

loop_
_geom_bond_atom_site_label_1
_geom_bond_atom_site_label_2
_ccdc_geom_bond_type
C2    H1    S    
C22   H14   S    
C30   H11   S    
C31   H18   S    
C3    C6    S    
C7    C8    T    
C37   H27   S    
C38   H31   S    
C18   O9    S    
C15   C16   A    
C29   C33   S    
C11   H8    S    
C18   C19   A    
C17   H5    S    
C35   H23   S    
O2    Zn2   S    
C28   H16   S    
C27   H10   S    
O1    Zn1   S    
C23   O5    A    
O9    C35   S    
O8    Zn2   S    
C9    C10   A    
N2    Zn1   S    
C23   O6    A    
C29   O7    A    
O3    Zn1   S    
C13   C14   A    
C10   H7    S    
C3    C32   S    
C25   N2    A    
C36   H26   S    
C37   H28   S    
O6    Zn2   S    
O5    Zn1   S    
C5    H20   S    
O10   C37   S    
C38   H30   S    
C30   C34   S    
C27   N1    A    
C38   H29   S    
C25   C26   A    
C28   N2    A    
C9    H6    S    
O7    Zn1   S    
C35   C36   S    
C19   C23   S    
O4    Zn2   S    
C31   C32   S    
C4    Br1   S    
C8    C12   S    
C5    C34   S    
C17   C18   A    
C31   C34   S    
C1    C16   S    
C24   C25   A    
C29   O8    A    
C36   H25   S    
C4    H4    S    
C7    C34   S    
C22   C24   A    
C3    C4    S    
C32   H19   S    
C13   H9    S    
C37   C38   S    
C24   H15   S    
C14   C19   A    
C5    H21   S    
C31   H17   S    
C36   H24   S    
C26   N1    A    
C32   O10   S    
N1    Zn2   S    
C6    C33   T    
C30   H2    S    
C2    C30   S    
C1    O2    A    
C2    C3    S    
C9    C15   A    
C1    O1    A    
C12   O4    A    
C11   C13   A    
C2    H3    S    
C16   C17   A    
C20   C26   A    
C35   H22   S    
C10   C11   A    
C12   O3    A    
C4    C5    S    
C20   C21   A    
C27   C28   A    
C14   C15   A    
C21   C22   A    
C20   H12   S    
C21   H13   S    
