data_mof_unit_37703.cif
_audit_creation_date              2012-12-10T18:58:43-0500
_audit_creation_method            fapswitch 2.2
_symmetry_space_group_name_H-M    P1
_symmetry_Int_Tables_number       1
_space_group_crystal_system       triclinic
_cell_length_a                    10.735761
_cell_length_b                    9.789295
_cell_length_c                    17.3898
_cell_angle_alpha                 90.21506
_cell_angle_beta                  90.030709
_cell_angle_gamma                 88.719776
_cell_volume                      1827.12101316

loop_
_atom_site_label
_atom_site_type_symbol
_atom_type_description
_atom_site_fract_x
_atom_site_fract_y
_atom_site_fract_z
_atom_type_partial_charge
C1    C     C_R   0.259706 0.502293 0.497795 1.012865
C2    C     C_R   0.504994 0.500021 0.647315 0.932431
C3    C     C_R   0.872695 0.497514 0.502432 -0.432259
C4    C     C_R   0.127041 0.508890 0.493005 -0.432231
C5    C     C_R   0.556192 0.620237 0.851239 -0.264617
C6    C     C_R   0.515764 0.386293 0.146643 -0.267507
C7    C     C_R   0.638722 0.589566 0.161017 -0.266817
C8    C     C_R   0.604694 0.377954 0.843984 -0.259663
C9    C     C_R   0.527283 0.622941 0.772939 0.479529
C10   C     C_R   0.487387 0.388509 0.225029 0.453823
C11   C     C_R   0.611146 0.594280 0.239235 0.472793
C12   C     C_R   0.740165 0.498660 0.502080 0.998021
C13   C     C_R   0.575418 0.377009 0.766000 0.471386
C14   C     C_R   0.532295 0.499382 0.730182 -0.271984
C15   C     C_R   0.530691 0.496784 0.270807 -0.264468
C16   C     C_R   0.431564 0.074125 0.552818 -0.040601
C17   C     C_R   0.568434 0.925974 0.447219 -0.120593
C18   C     C_R   0.568280 0.070157 0.447160 -0.094099
C19   C     C_R   0.431543 0.929903 0.552779 -0.107547
C20   C     C_R   0.595132 0.498818 0.885788 0.002405
C21   C     C_R   0.590863 0.486160 0.115496 0.003376
C22   C     C_3   0.579771 0.838831 0.738185 -0.260538
C23   C     C_1   0.607024 0.494538 0.966597 0.000670
C24   C     C_3   0.460506 0.160891 0.248630 -0.264910
C25   C     C_3   0.782959 0.656990 0.305235 -0.334379
C26   C     C_3   0.706053 0.226404 0.705182 -0.302731
C27   C     C_3   0.135425 0.344209 0.337392 -0.181218
C28   C     C_3   0.841635 0.821575 0.559477 -0.209342
C29   C     C_3   0.891066 0.167486 0.475019 -0.241591
C30   C     C_3   0.127472 0.835400 0.505233 -0.272484
C31   C     C_1   0.605730 0.490635 0.034907 -0.002280
C32   C     C_R   0.066075 0.401475 0.456430 0.351241
C33   C     C_R   0.932662 0.608849 0.536381 0.379695
C34   C     C_R   0.938496 0.391923 0.464221 0.359664
C35   C     C_R   0.060505 0.618982 0.527518 0.396823
C36   C     C_R   0.504205 0.499504 0.353033 0.931750
H1    H     H_    0.544192 0.712072 0.885711 0.161727
H2    H     H_    0.599290 0.879474 0.796589 0.157875
H3    H     H_    0.549373 0.926731 0.702253 0.197121
H4    H     H_    0.560916 0.156565 0.264963 0.157971
H5    H     H_    0.447776 0.121154 0.189310 0.155318
H6    H     H_    0.410791 0.092046 0.288133 0.194385
H7    H     H_    0.785794 0.555991 0.334539 0.161980
H8    H     H_    0.819132 0.733362 0.346400 0.171620
H9    H     H_    0.845680 0.654794 0.254329 0.162447
H10   H     H_    0.744269 0.310642 0.670015 0.163548
H11   H     H_    0.709241 0.132489 0.669230 0.168569
H12   H     H_    0.476022 0.309467 0.109534 0.159765
H13   H     H_    0.765679 0.207222 0.756526 0.155634
H14   H     H_    0.177266 0.259679 0.302803 0.218887
H15   H     H_    0.194714 0.435229 0.330777 0.143938
H16   H     H_    0.040610 0.365586 0.313640 0.145475
H17   H     H_    0.749931 0.856756 0.582307 0.168297
H18   H     H_    0.834285 0.823760 0.495542 0.117028
H19   H     H_    0.910953 0.895659 0.579951 0.165984
H20   H     H_    0.843423 0.082003 0.446223 0.149147
H21   H     H_    0.990337 0.135278 0.482059 0.178849
H22   H     H_    0.847125 0.183199 0.532418 0.144581
H23   H     H_    0.695856 0.667629 0.135855 0.164056
H24   H     H_    0.044820 0.844313 0.466801 0.103833
H25   H     H_    0.135689 0.933885 0.536385 0.169037
H26   H     H_    0.211105 0.823039 0.468420 0.197249
H27   H     H_    0.631545 0.283214 0.872240 0.162513
H28   H     H_    0.376923 0.130674 0.594936 0.152534
H29   H     H_    0.623453 0.869599 0.405335 0.181366
H30   H     H_    0.622673 0.123633 0.405035 0.153481
H31   H     H_    0.376833 0.876511 0.594825 0.193798
H32   H     H_    0.666423 0.794575 0.712033 0.171936
N1    N     N_R   0.500000 0.857200 0.500000 -0.087290
N2    N     N_R   0.500000 0.142800 0.500000 -0.072967
O1    O     O_R   0.316770 0.614620 0.500000 -0.609455
O2    O     O_3   0.407929 0.293739 0.256172 -0.618773
O3    O     O_3   0.660415 0.696473 0.284294 -0.600806
O4    O     O_3   0.581246 0.254011 0.726550 -0.589738
O5    O     O_3   0.131333 0.302607 0.414846 -0.577412
O6    O     O_3   0.869603 0.690726 0.589818 -0.572855
O7    O     O_3   0.877418 0.285379 0.428886 -0.577041
O8    O     O_3   0.120558 0.728901 0.560121 -0.549766
O9    O     O_R   0.683230 0.385380 0.500000 -0.602913
O10   O     O_R   0.683230 0.614620 0.500000 -0.611255
O11   O     O_R   0.316770 0.385380 0.500000 -0.579952
O12   O     O_R   0.500010 0.614710 0.389120 -0.596913
O13   O     O_R   0.499990 0.385290 0.610880 -0.591088
O14   O     O_R   0.499990 0.614710 0.610880 -0.571784
O15   O     O_R   0.500010 0.385290 0.389120 -0.581824
O16   O     O_3   0.483226 0.743209 0.739832 -0.584407
Zn1   Zn    Zn3+2 0.500000 0.653120 0.500000 0.976054
Zn2   Zn    Zn3+2 0.500000 0.346880 0.500000 0.995621

loop_
_geom_bond_atom_site_label_1
_geom_bond_atom_site_label_2
_ccdc_geom_bond_type
C18   N2    A    
C17   N1    A    
C8    C13   A    
C5    H1    S    
C24   H6    S    
C2    O14   A    
O14   Zn1   S    
N2    Zn2   S    
C25   H7    S    
C32   O5    S    
C5    C20   A    
C7    C11   A    
C21   C31   S    
C8    C20   A    
C6    H12   S    
O10   Zn1   S    
C10   C15   A    
C34   O7    S    
C3    C33   A    
C1    O11   A    
O12   Zn1   S    
C22   H2    S    
C12   O9    A    
C3    C12   S    
C26   O4    S    
C11   C15   A    
C36   O12   A    
C30   H24   S    
C19   H31   S    
N1    Zn1   S    
C27   H14   S    
O13   Zn2   S    
C4    C35   A    
C13   C14   A    
C24   H5    S    
C2    O13   A    
C27   O5    S    
C25   H8    S    
C7    H23   S    
O9    Zn2   S    
C28   H19   S    
C27   H15   S    
C16   N2    A    
C11   O3    S    
C26   H13   S    
C28   H18   S    
C3    C34   A    
C7    C21   A    
C6    C21   A    
C23   C31   T    
C9    C14   A    
C5    C9    A    
C9    O16   S    
C33   O6    S    
C20   C23   S    
C17   C18   A    
C1    O1    A    
C29   H22   S    
C22   H32   S    
C4    C32   A    
C26   H11   S    
O1    Zn1   S    
C29   H21   S    
C30   H26   S    
C19   N1    A    
C28   O6    S    
C25   H9    S    
C15   C36   S    
C27   H16   S    
C24   O2    S    
O15   Zn2   S    
C24   H4    S    
C6    C10   A    
C28   H17   S    
C29   H20   S    
C36   O15   A    
C18   H30   S    
C35   O8    S    
C17   H29   S    
C1    C4    S    
C16   C19   A    
C22   H3    S    
C12   O10   A    
C33   C35   A    
C25   O3    S    
C22   O16   S    
C2    C14   S    
O11   Zn2   S    
C26   H10   S    
C8    H27   S    
C30   O8    S    
C29   O7    S    
C13   O4    S    
C30   H25   S    
C16   H28   S    
C32   C34   A    
C10   O2    S    
