data_mof_unit_68104.cif
_audit_creation_date              2013-03-05T15:58:25-0500
_audit_creation_method            fapswitch 2.2
_symmetry_space_group_name_H-M    P1
_symmetry_Int_Tables_number       1
_space_group_crystal_system       triclinic
_cell_length_a                    7.169751
_cell_length_b                    15.316171
_cell_length_c                    15.588169
_cell_angle_alpha                 90.000086
_cell_angle_beta                  89.999952
_cell_angle_gamma                 89.9999
_cell_volume                      1711.78566538

loop_
_atom_site_label
_atom_site_type_symbol
_atom_site_description
_atom_site_fract_x
_atom_site_fract_y
_atom_site_fract_z
_atom_type_partial_charge
O1    O     O_R   0.388780 0.834790 0.412340 -0.614160
O2    O     O_R   0.111220 0.165210 0.912340 -0.614159
O3    O     O_R   0.888780 0.665210 0.587660 -0.614153
O4    O     O_R   0.611220 0.334790 0.087660 -0.614158
O5    O     O_R   0.059040 0.845930 0.587040 -0.512555
O6    O     O_R   0.440960 0.154070 0.087040 -0.512559
O7    O     O_R   0.559040 0.654070 0.412960 -0.512559
O8    O     O_R   0.940960 0.345930 0.912960 -0.512560
C1    C     C_R   0.226362 0.863525 0.619947 1.025970
C2    C     C_R   0.273638 0.136476 0.119947 1.025967
C3    C     C_R   0.726362 0.636475 0.380053 1.025966
C4    C     C_R   0.773638 0.363524 0.880053 1.025965
O9    O     O_R   0.059070 0.845930 0.412970 -0.570914
O10   O     O_R   0.440930 0.154070 0.912970 -0.570914
O11   O     O_R   0.559070 0.654070 0.587030 -0.570917
O12   O     O_R   0.940930 0.345930 0.087030 -0.570914
O13   O     O_R   0.888760 0.665210 0.412340 -0.601201
O14   O     O_R   0.611240 0.334790 0.912340 -0.601197
O15   O     O_R   0.388760 0.834790 0.587660 -0.601199
O16   O     O_R   0.111240 0.165210 0.087660 -0.601194
C5    C     C_R   0.227539 0.866418 0.383343 1.081736
C6    C     C_R   0.272461 0.133581 0.883343 1.081745
C7    C     C_R   0.727539 0.633581 0.616656 1.081745
C8    C     C_R   0.772461 0.366420 0.116656 1.081753
O17   O     O_3   0.222280 0.690700 0.500000 -0.273408
O18   O     O_3   0.277720 0.309300 0.000000 -0.273407
O19   O     O_3   0.722280 0.809300 0.500000 -0.273408
O20   O     O_3   0.777720 0.190700 0.000000 -0.273405
V1    V     V_3+5 0.947430 0.761000 0.500000 1.315774
V2    V     V_3+5 0.552570 0.239000 0.000000 1.315777
V3    V     V_3+5 0.447430 0.739000 0.500000 1.315770
V4    V     V_3+5 0.052570 0.261000 0.000000 1.315777
C9    C     C_3   0.856110 0.594089 0.767636 0.513937
C10   C     C_3   0.643901 0.405909 0.267637 0.513945
C11   C     C_3   0.356118 0.905913 0.232364 0.513936
C12   C     C_3   0.143893 0.094090 0.732363 0.513943
C13   C     C_3   0.873213 0.516925 0.834264 0.337292
C14   C     C_3   0.626790 0.483075 0.334264 0.337291
C15   C     C_3   0.373215 0.983076 0.165736 0.337302
C16   C     C_3   0.126784 0.016924 0.665736 0.337293
H1    H     H_    0.799462 0.537687 0.892538 0.183984
H2    H     H_    0.700537 0.462314 0.392541 0.183986
H3    H     H_    0.299463 0.962312 0.107462 0.183979
H4    H     H_    0.200528 0.037686 0.607460 0.183980
H5    H     H_    0.986921 0.505011 0.638564 0.153499
H6    H     H_    0.513073 0.494988 0.138569 0.153494
H7    H     H_    0.486913 0.994991 0.361442 0.153501
H8    H     H_    0.013078 0.005011 0.861433 0.153498
C17   C     C_3   0.842694 0.480768 0.649111 0.035648
C18   C     C_3   0.657300 0.519231 0.149113 0.035638
C19   C     C_3   0.342687 0.019232 0.350891 0.035643
C20   C     C_3   0.157305 0.980769 0.850888 0.035636
C21   C     C_3   0.543202 0.530973 0.719380 -0.304474
C22   C     C_3   0.956799 0.469028 0.219378 -0.304482
C23   C     C_3   0.043201 0.969025 0.280618 -0.304464
C24   C     C_3   0.456798 0.030974 0.780619 -0.304475
C25   C     C_3   0.739211 0.562040 0.686726 -0.382421
C26   C     C_3   0.760789 0.437960 0.186726 -0.382426
C27   C     C_3   0.239211 0.937959 0.313273 -0.382418
C28   C     C_3   0.260789 0.062041 0.813273 -0.382424
H9    H     H_    0.458944 0.502066 0.667218 0.272887
H10   H     H_    0.041055 0.497933 0.167214 0.272890
H11   H     H_    0.958941 0.997931 0.332779 0.272886
H12   H     H_    0.541054 0.002067 0.832781 0.272890
H13   H     H_    0.456760 0.586253 0.742123 0.240195
H14   H     H_    0.043239 0.413747 0.242120 0.240188
H15   H     H_    0.956761 0.913746 0.257875 0.240199
H16   H     H_    0.543238 0.086254 0.757877 0.240193
C29   C     C_3   0.768445 0.432238 0.805654 -0.439553
C30   C     C_3   0.731557 0.567761 0.305654 -0.439570
C31   C     C_3   0.268444 0.067761 0.194346 -0.439557
C32   C     C_3   0.231557 0.932239 0.694346 -0.439570
C33   C     C_3   0.848713 0.400379 0.713836 0.392088
C34   C     C_3   0.651288 0.599622 0.213837 0.392105
C35   C     C_3   0.348709 0.099621 0.286165 0.392090
C36   C     C_3   0.151293 0.900379 0.786164 0.392103
C37   C     C_3   0.561739 0.463454 0.792881 -0.439866
C38   C     C_3   0.938264 0.536547 0.292880 -0.439863
C39   C     C_3   0.061739 0.036546 0.207118 -0.439871
C40   C     C_3   0.438261 0.963456 0.707117 -0.439865
H17   H     H_    0.509361 0.493967 0.853108 0.224807
H18   H     H_    0.990646 0.506034 0.353106 0.224809
H19   H     H_    0.009363 0.006033 0.146891 0.224808
H20   H     H_    0.490635 0.993969 0.646891 0.224804
H21   H     H_    0.465398 0.407948 0.782028 0.279556
H22   H     H_    0.034602 0.592053 0.282025 0.279550
H23   H     H_    0.965397 0.092051 0.217971 0.279557
H24   H     H_    0.534604 0.907950 0.717969 0.279550
O21   O     O_3   0.037809 0.618164 0.741918 -0.745674
H25   H     H_    0.035961 0.679165 0.721506 0.373855
O22   O     O_3   0.462206 0.381825 0.241923 -0.745647
H26   H     H_    0.464071 0.320823 0.221508 0.373843
O23   O     O_3   0.537818 0.881842 0.258084 -0.745674
H27   H     H_    0.535973 0.820842 0.278501 0.373848
O24   O     O_3   0.962198 0.118171 0.758080 -0.745651
H28   H     H_    0.964059 0.179173 0.778494 0.373839
N1    N     N_R   0.778412 0.454671 0.563326 0.245505
O25   O     O_R   0.887437 0.407517 0.515284 -0.275470
O26   O     O_R   0.609739 0.471109 0.537198 -0.345270
N2    N     N_R   0.721575 0.545327 0.063326 0.245504
O27   O     O_R   0.612551 0.592487 0.015288 -0.275454
O28   O     O_R   0.890243 0.528887 0.037195 -0.345280
N3    N     N_R   0.278392 0.045330 0.436673 0.245501
O29   O     O_R   0.387395 0.092501 0.484711 -0.275443
O30   O     O_R   0.109725 0.028881 0.462802 -0.345281
N4    N     N_R   0.221586 0.954673 0.936674 0.245503
O31   O     O_R   0.112567 0.907511 0.984712 -0.275455
O32   O     O_R   0.390256 0.971113 0.962803 -0.345271
N5    N     N_R   0.733741 0.327563 0.680013 0.262334
O33   O     O_R   0.810571 0.253672 0.659415 -0.237782
O34   O     O_R   0.563559 0.340715 0.654366 -0.236967
N6    N     N_R   0.766267 0.672435 0.180014 0.262340
O35   O     O_R   0.689451 0.746333 0.159430 -0.237805
O36   O     O_R   0.936443 0.659280 0.154359 -0.236959
N7    N     N_R   0.233737 0.172438 0.319986 0.262333
O37   O     O_R   0.310568 0.246328 0.340587 -0.237775
O38   O     O_R   0.063554 0.159286 0.345633 -0.236966
N8    N     N_R   0.266273 0.827565 0.819987 0.262339
O39   O     O_R   0.189450 0.753671 0.840581 -0.237785
O40   O     O_R   0.436452 0.840721 0.845634 -0.236970
N9    N     N_R   0.767173 0.669071 0.811249 0.251173
O41   O     O_R   0.630558 0.711949 0.776254 -0.347558
O42   O     O_R   0.832860 0.696410 0.884318 -0.156309
N10   N     N_R   0.732856 0.330930 0.311248 0.251166
O43   O     O_R   0.869441 0.288044 0.276240 -0.347575
O44   O     O_R   0.667190 0.303593 0.384323 -0.156310
N11   N     N_R   0.267193 0.830928 0.188750 0.251177
O45   O     O_R   0.130558 0.788054 0.223735 -0.347550
O46   O     O_R   0.332896 0.803589 0.115683 -0.156304
N12   N     N_R   0.232838 0.169069 0.688749 0.251167
O47   O     O_R   0.369440 0.211952 0.723749 -0.347565
O48   O     O_R   0.167157 0.196407 0.615677 -0.156307
O49   O     O_3   0.058219 0.501731 0.861236 -0.612972
H29   H     H_    0.136914 0.490505 0.810402 0.361143
O50   O     O_3   0.441781 0.498267 0.361231 -0.612977
H30   H     H_    0.363089 0.509492 0.310395 0.361130
O51   O     O_3   0.558219 0.998270 0.138762 -0.612971
H31   H     H_    0.636916 0.009498 0.189594 0.361148
O52   O     O_3   0.941776 0.001731 0.638770 -0.612978
H32   H     H_    0.863088 0.990505 0.689606 0.361133
N13   N     N_R   0.046148 0.370786 0.717311 0.207859
O53   O     O_R   0.149529 0.374145 0.648658 -0.255789
O54   O     O_R   0.108476 0.324217 0.780364 -0.406889
N14   N     N_R   0.453855 0.629217 0.217314 0.207866
O55   O     O_R   0.350460 0.625848 0.148667 -0.255820
O56   O     O_R   0.391545 0.675801 0.280362 -0.406882
N15   N     N_R   0.546144 0.129213 0.282691 0.207859
O57   O     O_R   0.649525 0.125854 0.351343 -0.255792
O58   O     O_R   0.608475 0.175781 0.219636 -0.406887
N16   N     N_R   0.953861 0.870783 0.782689 0.207865
O59   O     O_R   0.850466 0.874152 0.851334 -0.255815
O60   O     O_R   0.891550 0.824200 0.719639 -0.406883

loop_
_geom_bond_atom_site_label_1
_geom_bond_atom_site_label_2
_geom_bond_distance
_ccdc_geom_bond_type
O17   V3    1.775706 S    
C31   C35   1.617983 S    
C4    C29   1.566527 S    
C15   O51   1.410803 S    
O1    C5    1.332459 A    
O23   H27   0.987095 S    
C13   C29   1.563816 S    
O19   V1    1.775703 S    
O13   V1    2.048572 S    
C29   C37   1.569916 S    
O24   H28   0.987122 S    
C1    C32   1.566530 S    
C32   C36   1.617978 S    
C6    C28   1.549410 S    
O15   V3    2.048569 S    
C31   C39   1.569912 S    
N1    O25   1.301325 A    
C3    C30   1.566523 S    
O50   H30   0.987846 S    
C33   N13   1.487338 S    
O7    C3    1.332266 A    
O2    V4    2.048542 S    
O9    V1    2.042854 S    
N15   O58   1.294036 A    
C19   C35   1.592434 S    
C5    C27   1.549415 S    
H8    C20   1.110942 S    
C23   C27   1.568593 S    
C18   C34   1.592427 S    
C34   N6    1.483673 S    
C11   C15   1.578139 S    
O4    C8    1.332462 A    
C30   C38   1.569914 S    
N4    O31   1.301337 A    
C19   N3    1.469818 S    
N7    O37   1.298982 A    
C16   O52   1.410799 S    
O1    V3    2.048544 S    
C32   C40   1.569909 S    
C17   C25   1.563254 S    
C11   C27   1.591902 S    
O3    V1    2.048545 S    
N8    O39   1.298993 A    
C20   C28   1.563252 S    
N5    O34   1.299700 A    
C10   O22   1.412013 S    
C21   H9    1.105493 S    
C1    O15   1.342653 A    
N15   O57   1.302802 A    
C2    O16   1.342654 A    
N7    O38   1.299697 A    
C23   H11   1.105489 S    
O2    C6    1.332459 A    
C9    C25   1.591896 S    
C24   H12   1.105489 S    
C29   C33   1.617986 S    
O14   V2    2.048574 S    
C37   H17   1.113923 S    
C21   H13   1.107535 S    
C40   H20   1.113920 S    
C2    C31   1.566530 S    
C38   H22   1.108365 S    
O11   C7    1.330692 A    
C20   N4    1.469822 S    
O12   C8    1.330690 A    
C9    N9    1.479087 S    
O10   V2    2.042853 S    
C39   H23   1.108368 S    
N6    O35   1.298972 A    
N1    O26   1.300683 A    
O16   V4    2.048573 S    
O5    V1    2.042870 S    
C11   O23   1.412024 S    
O7    V3    2.042870 S    
O8    V4    2.042872 S    
C12   C16   1.578151 S    
N14   O56   1.294034 A    
O22   H26   0.987114 S    
C21   C25   1.568592 S    
O18   V4    1.775705 S    
C15   H3    1.098141 S    
C22   H10   1.105494 S    
C35   N15   1.487333 S    
O3    C7    1.332458 A    
C24   H16   1.107534 S    
C17   N1    1.469813 S    
C36   N8    1.483677 S    
C24   C28   1.568585 S    
C18   C26   1.563255 S    
N12   O48   1.301739 A    
N11   O46   1.301740 A    
O5    C1    1.332266 A    
N16   O60   1.294061 A    
C12   N12   1.479089 S    
C23   C39   1.549144 S    
C38   H18   1.113927 S    
C23   H15   1.107536 S    
C36   N16   1.487329 S    
O8    C4    1.332262 A    
N2    O28   1.300677 A    
H5    C17   1.110944 S    
O9    C5    1.330691 A    
N3    O30   1.300678 A    
C14   O50   1.410802 S    
C11   N11   1.479086 S    
N9    O41   1.299343 A    
N6    O36   1.299704 A    
C14   C30   1.563819 S    
O6    V2    2.042873 S    
C21   C37   1.549146 S    
C17   C33   1.592429 S    
C19   C27   1.563255 S    
N11   O45   1.299354 A    
N10   O44   1.301739 A    
C22   C26   1.568590 S    
C7    C25   1.549411 S    
C34   N14   1.487339 S    
C3    O13   1.342653 A    
C10   N10   1.479094 S    
C16   C32   1.563814 S    
C10   C14   1.578153 S    
N14   O55   1.302803 A    
C20   C36   1.592433 S    
O6    C2    1.332263 A    
H7    C19   1.110943 S    
O52   H32   0.987836 S    
O11   V3    2.042853 S    
C22   H14   1.107537 S    
O12   V4    2.042849 S    
O51   H31   0.987835 S    
H6    C18   1.110946 S    
C18   N2    1.469818 S    
C24   C40   1.549144 S    
O10   C6    1.330691 A    
N13   O54   1.294019 A    
N12   O47   1.299337 A    
C40   H24   1.108365 S    
N13   O53   1.302815 A    
C39   H19   1.113923 S    
C12   O24   1.412015 S    
O49   H29   0.987835 S    
N4    O32   1.300671 A    
C9    O21   1.412024 S    
O20   V2    1.775703 S    
N2    O27   1.301341 A    
C9    C13   1.578139 S    
C13   O49   1.410806 S    
C33   N5    1.483674 S    
C13   H1    1.098138 S    
C30   C34   1.617980 S    
N8    O40   1.299685 A    
N9    O42   1.301737 A    
C37   H21   1.108366 S    
C14   H2    1.098142 S    
C16   H4    1.098134 S    
C35   N7    1.483675 S    
C8    C26   1.549411 S    
C4    O14   1.342655 A    
N3    O29   1.301334 A    
C10   C26   1.591883 S    
C15   C31   1.563813 S    
N16   O59   1.302779 A    
C12   C28   1.591890 S    
O21   H25   0.987084 S    
N5    O33   1.298970 A    
O4    V2    2.048541 S    
N10   O43   1.299327 A    
C22   C38   1.549147 S    
