data_mof_unit_52843.cif
_audit_creation_date              2012-12-10T18:45:03-0500
_audit_creation_method            fapswitch 2.2
_symmetry_space_group_name_H-M    P1
_symmetry_Int_Tables_number       1
_space_group_crystal_system       triclinic
_cell_length_a                    10.717739
_cell_length_b                    9.850985
_cell_length_c                    10.685976
_cell_angle_alpha                 90.119487
_cell_angle_beta                  90.212499
_cell_angle_gamma                 89.896657
_cell_volume                      1128.21637119

loop_
_atom_site_label
_atom_site_type_symbol
_atom_type_description
_atom_site_fract_x
_atom_site_fract_y
_atom_site_fract_z
_atom_type_partial_charge
C1    C     C_R   0.259897 0.499873 0.500501 1.045114
C2    C     C_R   0.740077 0.499873 0.500109 0.865937
C3    C     C_R   0.935980 0.622120 0.518527 -0.125104
C4    C     C_R   0.063738 0.622163 0.518443 0.005734
C5    C     C_R   0.579600 0.072003 0.575821 -0.187779
C6    C     C_R   0.420326 0.072028 0.424293 -0.197498
C7    C     C_R   0.579622 0.928173 0.575932 0.595708
C8    C     C_R   0.420263 0.928249 0.424225 0.610131
C9    C     C_R   0.494841 0.499871 0.260347 0.945170
C10   C     C_R   0.494413 0.500292 0.739584 0.950088
C11   C     C_R   0.274706 0.611819 0.130007 0.463767
C12   C     C_R   0.277219 0.619411 0.869828 0.404819
C13   C     C_R   0.175741 0.670423 0.064896 0.470550
C14   C     C_R   0.177202 0.674639 0.935396 0.447519
C15   C     C_R   0.380680 0.560983 0.933923 -0.189480
C16   C     C_R   0.379933 0.558619 0.065813 -0.205945
C17   C     C_R   0.483284 0.498963 0.128122 0.014378
C18   C     C_R   0.483600 0.500628 0.871761 0.024159
C19   C     C_R   0.580177 0.436389 0.063913 -0.183723
C20   C     C_R   0.580100 0.436788 0.936110 -0.172951
C21   C     C_R   0.064014 0.377601 0.481947 -0.185454
C22   C     C_R   0.936232 0.377574 0.481882 -0.166567
C23   C     C_R   0.872554 0.499821 0.500217 -0.044298
C24   C     C_R   0.127406 0.499872 0.500359 -0.006612
H1    H     H_    0.657691 0.389576 0.113255 0.154136
H2    H     H_    0.657388 0.389856 0.886891 0.152787
H3    H     H_    0.112701 0.282465 0.467026 0.174297
H4    H     H_    0.887759 0.282437 0.466945 0.175841
H5    H     H_    0.887340 0.717281 0.533433 0.202086
H6    H     H_    0.112214 0.717328 0.533221 0.203318
H7    H     H_    0.643219 0.126616 0.636437 0.184224
H8    H     H_    0.356621 0.126633 0.363777 0.186189
N1    N     N_R   0.500000 0.857200 0.500000 -0.190085
N2    N     N_R   0.500000 0.142810 0.500000 -0.140486
O1    O     O_R   0.316770 0.614620 0.499990 -0.511223
O2    O     O_R   0.683230 0.614620 0.500010 -0.593375
O3    O     O_R   0.316800 0.385290 0.500000 -0.653066
O4    O     O_R   0.683200 0.385290 0.500000 -0.638273
O5    O     O_R   0.500010 0.614690 0.316770 -0.550658
O6    O     O_R   0.499990 0.614690 0.683230 -0.533041
O7    O     O_R   0.500040 0.385360 0.316770 -0.635525
O8    O     O_R   0.499960 0.385360 0.683230 -0.637582
Zn1   Zn    Zn3+2 0.500000 0.653120 0.500000 1.129141
Zn2   Zn    Zn3+2 0.500000 0.346880 0.500000 0.975039
F1    F     F_    0.262790 0.602855 0.255194 -0.619604
F2    F     F_    0.268677 0.621183 0.743993 -0.658905
F3    F     F_    0.076273 0.720758 0.128153 -0.559654
F4    F     F_    0.079363 0.729635 0.872331 -0.568415
F5    F     F_    0.659372 0.860438 0.652253 -0.629529
F6    F     F_    0.340187 0.860747 0.348177 -0.595301

loop_
_geom_bond_atom_site_label_1
_geom_bond_atom_site_label_2
_ccdc_geom_bond_type
C15   C18   A    
C6    H8    S    
O8    Zn2   S    
O4    Zn2   S    
C10   O8    A    
O1    Zn1   S    
C11   C16   A    
C2    O4    A    
C3    C23   A    
C19   C20   A    
C12   C15   A    
C1    O3    A    
C6    N2    A    
C5    N2    A    
O3    Zn2   S    
C21   H3    S    
C22   H4    S    
C21   C22   A    
C11   C13   A    
C7    F5    S    
C20   H2    S    
C10   C18   S    
C4    C24   A    
C9    C17   S    
C13   F3    S    
C17   C19   A    
C12   C14   A    
C18   C20   A    
C8    N1    A    
O5    Zn1   S    
C19   H1    S    
O7    Zn2   S    
C11   F1    S    
C7    N1    A    
C15   C16   A    
N1    Zn1   S    
C8    F6    S    
C9    O5    A    
C3    H5    S    
N2    Zn2   S    
C1    O1    A    
C1    C24   S    
C10   O6    A    
C21   C24   A    
C2    O2    A    
C2    C23   S    
C5    C7    A    
C14   F4    S    
C22   C23   A    
O2    Zn1   S    
C6    C8    A    
C13   C14   A    
C9    O7    A    
O6    Zn1   S    
C4    H6    S    
C3    C4    A    
C16   C17   A    
C5    H7    S    
C12   F2    S    
