data_mof_unit_42236.cif
_audit_creation_date              2012-12-11T14:08:09-0500
_audit_creation_method            fapswitch 2.2
_symmetry_space_group_name_H-M    P1
_symmetry_Int_Tables_number       1
_space_group_crystal_system       triclinic
_cell_length_a                    10.927622
_cell_length_b                    10.945573
_cell_length_c                    18.784194
_cell_angle_alpha                 90.951877
_cell_angle_beta                  90.592629
_cell_angle_gamma                 60.312348
_cell_volume                      1951.57147186

loop_
_atom_site_label
_atom_site_type_symbol
_atom_type_description
_atom_site_fract_x
_atom_site_fract_y
_atom_site_fract_z
_atom_type_partial_charge
C1    C     C_R   0.243885 0.644358 0.610082 0.548060
C2    C     C_3   0.667927 0.557345 0.799063 -0.226352
C3    C     C_3   0.701632 0.676663 0.811547 0.066686
C4    C     C_3   0.672121 0.650004 0.675858 0.019463
C5    C     C_3   0.822149 0.624812 0.690746 -0.275393
C6    C     C_3   0.647434 0.543701 0.719235 -0.214331
C7    C     C_2   0.675425 0.158356 0.670869 -0.123316
C8    C     C_2   0.686921 0.166541 0.828087 -0.115808
C9    C     C_2   0.798225 0.127228 0.785124 -0.183161
C10   C     C_2   0.779621 0.160298 0.708598 -0.193764
C11   C     C_2   0.223415 0.658195 0.686556 0.248119
C12   C     C_R   0.655009 0.623672 0.600764 0.539113
C13   C     C_2   0.153934 0.683584 0.835109 -0.027845
C14   C     C_2   0.212763 0.559310 0.801471 -0.150974
C15   C     C_2   0.219215 0.555477 0.723286 -0.145407
C16   C     C_2   0.651841 0.648316 0.318888 -0.085319
C17   C     C_2   0.632931 0.666895 0.159606 0.380617
C18   C     C_2   0.703096 0.547798 0.196945 0.240140
C19   C     C_2   0.665993 0.547596 0.272128 -0.101833
C20   C     C_2   0.633151 0.194770 0.319223 -0.102568
C21   C     C_2   0.638461 0.199713 0.165164 -0.061270
C22   C     C_2   0.523955 0.227033 0.201636 -0.159400
C23   C     C_R   0.628293 0.228416 0.602135 0.549283
C24   C     C_2   0.517524 0.253931 0.277400 -0.150768
C25   C     C_2   0.123799 0.678357 0.344094 -0.162671
C26   C     C_2   0.112522 0.693620 0.190765 -0.040530
C27   C     C_2   0.037987 0.804502 0.235073 0.349343
C28   C     C_2   0.073685 0.798530 0.309727 -0.113303
C29   C     C_R   0.703068 0.101586 0.897471 0.530534
C30   C     C_R   0.725150 0.689412 0.887659 0.556898
C31   C     C_R   0.117988 0.706067 0.908255 0.531878
C32   C     C_R   0.673534 0.113758 0.101701 0.592174
C33   C     C_R   0.692604 0.688916 0.094944 0.596493
C34   C     C_R   0.216256 0.650485 0.404100 0.556810
C35   C     C_R   0.085630 0.714435 0.115551 0.587430
C36   C     C_R   0.642231 0.622493 0.393541 0.536274
C37   C     C_R   0.613957 0.233171 0.393554 0.546141
C38   C     C_3   0.579020 0.816689 0.781082 0.257008
C39   C     C_3   0.564206 0.801508 0.700451 -0.177912
C40   C     C_3   0.839048 0.642426 0.770813 -0.284425
Cr1   Cr    Cr6+3 0.393010 0.398050 0.501480 1.016739
Cr2   Cr    Cr6+3 0.398820 0.707980 0.501630 1.027345
Cr3   Cr    Cr6+3 0.708140 0.393940 0.496850 1.010697
Cr4   Cr    Cr6+3 0.937950 0.938450 0.008940 1.088358
Cr5   Cr    Cr6+3 0.626180 0.937030 0.994750 1.092875
Cr6   Cr    Cr6+3 0.937790 0.625760 0.001410 1.037343
H1    H     H_    0.601605 0.904271 0.790750 0.129066
H2    H     H_    0.722609 0.434442 0.702017 0.137587
H3    H     H_    0.930284 0.543725 0.790712 0.156358
H4    H     H_    0.902944 0.516916 0.673523 0.147822
H5    H     H_    0.904632 0.066797 0.805767 0.144232
H6    H     H_    0.850997 0.188903 0.683747 0.139189
H7    H     H_    0.580598 0.229003 0.807365 0.113816
H8    H     H_    0.610226 0.121339 0.695340 0.106318
H9    H     H_    0.247037 0.462649 0.830518 0.129737
H10   H     H_    0.220223 0.466773 0.695911 0.108870
H11   H     H_    0.098928 0.780172 0.806180 0.143857
H12   H     H_    0.667179 0.453625 0.291029 0.129199
H13   H     H_    0.651793 0.743131 0.302745 0.141244
H14   H     H_    0.439561 0.214556 0.177973 0.167883
H15   H     H_    0.412759 0.318157 0.299651 0.159384
H16   H     H_    0.718672 0.219532 0.188201 0.157555
H17   H     H_    0.738846 0.130646 0.298361 0.146065
H18   H     H_    0.454938 0.825500 0.688260 0.209878
H19   H     H_    0.074894 0.889221 0.333389 0.166466
H20   H     H_    0.191987 0.590984 0.209398 0.021962
H21   H     H_    0.113794 0.591335 0.321776 0.087987
H22   H     H_    0.582507 0.879030 0.671596 0.059631
H23   H     H_    0.864208 0.728464 0.779702 0.100732
H24   H     H_    0.840845 0.700626 0.660495 0.113974
H25   H     H_    0.755493 0.456164 0.819097 0.122831
H26   H     H_    0.570816 0.579521 0.828304 0.183213
H27   H     H_    0.539420 0.561039 0.709310 0.171661
O1    O     O_R   0.507110 0.256280 0.580300 -0.516597
O2    O     O_R   0.524640 0.695370 0.425100 -0.477942
O3    O     O_R   0.735890 0.504390 0.415980 -0.521802
O4    O     O_R   0.690560 0.277820 0.422350 -0.504153
O5    O     O_3   0.499990 0.499990 0.499980 -0.252007
O6    O     O_R   0.089190 0.825870 0.932320 -0.505312
O7    O     O_R   0.819070 0.053960 0.931440 -0.505555
O8    O     O_R   0.607070 0.076440 0.916460 -0.516539
O9    O     O_R   0.647110 0.806550 0.917690 -0.462053
O10   O     O_R   0.837080 0.593860 0.915300 -0.536721
O11   O     O_R   0.064770 0.636080 0.932550 -0.514723
O12   O     O_R   0.280830 0.527190 0.577940 -0.527384
O13   O     O_R   0.068250 0.829200 0.092940 -0.436125
O14   O     O_R   0.799650 0.057040 0.080330 -0.445401
O15   O     O_R   0.586130 0.079760 0.077080 -0.511067
O16   O     O_R   0.627700 0.809630 0.066580 -0.460856
O17   O     O_R   0.816140 0.597180 0.075920 -0.492537
O18   O     O_R   0.045360 0.639170 0.081440 -0.514457
O19   O     O_3   0.833980 0.833750 0.001700 -0.284204
O20   O     O_R   0.261360 0.738990 0.584270 -0.516302
O21   O     O_R   0.532590 0.694780 0.574370 -0.510510
O22   O     O_R   0.744470 0.503750 0.577000 -0.526870
O23   O     O_R   0.698520 0.277230 0.571620 -0.500413
O24   O     O_R   0.498530 0.256920 0.419280 -0.508498
O25   O     O_R   0.272880 0.527780 0.428680 -0.503562
O26   O     O_R   0.252780 0.739630 0.423250 -0.506800
F1    F     F_    0.452793 0.851712 0.814396 -0.621295
O27   O     O_3   0.256047 0.752154 0.721890 -0.554200
C41   C     C_3   0.156833 0.893976 0.706132 -0.095407
H28   H     H_    0.052054 0.909557 0.689134 0.083716
H29   H     H_    0.198993 0.935160 0.665238 0.150474
H30   H     H_    0.140786 0.958912 0.754792 0.154708
O28   O     O_3   0.804157 0.425171 0.162862 -0.581407
C42   C     C_3   0.918780 0.343258 0.208343 -0.096828
H31   H     H_    0.890503 0.286067 0.247297 0.126216
H32   H     H_    0.958033 0.407935 0.236124 0.111699
H33   H     H_    0.006595 0.263044 0.175572 0.171338
F2    F     F_    0.515476 0.779241 0.187244 -0.654786
F3    F     F_    0.938736 0.931711 0.210073 -0.641826

loop_
_geom_bond_atom_site_label_1
_geom_bond_atom_site_label_2
_ccdc_geom_bond_type
C7    C10   D    
C24   H15   S    
Cr2   O20   S    
C39   H22   S    
Cr5   O9    S    
C1    C11   S    
C10   H6    S    
C37   O24   A    
C25   C28   D    
C39   H18   S    
Cr2   O2    S    
O27   C41   S    
C6    H2    S    
C8    C29   S    
C22   H14   S    
C38   C39   S    
C35   O13   A    
C2    H26   S    
C13   H11   S    
O28   C42   S    
C40   H3    S    
C32   O15   A    
C23   O23   A    
C41   H30   S    
C18   C19   S    
C30   O10   A    
Cr5   O19   S    
C36   O3    A    
Cr1   O1    S    
C11   C15   D    
C20   C24   D    
C3    C38   S    
C8    C9    D    
C25   H21   S    
Cr3   O22   S    
C42   H31   S    
C12   O22   A    
C4    C12   S    
Cr4   O14   S    
Cr5   O16   S    
C9    C10   S    
Cr4   O19   S    
C25   C34   S    
C14   H9    S    
C13   C14   D    
C42   H32   S    
C12   O21   A    
C2    C6    S    
C17   C33   S    
Cr4   O13   S    
C17   F2    S    
C34   O26   A    
C19   H12   S    
C1    O12   A    
C21   C32   S    
C40   H23   S    
C26   H20   S    
Cr4   O7    S    
Cr5   O15   S    
C4    C6    S    
Cr1   O5    S    
Cr6   O18   S    
C32   O14   A    
C37   O4    A    
C31   O11   A    
Cr3   O5    S    
C16   H13   S    
C30   O9    A    
C3    C30   S    
C18   O28   S    
C29   O8    A    
C5    H24   S    
C36   O2    A    
C33   O16   A    
Cr3   O23   S    
C14   C15   S    
C4    C39   S    
C17   C18   D    
C21   H16   S    
C11   O27   S    
C41   H29   S    
C38   H1    S    
Cr6   O11   S    
C38   F1    S    
C27   F3    S    
Cr2   O5    S    
C26   C27   D    
C42   H33   S    
C22   C24   S    
C5    H4    S    
C23   O1    A    
C2    H25   S    
C6    H27   S    
Cr3   O3    S    
Cr2   O21   S    
C33   O17   A    
C13   C31   S    
Cr4   O6    S    
Cr5   O8    S    
C4    C5    S    
C8    H7    S    
C3    C40   S    
C31   O6    A    
Cr6   O17   S    
Cr3   O4    S    
Cr1   O12   S    
C9    H5    S    
C20   H17   S    
C2    C3    S    
Cr2   O26   S    
C15   H10   S    
C20   C37   S    
C29   O7    A    
C16   C19   D    
C7    C23   S    
C34   O25   A    
C28   H19   S    
Cr1   O24   S    
C41   H28   S    
Cr6   O10   S    
C26   C35   S    
Cr6   O19   S    
C1    O20   A    
C5    C40   S    
C27   C28   S    
Cr1   O25   S    
C7    H8    S    
C21   C22   D    
C16   C36   S    
C35   O18   A    
