data_mof_unit_25293.cif
_audit_creation_date              2012-10-26T21:10:39-0400
_audit_creation_method            fapswitch 2.2
_symmetry_space_group_name_H-M    P1
_symmetry_Int_Tables_number       1
_space_group_crystal_system       triclinic
_cell_length_a                    10.888288
_cell_length_b                    14.787038
_cell_length_c                    14.604085
_cell_angle_alpha                 65.16237
_cell_angle_beta                  104.607712
_cell_angle_gamma                 103.277488
_cell_volume                      2044.26917439

loop_
_atom_site_label
_atom_site_type_symbol
_atom_type_description
_atom_site_fract_x
_atom_site_fract_y
_atom_site_fract_z
_atom_type_partial_charge
C1    C     C_R   0.481385 0.119345 0.311985 0.545717
C2    C     C_R   0.464756 0.773595 0.960781 -0.142619
C3    C     C_R   0.519688 0.157187 0.137205 -0.147364
C4    C     C_R   0.480373 0.842808 0.862814 -0.147374
C5    C     C_R   0.466858 0.287193 0.174020 -0.127877
C6    C     C_R   0.533181 0.712807 0.825980 -0.127878
C7    C     C_R   0.491207 0.360509 0.078209 0.032948
C8    C     C_R   0.508896 0.639494 0.921810 0.032946
C9    C     C_R   0.522919 0.327721 0.009716 0.050405
C10   C     C_R   0.477208 0.672282 0.990313 0.050409
C11   C     C_R   0.487523 0.465077 0.049381 0.032003
C12   C     C_R   0.518617 0.880655 0.688015 0.545698
C13   C     C_R   0.512609 0.534928 0.950646 0.032003
C14   C     C_R   0.538474 0.497652 0.883541 -0.137576
C15   C     C_R   0.461698 0.502355 0.116499 -0.137583
C16   C     C_R   0.263312 0.997322 0.505410 0.545277
C17   C     C_R   0.736691 0.002671 0.494601 0.545276
C18   C     C_R   0.544367 0.396374 0.913059 -0.138912
C19   C     C_R   0.455802 0.603632 0.086983 -0.138913
C20   C     C_R   0.707913 0.286526 0.673941 -0.167023
C21   C     C_R   0.292101 0.713486 0.326044 -0.167025
C22   C     C_R   0.677260 0.204475 0.645071 0.126561
C23   C     C_R   0.869770 0.004002 0.489595 -0.006217
C24   C     C_R   0.322766 0.795539 0.354910 0.126558
C25   C     C_R   0.520821 0.286581 0.505866 0.039569
C26   C     C_R   0.479157 0.713409 0.494146 0.039565
C27   C     C_R   0.548569 0.372399 0.533822 0.004501
C28   C     C_R   0.451408 0.627592 0.466188 0.004501
C29   C     C_R   0.644091 0.369413 0.620168 0.022201
C30   C     C_R   0.355898 0.630586 0.379833 0.022204
C31   C     C_R   0.484088 0.459613 0.481636 0.020254
C32   C     C_R   0.515883 0.540376 0.518378 0.020258
C33   C     C_R   0.611539 0.531519 0.605486 -0.150673
C34   C     C_R   0.130237 0.995979 0.510440 -0.006220
C35   C     C_R   0.388435 0.468470 0.394527 -0.150679
C36   C     C_R   0.674656 0.447983 0.654720 -0.145004
C37   C     C_R   0.325328 0.552013 0.345285 -0.144995
C38   C     C_R   0.341634 0.136827 0.739425 -0.114506
C39   C     C_R   0.658419 0.863156 0.260591 -0.114473
C40   C     C_R   0.264058 0.080610 0.684085 -0.062970
C41   C     C_R   0.735987 0.919372 0.315935 -0.062974
C42   C     C_R   0.184041 0.127783 0.590900 0.052426
C43   C     C_R   0.815975 0.872194 0.409137 0.052429
C44   C     C_R   0.181870 0.231885 0.555164 -0.114662
C45   C     C_R   0.906547 0.933582 0.463079 -0.028972
C46   C     C_R   0.818130 0.768087 0.444884 -0.114641
C47   C     C_R   0.258273 0.287473 0.611559 -0.115335
C48   C     C_R   0.741735 0.712500 0.388485 -0.115319
C49   C     C_R   0.338553 0.240126 0.703304 -0.098591
C50   C     C_R   0.661481 0.759852 0.296724 -0.098569
C51   C     C_R   0.963711 0.072051 0.521127 -0.151358
C52   C     C_R   0.036298 0.927917 0.478928 -0.151381
C53   C     C_R   0.252683 0.880827 0.286700 0.091819
C54   C     C_R   0.126035 0.876831 0.295226 -0.092597
C55   C     C_R   0.050916 0.949180 0.222029 -0.120624
C56   C     C_R   0.093463 0.066393 0.536964 -0.028959
C57   C     C_R   0.099329 0.022678 0.136403 -0.111912
C58   C     C_R   0.221152 0.021637 0.122434 -0.120523
C59   C     C_R   0.296034 0.949279 0.196005 -0.077338
C60   C     C_R   0.747390 0.119210 0.713260 0.091823
C61   C     C_R   0.874078 0.123294 0.704758 -0.092727
C62   C     C_R   0.949265 0.051010 0.777981 -0.120654
C63   C     C_R   0.900868 0.977473 0.863596 -0.111913
C64   C     C_R   0.778986 0.978410 0.877530 -0.120528
C65   C     C_R   0.704046 0.050717 0.803944 -0.077277
C66   C     C_R   0.484077 0.187061 0.204640 0.005828
C67   C     C_R   0.515952 0.812936 0.795364 0.005813
C68   C     C_R   0.535352 0.226404 0.039248 -0.142633
Cu1   Cu    Cu3+1 0.466270 0.918260 0.475690 0.948137
Cu2   Cu    Cu3+1 0.533730 0.081740 0.524310 0.948130
H1    H     H_    0.398112 0.283466 0.746486 0.111948
H2    H     H_    0.446876 0.282201 0.442641 0.121012
H3    H     H_    0.780796 0.284324 0.740900 0.092909
H4    H     H_    0.219232 0.715697 0.259075 0.092901
H5    H     H_    0.640233 0.588128 0.637824 0.089761
H6    H     H_    0.359743 0.411861 0.362189 0.089770
H7    H     H_    0.402693 0.100060 0.811115 0.082068
H8    H     H_    0.597380 0.899927 0.188888 0.082062
H9    H     H_    0.264765 0.000104 0.714461 0.095651
H10   H     H_    0.735294 0.999881 0.285551 0.095629
H11   H     H_    0.119965 0.269717 0.484326 0.101630
H12   H     H_    0.601928 0.716513 0.253538 0.111924
H13   H     H_    0.880016 0.730252 0.515734 0.101628
H14   H     H_    0.255284 0.367388 0.584083 0.124203
H15   H     H_    0.744711 0.632581 0.415969 0.124201
H16   H     H_    0.935778 0.128689 0.536357 0.130675
H17   H     H_    0.064230 0.871263 0.463722 0.130641
H18   H     H_    0.566863 0.371692 0.859720 0.103913
H19   H     H_    0.433332 0.628315 0.140331 0.103910
H20   H     H_    0.562961 0.694402 0.771798 0.106186
H21   H     H_    0.437025 0.305595 0.228181 0.106176
H22   H     H_    0.460179 0.918435 0.838805 0.103739
H23   H     H_    0.561957 0.201506 0.987789 0.096112
H24   H     H_    0.539864 0.081554 0.161218 0.103768
H25   H     H_    0.083717 0.814257 0.355502 0.094326
H26   H     H_    0.953868 0.946303 0.229835 0.121187
H27   H     H_    0.040688 0.077933 0.079069 0.113385
H28   H     H_    0.256403 0.075422 0.053674 0.114520
H29   H     H_    0.386827 0.944945 0.181857 0.088047
H30   H     H_    0.916372 0.185893 0.644484 0.094329
H31   H     H_    0.046353 0.053971 0.770206 0.121241
H32   H     H_    0.959563 0.922270 0.920952 0.113393
H33   H     H_    0.743739 0.924595 0.946281 0.114527
H34   H     H_    0.438170 0.798492 0.012249 0.096111
H35   H     H_    0.613217 0.054992 0.818079 0.088095
H36   H     H_    0.554939 0.544416 0.806961 0.099365
H37   H     H_    0.445286 0.455594 0.193094 0.099383
H38   H     H_    0.747777 0.444394 0.721696 0.107160
H39   H     H_    0.252214 0.555605 0.278305 0.107173
H40   H     H_    0.553087 0.717780 0.557383 0.121006
N1    N     N_R   0.584450 0.204570 0.560790 -0.233546
N2    N     N_R   0.415550 0.795430 0.439210 -0.233544
O1    O     O_R   0.455540 0.022090 0.338120 -0.495524
O2    O     O_R   0.544460 0.977910 0.661880 -0.495556
O3    O     O_R   0.512510 0.160150 0.379180 -0.514690
O4    O     O_R   0.487490 0.839850 0.620820 -0.514695
O5    O     O_R   0.291160 0.930970 0.479480 -0.501647
O6    O     O_R   0.708840 0.069030 0.520520 -0.501641
O7    O     O_R   0.348130 0.069020 0.520540 -0.497359
O8    O     O_R   0.651870 0.930980 0.479460 -0.497353

loop_
_geom_bond_atom_site_label_1
_geom_bond_atom_site_label_2
_ccdc_geom_bond_type
C64   H33   S    
Cu1   O4    S    
C34   C56   A    
C8    C13   A    
C23   C45   A    
C36   H38   S    
C59   H29   S    
C14   C18   A    
C2    C4    A    
C3    C68   A    
C58   H28   S    
C41   H10   S    
C53   C59   A    
C39   C41   A    
C38   C49   A    
C53   C54   A    
Cu2   O2    S    
C15   C19   A    
C29   C36   A    
Cu1   O1    S    
C17   C23   S    
C1    O1    A    
C35   C37   A    
C22   C60   S    
Cu1   N2    S    
C27   C29   A    
C33   C36   A    
C51   C56   A    
C15   H37   S    
C17   O8    A    
C16   C34   S    
C11   C15   A    
C33   H5    S    
C24   N2    A    
Cu2   O7    S    
C37   H39   S    
C44   C47   A    
C62   H31   S    
C42   C56   S    
C40   C42   A    
C13   C14   A    
C41   C43   A    
C61   C62   A    
C42   C44   A    
C63   H32   S    
C51   H16   S    
C65   H35   S    
C12   O2    A    
C20   C29   A    
C12   C67   S    
C46   C48   A    
C35   H6    S    
C27   C31   A    
C39   H8    S    
C28   C32   A    
C47   C49   A    
C44   H11   S    
C16   O7    A    
C5    C7    A    
C55   H26   S    
C6    C8    A    
C45   C52   A    
C58   C59   A    
C6    H20   S    
C21   H4    S    
C18   H18   S    
C63   C64   A    
C30   C37   A    
C60   C61   A    
C7    C11   A    
C62   C63   A    
C19   H19   S    
C23   C51   A    
C31   C32   A    
C2    H34   S    
C10   C19   A    
C57   H27   S    
C1    C66   S    
C40   H9    S    
C25   H2    S    
C47   H14   S    
C48   C50   A    
C43   C45   S    
C54   H25   S    
C5    H21   S    
C17   O6    A    
C6    C67   A    
C20   C22   A    
C60   C65   A    
C55   C57   A    
C31   C35   A    
C61   H30   S    
C2    C10   A    
C26   N2    A    
C50   H12   S    
C7    C9    A    
C26   H40   S    
C54   C55   A    
C26   C28   A    
C52   H17   S    
C5    C66   A    
C4    C67   A    
C38   H7    S    
Cu2   O3    S    
C25   C27   A    
C21   C30   A    
Cu1   O8    S    
C34   C52   A    
C68   H23   S    
C64   C65   A    
C28   C30   A    
C24   C53   S    
C9    C68   A    
C16   O5    A    
C32   C33   A    
C38   C40   A    
C11   C13   A    
C57   C58   A    
Cu2   O6    S    
Cu1   O5    S    
C20   H3    S    
C3    H24   S    
Cu1   Cu2   S    
C43   C46   A    
Cu2   N1    S    
C25   N1    A    
C46   H13   S    
C3    C66   A    
C9    C18   A    
C14   H36   S    
C39   C50   A    
C8    C10   A    
C22   N1    A    
C49   H1    S    
C21   C24   A    
C48   H15   S    
C1    O3    A    
C4    H22   S    
C12   O4    A    
