data_mof_unit_15473.cif
_audit_creation_date              2013-03-05T15:50:30-0500
_audit_creation_method            fapswitch 2.2
_symmetry_space_group_name_H-M    P1
_symmetry_Int_Tables_number       1
_space_group_crystal_system       triclinic
_cell_length_a                    15.056783
_cell_length_b                    15.066217
_cell_length_c                    34.791643
_cell_angle_alpha                 91.300719
_cell_angle_beta                  91.781784
_cell_angle_gamma                 60.158716
_cell_volume                      6842.41187028

loop_
_atom_site_label
_atom_site_type_symbol
_atom_site_description
_atom_site_fract_x
_atom_site_fract_y
_atom_site_fract_z
_atom_type_partial_charge
O1    O     O_R   0.324990 0.503440 0.453910 -0.505650
O2    O     O_R   0.522030 0.339050 0.458320 -0.522742
C1    C     C_R   0.610664 0.302454 0.443982 0.561430
O3    O     O_R   0.676180 0.324490 0.458320 -0.416834
O4    O     O_R   0.643570 0.521510 0.464260 -0.441370
C2    C     C_R   0.594176 0.610984 0.449857 0.565980
O5    O     O_R   0.504630 0.675350 0.460920 -0.519483
O6    O     O_R   0.339850 0.642450 0.459830 -0.501516
C3    C     C_R   0.303777 0.591518 0.442375 0.549178
O7    O     O_R   0.321120 0.501280 0.538470 -0.508166
O8    O     O_R   0.518440 0.337050 0.536710 -0.503314
C4    C     C_R   0.605613 0.300435 0.553700 0.543767
O9    O     O_R   0.672300 0.322330 0.542880 -0.506607
O10   O     O_R   0.639980 0.519500 0.542640 -0.486948
C5    C     C_R   0.587391 0.606368 0.559161 0.553704
O11   O     O_R   0.500750 0.673190 0.545480 -0.515899
O12   O     O_R   0.336260 0.640450 0.538210 -0.501674
C6    C     C_R   0.298123 0.589081 0.551761 0.547817
Cr1   Cr    Cr6+3 0.426010 0.422500 0.497000 1.038745
Cr2   Cr    Cr6+3 0.651300 0.426310 0.501970 1.137941
Cr3   Cr    Cr6+3 0.422670 0.651170 0.501050 1.043759
O13   O     O_3   0.499990 0.499990 0.500010 -0.270097
C7    C     C_R   0.742683 0.718337 0.104006 0.018748
C8    C     C_R   0.654028 0.777640 0.125261 -0.117831
C9    C     C_R   0.655486 0.765101 0.164843 -0.120871
C10   C     C_R   0.745451 0.692928 0.183948 0.026187
C11   C     C_R   0.832495 0.629556 0.162526 -0.114771
C12   C     C_R   0.831177 0.642165 0.122842 -0.122503
C13   C     C_R   0.789444 0.589289 0.243792 -0.091372
C14   C     C_R   0.779720 0.583020 0.283245 -0.087505
C15   C     C_R   0.728144 0.672518 0.305582 0.044761
C16   C     C_R   0.692654 0.768046 0.288384 -0.057448
C17   C     C_R   0.702448 0.774298 0.249001 -0.081266
C18   C     C_R   0.747647 0.685139 0.226186 0.031727
C19   C     C_R   0.598856 0.729018 0.356619 -0.129140
C20   C     C_R   0.567197 0.714059 0.391779 -0.152057
C21   C     C_R   0.740898 0.578502 0.406810 0.208180
C22   C     C_R   0.771153 0.592772 0.370761 -0.079698
C23   C     C_R   0.700145 0.666401 0.345288 -0.012146
C24   C     C_R   0.636170 0.636480 0.416651 0.005297
H1    H     H_    0.584646 0.836762 0.111599 0.137567
H2    H     H_    0.901021 0.595818 0.107308 0.157149
H3    H     H_    0.850340 0.546580 0.362549 0.165802
H4    H     H_    0.806949 0.508521 0.295837 0.120353
H5    H     H_    0.824610 0.519556 0.226760 0.112153
H6    H     H_    0.586602 0.813130 0.180677 0.108043
H7    H     H_    0.654129 0.837966 0.305200 0.142670
H8    H     H_    0.672108 0.849003 0.236154 0.115317
H9    H     H_    0.542401 0.785779 0.337285 0.127534
H10   H     H_    0.486868 0.760002 0.398486 0.161637
H11   H     H_    0.902697 0.573285 0.176675 0.122572
C25   C     C_R   0.101073 0.729348 0.085579 0.028478
C26   C     C_R   0.148183 0.635623 0.105380 0.381210
C27   C     C_R   0.168930 0.633585 0.144759 -0.085116
C28   C     C_R   0.145423 0.724013 0.164790 -0.030671
C29   C     C_R   0.109621 0.815304 0.144529 -0.135578
C30   C     C_R   0.087550 0.818009 0.105095 -0.189032
C31   C     C_R   0.212202 0.750432 0.228054 -0.125191
C32   C     C_R   0.218675 0.742765 0.268103 -0.131963
C33   C     C_R   0.158892 0.711111 0.287667 0.076829
C34   C     C_R   0.091299 0.688683 0.266491 0.431085
C35   C     C_R   0.086361 0.694675 0.226478 -0.065197
C36   C     C_R   0.147769 0.724091 0.207051 -0.034355
C37   C     C_R   0.201304 0.593191 0.342244 -0.112109
C38   C     C_R   0.236151 0.563227 0.379812 -0.133664
C39   C     C_R   0.216823 0.730010 0.393601 -0.104969
C40   C     C_R   0.179407 0.762128 0.355990 0.215306
C41   C     C_R   0.175705 0.691091 0.329493 0.053924
C42   C     C_R   0.247864 0.629978 0.405415 -0.022752
H12   H     H_    0.051887 0.891137 0.090713 0.138406
H13   H     H_    0.272672 0.758536 0.283763 0.136421
H14   H     H_    0.260041 0.773178 0.213385 0.130529
H15   H     H_    0.198592 0.562156 0.160070 0.134293
H16   H     H_    0.035067 0.675589 0.210514 0.133822
H17   H     H_    0.200189 0.537275 0.322398 0.156116
H18   H     H_    0.259989 0.485461 0.388012 0.148608
H19   H     H_    0.091616 0.885713 0.159670 0.135637
H20   H     H_    0.223419 0.782799 0.413544 0.172780
C43   C     C_R   0.727226 0.093656 0.088135 0.027339
C44   C     C_R   0.806819 0.088266 0.111938 -0.120076
C45   C     C_R   0.791407 0.110416 0.151093 -0.117679
C46   C     C_R   0.695699 0.140453 0.166738 0.028530
C47   C     C_R   0.613585 0.155277 0.142378 -0.110648
C48   C     C_R   0.629418 0.131311 0.103335 -0.112454
C49   C     C_R   0.603201 0.233273 0.225573 -0.124873
C50   C     C_R   0.592725 0.238753 0.265269 -0.152631
C51   C     C_R   0.661763 0.157379 0.288745 0.010597
C52   C     C_R   0.740710 0.067296 0.271756 0.209997
C53   C     C_R   0.751835 0.064148 0.231744 -0.101818
C54   C     C_R   0.684027 0.146967 0.208686 -0.015520
C55   C     C_R   0.738508 0.170899 0.351426 -0.016464
C56   C     C_R   0.727089 0.205779 0.389448 0.396732
C57   C     C_R   0.550942 0.241746 0.386996 -0.184730
C58   C     C_R   0.562677 0.207136 0.349022 -0.134505
C59   C     C_R   0.655498 0.174443 0.330676 0.004458
C60   C     C_R   0.631574 0.245426 0.407158 0.017568
H21   H     H_    0.883086 0.058941 0.101033 0.126495
H22   H     H_    0.566912 0.135993 0.085546 0.138330
H23   H     H_    0.497902 0.210196 0.333355 0.133222
H24   H     H_    0.532319 0.308362 0.277881 0.117950
H25   H     H_    0.549799 0.297463 0.208105 0.124505
H26   H     H_    0.855325 0.099672 0.169500 0.119379
H27   H     H_    0.811767 0.995809 0.218261 0.148199
H28   H     H_    0.810585 0.146224 0.337492 0.178466
H29   H     H_    0.539140 0.178533 0.153997 0.119296
H30   H     H_    0.476632 0.271214 0.399736 0.149495
C61   C     C_R   0.691482 0.687388 0.920532 0.010838
C62   C     C_R   0.767640 0.597033 0.903370 -0.116193
C63   C     C_R   0.754778 0.571974 0.865583 -0.103524
C64   C     C_R   0.665726 0.636861 0.844257 0.028075
C65   C     C_R   0.585118 0.720960 0.862808 -0.097256
C66   C     C_R   0.597692 0.745579 0.900757 -0.092240
C67   C     C_R   0.570714 0.645579 0.782624 -0.103441
C68   C     C_R   0.565267 0.645685 0.742506 -0.054606
C69   C     C_R   0.651117 0.625129 0.721087 0.059176
C70   C     C_R   0.743445 0.600985 0.740294 -0.109526
C71   C     C_R   0.748842 0.601346 0.780373 -0.101906
C72   C     C_R   0.662188 0.624877 0.801976 0.033306
C73   C     C_R   0.715556 0.544165 0.657162 -0.183677
C74   C     C_R   0.702128 0.540707 0.617397 -0.141372
C75   C     C_R   0.550710 0.708734 0.619860 -0.078876
C76   C     C_R   0.563769 0.712030 0.659627 0.384340
C77   C     C_R   0.644255 0.627993 0.678719 0.028701
C78   C     C_R   0.617225 0.621295 0.598560 -0.034674
H31   H     H_    0.840241 0.549432 0.918084 0.141447
H32   H     H_    0.536874 0.814397 0.913545 0.189552
H33   H     H_    0.493901 0.662054 0.728144 0.149706
H34   H     H_    0.503193 0.662712 0.798500 0.117386
H35   H     H_    0.816951 0.504991 0.852329 0.130826
H36   H     H_    0.810494 0.584822 0.724270 0.115990
H37   H     H_    0.819893 0.587057 0.794413 0.109650
H38   H     H_    0.778432 0.478877 0.671343 0.126775
H39   H     H_    0.754671 0.472193 0.601839 0.153069
H40   H     H_    0.515349 0.772306 0.847186 0.137055
H41   H     H_    0.484976 0.772331 0.606143 0.163931
C79   C     C_R   0.070137 0.697186 0.903161 0.020244
C80   C     C_R   0.099921 0.763542 0.887806 -0.112099
C81   C     C_R   0.133229 0.750156 0.850186 -0.117183
C82   C     C_R   0.136905 0.670486 0.827435 0.059835
C83   C     C_R   0.113298 0.600368 0.843515 -0.063584
C84   C     C_R   0.080637 0.613289 0.881245 -0.124156
C85   C     C_R   0.219984 0.574751 0.767395 0.382688
C86   C     C_R   0.227842 0.571893 0.727599 -0.074894
C87   C     C_R   0.170442 0.661185 0.705988 -0.032823
C88   C     C_R   0.106600 0.753987 0.724585 -0.128485
C89   C     C_R   0.098002 0.756925 0.764347 -0.169899
C90   C     C_R   0.153880 0.667280 0.785987 0.028243
C91   C     C_R   0.204726 0.724648 0.646120 -0.108032
C92   C     C_R   0.234601 0.707978 0.607943 -0.119200
C93   C     C_R   0.207315 0.562205 0.604663 -0.107978
C94   C     C_R   0.178043 0.578615 0.642815 -0.110329
C95   C     C_R   0.181048 0.657029 0.664179 0.025528
C96   C     C_R   0.240928 0.623514 0.587550 0.019333
H42   H     H_    0.093447 0.828263 0.904305 0.149996
H43   H     H_    0.057730 0.561310 0.892383 0.139267
H44   H     H_    0.158012 0.526958 0.656245 0.128819
H45   H     H_    0.279712 0.500136 0.713638 0.147821
H46   H     H_    0.152232 0.804336 0.838324 0.127032
H47   H     H_    0.062104 0.823535 0.708277 0.134700
H48   H     H_    0.045615 0.828753 0.778123 0.135543
H49   H     H_    0.207208 0.785738 0.662264 0.133917
H50   H     H_    0.259665 0.756729 0.595396 0.142316
H51   H     H_    0.114192 0.539230 0.826238 0.163116
H52   H     H_    0.210182 0.497307 0.589474 0.152576
C97   C     C_R   0.669748 0.086349 0.907007 -0.055884
C98   C     C_R   0.585162 0.084886 0.888322 0.138756
C99   C     C_R   0.560199 0.117091 0.850008 -0.168103
C100  C     C_R   0.613959 0.155523 0.830714 -0.071952
C101  C     C_R   0.689458 0.167775 0.850684 0.407108
C102  C     C_R   0.716580 0.134329 0.888382 0.388519
C103  C     C_R   0.588357 0.264333 0.773772 -0.011935
C104  C     C_R   0.591411 0.274044 0.734204 -0.105284
C105  C     C_R   0.602719 0.194673 0.709312 0.055242
C106  C     C_R   0.605834 0.107563 0.724262 -0.047329
C107  C     C_R   0.603644 0.097427 0.763949 -0.108625
C108  C     C_R   0.597916 0.174498 0.789010 0.064629
C109  C     C_R   0.546760 0.197100 0.640767 0.390233
C110  C     C_R   0.549516 0.220627 0.602398 -0.079305
C111  C     C_R   0.693712 0.245920 0.617538 -0.142449
C112  C     C_R   0.690311 0.223513 0.655887 -0.182984
C113  C     C_R   0.614702 0.202525 0.667973 0.027155
C114  C     C_R   0.620435 0.249131 0.590787 -0.033604
H53   H     H_    0.744040 0.226788 0.676517 0.133317
H54   H     H_    0.586949 0.342701 0.722990 0.111187
H55   H     H_    0.581970 0.325453 0.792569 0.172660
H56   H     H_    0.498891 0.111609 0.835032 0.187560
H57   H     H_    0.614376 0.045762 0.705381 0.165262
H58   H     H_    0.611687 0.027239 0.775162 0.124864
H59   H     H_    0.492233 0.222494 0.582291 0.156636
H60   H     H_    0.748970 0.267936 0.609525 0.150790
O14   O     O_R   0.834210 0.019400 0.034570 -0.510888
O15   O     O_R   0.002210 0.824620 0.031030 -0.520835
C115  C     C_R   0.045465 0.739114 0.048703 0.566037
O16   O     O_R   0.024400 0.669340 0.039790 -0.436245
O17   O     O_R   0.830490 0.694950 0.045870 -0.501630
C116  C     C_R   0.747680 0.746924 0.064219 0.536338
O18   O     O_R   0.675430 0.831160 0.051290 -0.514374
O19   O     O_R   0.698870 0.998880 0.039560 -0.499187
C117  C     C_R   0.751562 0.039927 0.050829 0.541557
O20   O     O_R   0.811290 0.006780 0.950620 -0.440314
O21   O     O_R   0.980960 0.812920 0.953200 -0.500714
C118  C     C_R   0.017502 0.722283 0.939896 0.544780
O22   O     O_R   0.001480 0.656720 0.955830 -0.508704
O23   O     O_R   0.809240 0.683250 0.968050 -0.507109
C119  C     C_R   0.717070 0.729634 0.955100 0.539180
O24   O     O_R   0.652500 0.818540 0.967340 -0.482249
O25   O     O_R   0.677620 0.987170 0.961730 -0.449485
C120  C     C_R   0.720294 0.026439 0.942357 0.582005
Cr4   Cr    Cr6+3 0.905130 0.911420 0.992650 1.068531
Cr5   Cr    Cr6+3 0.911860 0.682710 0.002320 1.065922
Cr6   Cr    Cr6+3 0.682710 0.906840 0.004710 1.094037
O26   O     O_3   0.833240 0.833660 0.999890 -0.273360
N1    N     N_R   0.817197 0.506471 0.432970 0.095885
O27   O     O_R   0.894900 0.423360 0.419874 -0.285702
O28   O     O_R   0.818214 0.531322 0.468985 -0.311312
F1    F     F_    0.166917 0.547191 0.087436 -0.613683
N2    N     N_R   0.146612 0.865880 0.345238 0.077873
O29   O     O_R   0.183927 0.917230 0.363210 -0.326051
O30   O     O_R   0.071778 0.913173 0.320396 -0.259569
F2    F     F_    0.030861 0.660085 0.284491 -0.607066
N3    N     N_R   0.807704 0.978388 0.294237 0.085839
O31   O     O_R   0.895179 0.909231 0.280701 -0.279206
O32   O     O_R   0.776517 0.959202 0.325823 -0.308631
F3    F     F_    0.807860 0.205623 0.407969 -0.566201
F4    F     F_    0.496097 0.796079 0.679574 -0.625863
F5    F     F_    0.277558 0.487681 0.787698 -0.636442
N4    N     N_R   0.524273 0.050895 0.907305 0.104534
O33   O     O_R   0.490436 0.998044 0.888230 -0.359879
O34   O     O_R   0.482919 0.092589 0.939932 -0.299359
F6    F     F_    0.792763 0.144823 0.905923 -0.559441
F7    F     F_    0.472815 0.177115 0.651793 -0.618282
F8    F     F_    0.743142 0.204706 0.832789 -0.595171

loop_
_geom_bond_atom_site_label_1
_geom_bond_atom_site_label_2
_geom_bond_distance
_ccdc_geom_bond_type
C51   C52   1.416352 A    
C57   C58   1.392902 A    
C44   C45   1.393909 A    
C44   H21   1.082763 S    
C101  C102  1.390286 A    
C65   C66   1.395995 A    
C34   F2    1.357868 S    
C55   H28   1.083508 S    
C103  C104  1.392267 A    
C32   H13   1.083101 S    
C64   C72   1.480516 S    
C79   C118  1.465383 S    
C88   C89   1.391088 A    
C49   H25   1.083306 S    
C67   H34   1.082871 S    
C105  C106  1.401210 A    
C70   C71   1.394314 A    
C83   H51   1.083053 S    
C4    O9    1.271811 A    
C82   C90   1.467869 S    
C10   C11   1.402799 A    
C35   C36   1.403006 A    
C38   H18   1.083168 S    
C91   H49   1.083271 S    
C37   C41   1.405073 A    
C21   C22   1.404298 A    
O14   C117  1.271627 A    
C67   C68   1.395635 A    
C21   C24   1.419845 A    
C49   C50   1.390854 A    
C43   C48   1.404874 A    
C88   H47   1.083255 S    
C109  C113  1.403080 A    
C39   C42   1.404973 A    
C89   H48   1.083268 S    
C86   C87   1.403743 A    
C56   C60   1.410050 A    
Cr4   O26   1.974848 S    
C62   C63   1.393822 A    
C74   H39   1.083042 S    
O21   C118  1.273227 A    
O21   Cr4   1.925743 S    
N4    O33   1.301035 A    
C92   C96   1.405158 A    
C64   C65   1.405774 A    
C75   C78   1.405863 A    
C107  H58   1.083256 S    
C106  C107  1.395855 A    
C74   C78   1.406145 A    
O24   Cr6   2.038152 S    
C10   C18   1.474896 S    
C4    C114  1.472367 S    
C47   C48   1.394456 A    
C26   C27   1.393332 A    
C15   C23   1.474854 S    
O6    C3    1.275046 A    
C93   C96   1.404577 A    
C51   C59   1.473303 S    
C7    C116  1.474164 S    
C19   H9    1.083263 S    
C112  C113  1.402452 A    
C61   C62   1.405978 A    
O22   Cr5   2.042424 S    
C85   F5    1.357784 S    
C1    C60   1.478041 S    
C30   H12   1.082661 S    
C13   C14   1.395216 A    
C50   H24   1.083660 S    
N2    O30   1.301042 A    
C66   H32   1.082126 S    
C112  H53   1.083563 S    
C111  C114  1.403918 A    
C52   C53   1.404233 A    
C39   C40   1.405497 A    
O2    Cr1   1.927994 S    
C105  C113  1.469759 S    
C32   C33   1.407507 A    
O20   C120  1.274002 A    
Cr3   O13   1.975991 S    
C53   H27   1.083591 S    
O25   Cr6   1.920781 S    
C8    H1    1.083052 S    
C14   H4    1.083073 S    
C58   C59   1.399798 A    
C21   N1    1.436989 S    
C9    C10   1.403589 A    
C11   H11   1.083100 S    
C86   H45   1.083588 S    
C45   H26   1.083450 S    
N1    O28   1.301446 A    
C22   C23   1.401594 A    
C39   H20   1.083113 S    
C82   C83   1.402939 A    
O1    Cr1   2.035538 S    
C76   C77   1.405004 A    
C69   C77   1.474580 S    
C118  O22   1.269479 A    
C103  H55   1.083217 S    
O25   C120  1.280842 A    
O10   Cr2   1.920711 S    
C56   F3    1.357478 S    
Cr1   O13   1.973870 S    
C43   C117  1.469975 S    
C8    C9    1.392257 A    
O17   Cr5   1.925805 S    
C5    C78   1.476359 S    
C55   C56   1.395813 A    
O4    Cr2   1.924031 S    
C110  H59   1.083196 S    
C50   C51   1.405379 A    
C98   N4    1.435010 S    
C37   H17   1.083365 S    
N2    O29   1.301525 A    
N1    O27   1.301385 A    
C99   H56   1.083706 S    
C13   C18   1.403005 A    
C45   C46   1.402254 A    
C29   H19   1.083324 S    
O17   C116  1.276909 A    
C28   C36   1.469668 S    
C33   C34   1.406092 A    
C19   C20   1.389278 A    
C19   C23   1.399992 A    
C40   C41   1.417661 A    
N3    O31   1.301038 A    
O18   Cr6   2.039054 S    
C57   H30   1.083036 S    
O16   Cr5   2.036229 S    
C27   H15   1.083629 S    
C81   H46   1.083328 S    
Cr6   O26   1.977136 S    
C20   C24   1.405539 A    
O7    Cr1   2.045267 S    
C94   C95   1.400544 A    
O8    Cr1   1.918617 S    
C28   C29   1.400620 A    
O12   C6    1.275406 A    
O1    C3    1.272164 A    
C65   H40   1.082696 S    
C61   C66   1.403940 A    
C110  C114  1.406742 A    
C94   H44   1.083453 S    
C83   C84   1.391452 A    
C73   C74   1.395501 A    
O19   Cr6   1.921812 S    
C75   C76   1.394649 A    
O19   C117  1.274180 A    
C6    C96   1.467605 S    
O14   Cr4   2.043108 S    
C100  C101  1.401049 A    
N4    O34   1.301244 A    
Cr2   O13   1.975904 S    
C46   C47   1.401937 A    
C57   C60   1.407597 A    
Cr5   O26   1.975829 S    
C63   H35   1.083032 S    
C98   C99   1.403674 A    
C62   H31   1.083059 S    
C16   H7    1.083260 S    
C2    C24   1.479630 S    
C43   C44   1.404667 A    
C7    C12   1.407109 A    
C29   C30   1.398251 A    
C75   H41   1.083067 S    
O23   Cr5   1.918970 S    
C1    O3    1.272788 A    
C99   C100  1.399619 A    
C40   N2    1.440163 S    
C20   H10   1.083274 S    
C104  C105  1.403039 A    
C89   C90   1.405256 A    
C103  C108  1.402715 A    
C73   H38   1.083277 S    
C31   C36   1.399500 A    
C100  C108  1.474337 S    
C119  O24   1.274598 A    
C27   C28   1.399783 A    
O9    Cr2   2.039682 S    
C104  H54   1.083628 S    
C85   C86   1.391123 A    
C85   C90   1.403829 A    
C15   C16   1.403143 A    
C84   H43   1.083188 S    
C25   C115  1.479162 S    
C91   C95   1.401487 A    
C3    C42   1.476159 S    
C116  O18   1.271979 A    
O6    Cr3   1.916303 S    
C109  F7    1.357505 S    
C25   C30   1.408392 A    
C49   C54   1.397112 A    
O11   Cr3   2.033105 S    
C68   C69   1.404682 A    
C2    O5    1.272998 A    
C73   C77   1.402788 A    
C111  C112  1.392336 A    
C26   F1    1.357801 S    
C93   H52   1.083094 S    
C80   C81   1.390496 A    
O20   Cr4   2.036043 S    
C46   C54   1.470643 S    
C101  F8    1.358362 S    
C87   C88   1.399142 A    
C48   H22   1.083268 S    
C16   C17   1.392966 A    
O2    C1    1.276897 A    
C31   C32   1.397131 A    
C22   H3    1.083471 S    
N3    O32   1.301257 A    
C107  C108  1.405359 A    
O5    Cr3   2.045136 S    
C63   C64   1.403795 A    
O15   C115  1.279804 A    
C68   H33   1.083314 S    
C76   F4    1.357707 S    
C14   C15   1.404656 A    
C31   H14   1.083139 S    
O4    C2    1.277174 A    
C111  H60   1.083158 S    
C58   H23   1.083422 S    
O7    C6    1.268839 A    
C38   C42   1.400757 A    
C5    O11   1.272015 A    
C102  F6    1.358592 S    
C37   C38   1.391347 A    
C12   H2    1.083053 S    
C79   C84   1.403201 A    
C17   C18   1.404668 A    
C80   H42   1.083184 S    
C91   C92   1.392560 A    
C106  H57   1.083195 S    
C34   C35   1.394354 A    
C71   H37   1.082804 S    
C97   C120  1.488316 S    
O12   Cr3   1.927052 S    
O15   Cr4   1.919733 S    
C61   C119  1.476616 S    
C81   C82   1.401359 A    
C109  C110  1.396044 A    
C7    C8    1.404077 A    
C55   C59   1.401940 A    
C67   C72   1.404246 A    
O3    Cr2   2.039026 S    
C47   H29   1.083278 S    
C97   C98   1.421585 A    
C70   H36   1.083264 S    
O23   C119  1.275764 A    
C33   C41   1.481109 S    
C87   C95   1.464798 S    
C115  O16   1.269937 A    
C13   H5    1.082996 S    
C11   C12   1.396125 A    
C52   N3    1.441296 S    
C17   H8    1.083379 S    
O10   C5    1.277910 A    
C35   H16   1.083864 S    
C92   H50   1.083099 S    
C53   C54   1.403397 A    
C71   C72   1.407649 A    
C9    H6    1.083201 S    
C97   C102  1.413011 A    
C79   C80   1.404032 A    
C69   C70   1.400506 A    
O8    C4    1.273769 A    
C25   C26   1.410191 A    
C93   C94   1.389349 A    
