data_mof_unit_14794.cif
_audit_creation_date              2012-12-11T17:47:29-0500
_audit_creation_method            fapswitch 2.2
_symmetry_space_group_name_H-M    P1
_symmetry_Int_Tables_number       1
_space_group_crystal_system       triclinic
_cell_length_a                    14.853473
_cell_length_b                    14.888373
_cell_length_c                    15.068839
_cell_angle_alpha                 110.835051
_cell_angle_beta                  108.935961
_cell_angle_gamma                 107.969061
_cell_volume                      2585.11134701

loop_
_atom_site_label
_atom_site_type_symbol
_atom_type_description
_atom_site_fract_x
_atom_site_fract_y
_atom_site_fract_z
_atom_type_partial_charge
C1    C     C_R   0.975178 0.251638 0.064468 -0.119453
C2    C     C_R   0.055103 0.137459 0.161720 -0.198133
C3    C     C_R   0.233330 0.087294 0.848313 -0.196030
C4    C     C_R   0.816549 0.978456 0.236267 -0.173566
C5    C     C_R   0.175655 0.067043 0.902177 0.072603
C6    C     C_R   0.918857 0.020446 0.243805 0.070431
C7    C     C_R   0.602004 0.240786 0.093332 -0.112123
C8    C     C_R   0.316433 0.693840 0.751853 -0.113187
C9    C     C_R   0.679076 0.334238 0.194939 -0.156952
C10   C     C_R   0.205038 0.625847 0.682037 -0.116782
C11   C     C_R   0.740838 0.324509 0.280831 0.114291
C12   C     C_R   0.087115 0.803803 0.003859 -0.123688
C13   C     C_R   0.135439 0.671309 0.666049 0.107785
C14   C     C_R   0.718760 0.218977 0.264321 -0.162022
C15   C     C_R   0.179049 0.785702 0.720853 -0.183253
C16   C     C_R   0.314028 0.753106 0.223538 -0.133460
C17   C     C_R   0.700803 0.199654 0.790550 -0.152820
C18   C     C_R   0.638370 0.125856 0.163787 -0.106250
C19   C     C_R   0.290287 0.853359 0.793269 -0.125381
C20   C     C_R   0.580742 0.136809 0.078057 -0.084928
C21   C     C_R   0.359011 0.807433 0.808555 -0.103523
C22   C     C_R   0.852010 0.426173 0.482745 -0.234004
C23   C     C_R   0.320946 0.776427 0.324115 0.046300
C24   C     C_R   0.991176 0.605374 0.488541 -0.218796
C25   C     C_R   0.947729 0.509599 0.579051 0.067830
C26   C     C_R   0.908888 0.512750 0.388468 0.056684
C27   C     C_R   0.019662 0.598959 0.581115 0.017014
C28   C     C_R   0.833417 0.423404 0.384533 0.030755
C29   C     C_R   0.214730 0.147074 0.010810 0.037194
C30   C     C_R   0.929791 0.978227 0.149700 0.036653
C31   C     C_R   0.371451 0.259847 0.012165 -0.090569
C32   C     C_R   0.735074 0.854601 0.043305 -0.130220
C33   C     C_R   0.169125 0.984041 0.391643 -0.102538
C34   C     C_R   0.696009 0.140793 0.693908 0.055670
C35   C     C_R   0.901259 0.003942 0.671998 -0.102052
C36   C     C_R   0.266471 0.981258 0.411620 -0.123015
C37   C     C_R   0.797994 0.987814 0.654457 -0.141342
C38   C     C_R   0.311152 0.952789 0.487988 0.113286
C39   C     C_R   0.717130 0.954065 0.551074 0.116862
C40   C     C_R   0.214607 0.407834 0.909602 -0.132296
C41   C     C_R   0.777714 0.594265 0.023426 -0.131778
C42   C     C_R   0.259671 0.931299 0.547076 -0.188603
C43   C     C_R   0.739447 0.928490 0.463957 -0.163104
C44   C     C_R   0.161588 0.933070 0.525872 -0.140408
C45   C     C_R   0.307238 0.499008 0.943626 0.053928
C46   C     C_R   0.841720 0.940058 0.481148 -0.112085
C47   C     C_R   0.116213 0.959188 0.448032 -0.090853
C48   C     C_R   0.923123 0.979461 0.585495 -0.096041
C49   C     C_R   0.504552 0.028657 0.593966 -0.236475
C50   C     C_R   0.515577 0.861562 0.444784 -0.242388
C51   C     C_R   0.604506 0.036314 0.607779 0.062014
C52   C     C_R   0.416100 0.858853 0.427476 0.070433
C53   C     C_R   0.611816 0.950846 0.535356 0.022929
C54   C     C_R   0.410492 0.942705 0.504117 0.018768
C55   C     C_R   0.331778 0.182803 0.903580 -0.138500
C56   C     C_R   0.677838 0.504731 0.945337 0.054802
C57   C     C_R   0.725073 0.896330 0.136351 -0.143246
C58   C     C_R   0.031014 0.034078 0.148313 0.022488
C59   C     C_R   0.163053 0.124017 0.073390 0.045660
C60   C     C_R   0.312339 0.243313 0.064855 -0.156364
C61   C     C_R   0.836490 0.895423 0.049695 -0.149019
C62   C     C_R   0.085798 0.981931 0.107377 0.040860
C63   C     C_R   0.099408 0.169556 0.102003 0.046679
C64   C     C_R   0.988206 0.592976 0.294421 -0.151784
C65   C     C_R   0.949293 0.409368 0.684936 -0.135189
C66   C     C_3   0.501338 0.426096 0.946605 -0.222364
C67   C     C_R   0.927855 0.504308 0.297669 0.060928
C68   C     C_3   0.474622 0.583967 0.913532 -0.239223
C69   C     C_3   0.403043 0.405292 0.849224 -0.214081
C70   C     C_3   0.572981 0.603233 0.010290 -0.233979
C71   C     C_3   0.399335 0.500969 0.929544 0.124525
C72   C     C_3   0.577308 0.507743 0.930283 0.119918
C73   C     C_3   0.496756 0.521219 0.024944 0.134412
C74   C     C_3   0.480759 0.488187 0.834481 0.120106
C75   C     C_R   0.303764 0.590642 0.002002 -0.130768
C76   C     C_R   0.687425 0.411244 0.929239 -0.132491
C77   C     C_R   0.904999 0.411499 0.209145 -0.137337
C78   C     C_R   0.973090 0.503296 0.676806 0.050602
C79   C     C_R   0.035824 0.593680 0.779998 -0.109110
C80   C     C_R   0.217752 0.738979 0.310377 -0.105935
C81   C     C_R   0.788480 0.201101 0.694965 -0.130532
C82   C     C_R   0.069579 0.251694 0.975025 -0.147057
C83   C     C_R   0.996997 0.801918 0.096196 -0.146317
C84   C     C_R   0.054496 0.225992 0.051788 0.064932
C85   C     C_R   0.053274 0.865673 0.066264 0.061808
C86   C     C_1   0.079625 0.962455 0.846887 -0.022404
C87   C     C_1   0.010038 0.110038 0.347506 -0.021400
C88   C     C_1   0.507482 0.542739 0.131893 -0.004470
C89   C     C_R   0.166821 0.040304 0.092006 -0.209790
C90   C     C_1   0.475122 0.471162 0.730470 0.018758
H1    H     H_    0.939773 0.241633 0.114424 0.096365
H2    H     H_    0.369779 0.658297 0.759611 0.108353
H3    H     H_    0.694225 0.414140 0.204983 0.119827
H4    H     H_    0.173437 0.538004 0.637459 0.115453
H5    H     H_    0.765843 0.208431 0.327948 0.109972
H6    H     H_    0.127007 0.821948 0.706181 0.122357
H7    H     H_    0.622419 0.045224 0.151644 0.110422
H8    H     H_    0.323643 0.941368 0.835797 0.118615
H9    H     H_    0.795383 0.360188 0.483373 0.128186
H10   H     H_    0.049373 0.674486 0.493202 0.126328
H11   H     H_    0.380029 0.773990 0.205921 0.098591
H12   H     H_    0.144788 0.832296 0.978405 0.096151
H13   H     H_    0.648678 0.170944 0.821516 0.095093
H14   H     H_    0.345088 0.303057 0.149349 0.132389
H15   H     H_    0.841806 0.865076 0.975725 0.132040
H16   H     H_    0.040021 0.959919 0.431195 0.102824
H17   H     H_    0.003269 0.991827 0.599628 0.099518
H18   H     H_    0.134378 0.004269 0.331487 0.119342
H19   H     H_    0.964606 0.037422 0.753239 0.122577
H20   H     H_    0.305702 0.998612 0.365959 0.115427
H21   H     H_    0.782672 0.006371 0.722662 0.119706
H22   H     H_    0.293481 0.909491 0.606438 0.128184
H23   H     H_    0.204442 0.027451 0.765095 0.114682
H24   H     H_    0.678888 0.902342 0.383413 0.105259
H25   H     H_    0.120073 0.912628 0.568613 0.101940
H26   H     H_    0.858450 0.920537 0.413969 0.106959
H27   H     H_    0.499409 0.095539 0.648604 0.131672
H28   H     H_    0.517860 0.795380 0.385983 0.137710
H29   H     H_    0.219062 0.008950 0.073328 0.124762
H30   H     H_    0.017196 0.178779 0.197526 0.126931
H31   H     H_    0.332020 0.324485 0.783477 0.129816
H32   H     H_    0.643295 0.682508 0.078907 0.134931
H33   H     H_    0.519780 0.365034 0.961648 0.103694
H34   H     H_    0.807033 0.011282 0.307318 0.113824
H35   H     H_    0.463653 0.650635 0.903695 0.115566
H36   H     H_    0.188353 0.323774 0.852923 0.103450
H37   H     H_    0.797337 0.679351 0.059041 0.113628
H38   H     H_    0.007487 0.677152 0.341639 0.104381
H39   H     H_    0.903774 0.325123 0.619483 0.097495
H40   H     H_    0.358245 0.674331 0.029709 0.092017
H41   H     H_    0.623086 0.327468 0.877270 0.095989
H42   H     H_    0.853760 0.327292 0.181824 0.116577
H43   H     H_    0.066246 0.678987 0.803803 0.116306
H44   H     H_    0.193792 0.741087 0.371072 0.118519
H45   H     H_    0.449824 0.331101 0.058599 0.120031
H46   H     H_    0.814837 0.175019 0.636020 0.108686
H47   H     H_    0.123452 0.242735 0.943518 0.121687
H48   H     H_    0.976964 0.828893 0.160237 0.105574
H49   H     H_    0.377938 0.194628 0.862356 0.111845
H50   H     H_    0.646093 0.865449 0.130893 0.107182
H51   H     H_    0.663849 0.791718 0.965656 0.120861
H52   H     H_    0.520461 0.064839 0.999440 0.094799
H53   H     H_    0.445409 0.859807 0.862801 0.098061
H54   H     H_    0.560121 0.248835 0.025628 0.097607
N1    N     N_R   0.947560 0.293820 0.002910 -0.042703
N2    N     N_R   0.789450 0.443190 0.997090 -0.040564
N3    N     N_R   0.945970 0.443180 0.152110 -0.040197
N4    N     N_R   0.054030 0.556820 0.847890 -0.043917
N5    N     N_R   0.151530 0.706170 0.208880 -0.043993
N6    N     N_R   0.848470 0.293830 0.791120 -0.039221
N7    N     N_R   0.004980 0.293810 0.946140 -0.043614
N8    N     N_R   0.995020 0.706190 0.053860 -0.039053
N9    N     N_1   0.002791 0.878706 0.802931 -0.083586
N10   N     N_1   0.082973 0.182015 0.430653 -0.081471
N11   N     N_1   0.515894 0.559842 0.216118 -0.088300
N12   N     N_R   0.052440 0.706180 0.997090 -0.042606
N13   N     N_1   0.470659 0.457714 0.648336 -0.078357
N14   N     N_R   0.208960 0.706170 0.152110 -0.042586
N15   N     N_R   0.791040 0.293830 0.847890 -0.035933
N16   N     N_R   0.154330 0.443160 0.946140 -0.040883
N17   N     N_R   0.845670 0.556840 0.053860 -0.041881
N18   N     N_R   0.002190 0.556820 0.208880 -0.040058
N19   N     N_R   0.997810 0.443180 0.791120 -0.040799
N20   N     N_R   0.210550 0.556810 0.002910 -0.037809
Ni1   Ni    Ni4+2 0.869690 0.369690 0.000000 0.213127
Ni2   Ni    Ni4+2 0.130310 0.630310 0.000000 0.214503
Ni3   Ni    Ni4+2 0.001390 0.369680 0.869810 0.216175
Ni4   Ni    Ni4+2 0.998610 0.630320 0.130190 0.215139

loop_
_geom_bond_atom_site_label_1
_geom_bond_atom_site_label_2
_ccdc_geom_bond_type
C58   C62   A    
C56   C76   A    
C41   N17   A    
C45   C71   S    
N4    Ni2   S    
C14   C18   A    
C1    N1    A    
C67   C77   A    
C24   C27   A    
C80   H44   S    
C41   C56   A    
N1    Ni1   S    
C1    C84   A    
C15   C19   A    
N5    Ni4   S    
C34   C51   S    
C12   C85   A    
C45   C75   A    
C26   C67   S    
N16   N20   A    
C19   C21   A    
C86   N9    T    
C24   C26   A    
C32   C61   A    
C38   C42   A    
C82   H47   S    
C43   H24   S    
C11   C14   A    
C66   C69   S    
C24   H10   S    
C10   H4    S    
C68   C74   S    
C81   N6    A    
C62   C89   A    
C33   C36   A    
C55   H49   S    
C4    H34   S    
C64   N18   A    
C59   C89   A    
N16   Ni3   S    
C69   C71   S    
C42   H22   S    
N3    Ni1   S    
C3    C55   A    
C49   H27   S    
C89   H29   S    
C44   H25   S    
C64   H38   S    
C22   C25   A    
C4    C57   A    
C50   C52   A    
C8    H2    S    
C34   C81   A    
C69   H31   S    
C23   C80   A    
C44   C47   A    
C61   H15   S    
N5    N14   A    
C77   N3    A    
C82   N7    A    
C35   H19   S    
C75   H40   S    
C76   N2    A    
C1    H1    S    
C22   C28   A    
C40   C45   A    
C33   H18   S    
C42   C44   A    
C32   C57   A    
C12   N12   A    
C35   C48   A    
C7    H54   S    
N8    Ni4   S    
C19   H8    S    
C52   C54   A    
C5    C29   A    
C80   N5    A    
C79   H43   S    
C62   C85   S    
C66   C72   S    
C50   C53   A    
N6    N15   A    
C16   N14   A    
C25   C78   S    
N3    N18   A    
C64   C67   A    
N8    N12   A    
C21   H53   S    
C72   C74   S    
C3    H23   S    
C15   H6    S    
C71   C73   S    
C2    H30   S    
C78   C79   A    
C39   C43   A    
C49   C51   A    
C66   C73   S    
C6    C30   A    
C6    C87   S    
N15   Ni1   S    
C57   H50   S    
C75   N20   A    
C51   C53   A    
C77   H42   S    
C31   C60   A    
C56   C72   S    
N19   Ni3   S    
C88   N11   T    
C73   C88   S    
C12   H12   S    
C20   H52   S    
C70   H32   S    
C38   C54   S    
C29   C60   A    
N12   Ni2   S    
C47   H16   S    
C40   H36   S    
C65   N19   A    
C70   C73   S    
C8    C21   A    
C87   N10   T    
C69   C74   S    
C9    C11   A    
C32   H51   S    
N1    N7    A    
N18   Ni4   S    
N2    N17   A    
C31   H45   S    
C18   H7    S    
N2    Ni1   S    
C16   C23   A    
C82   C84   A    
C13   C15   A    
C36   H20   S    
C33   C47   A    
C4    C6    A    
C17   C34   A    
C5    C86   S    
C41   H37   S    
C9    H3    S    
C14   H5    S    
C2    C63   A    
N14   Ni2   S    
C81   H46   S    
C83   N8    A    
C35   C37   A    
C7    C9    A    
C22   H9    S    
C83   C85   A    
C50   H28   S    
N4    N19   A    
C26   C28   A    
C40   N16   A    
C3    C5    A    
C10   C13   A    
C65   H39   S    
C2    C58   A    
C79   N4    A    
C25   C27   A    
C59   C63   A    
C46   H26   S    
C63   C84   S    
C65   C78   A    
C74   C90   S    
C90   N13   T    
N20   Ni2   S    
C17   H13   S    
C37   C39   A    
C23   C52   S    
C39   C53   S    
C11   C28   S    
C68   C71   S    
N7    Ni3   S    
N6    Ni3   S    
C30   C58   S    
C36   C38   A    
C76   H41   S    
C18   C20   A    
C17   N15   A    
C43   C46   A    
C37   H21   S    
N17   Ni4   S    
C48   H17   S    
C46   C48   A    
C16   H11   S    
C8    C10   A    
C7    C20   A    
C30   C61   A    
C68   C70   S    
C29   C59   S    
C66   H33   S    
C13   C27   S    
C70   C72   S    
C31   C55   A    
C60   H14   S    
C68   H35   S    
C83   H48   S    
C49   C54   A    
