data_mof_unit_53557.cif
_audit_creation_date              2012-12-10T17:24:56-0500
_audit_creation_method            fapswitch 2.2
_symmetry_space_group_name_H-M    P1
_symmetry_Int_Tables_number       1
_space_group_crystal_system       triclinic
_cell_length_a                    10.103234
_cell_length_b                    10.850165
_cell_length_c                    18.977496
_cell_angle_alpha                 90.578945
_cell_angle_beta                  80.682503
_cell_angle_gamma                 95.811027
_cell_volume                      2042.30776084

loop_
_atom_site_label
_atom_site_type_symbol
_atom_type_description
_atom_site_fract_x
_atom_site_fract_y
_atom_site_fract_z
_atom_type_partial_charge
C1    C     C_R   0.556803 0.732234 0.492693 0.904658
C2    C     C_R   0.502462 0.506371 0.364955 0.857185
C3    C     C_R   0.408799 0.599158 0.751630 0.476624
C4    C     C_R   0.638579 0.570907 0.246453 0.470455
C5    C     C_R   0.420030 0.626626 0.822353 -0.259500
C6    C     C_R   0.643771 0.602042 0.174989 -0.264963
C7    C     C_R   0.530385 0.594300 0.851484 0.016827
C8    C     C_R   0.525011 0.605557 0.146398 0.024826
C9    C     C_R   0.630309 0.533045 0.809357 -0.159290
C10   C     C_R   0.399703 0.579508 0.190152 -0.164877
C11   C     C_R   0.618289 0.502053 0.739356 -0.278404
C12   C     C_R   0.443193 0.267424 0.505801 0.950844
C13   C     C_R   0.393379 0.544740 0.260874 -0.284952
C14   C     C_R   0.506800 0.532622 0.710129 -0.143510
C15   C     C_R   0.512140 0.536984 0.289254 -0.142631
C16   C     C_R   0.532222 0.622772 0.069638 0.313945
C17   C     C_R   0.535067 0.615609 0.927182 0.313346
C18   C     C_3   0.323550 0.758872 0.702863 0.077467
C19   C     C_3   0.189859 0.807881 0.695396 -0.297939
C20   C     C_3   0.211296 0.937883 0.663014 -0.965037
C21   C     C_3   0.802441 0.690416 0.291686 0.093112
C22   C     C_3   0.934014 0.688456 0.321444 -0.294786
C23   C     C_2   0.590607 0.863941 0.488620 -0.520207
C24   C     C_3   0.983185 0.816365 0.346772 -0.968052
C25   C     C_3   0.595776 0.066687 0.614272 0.058237
C26   C     C_3   0.549025 0.173601 0.662032 -0.323198
C27   C     C_3   0.541185 0.142539 0.740918 -0.965083
C28   C     C_3   0.402562 0.857949 0.382945 0.141797
C29   C     C_3   0.381248 0.963952 0.334841 -0.408971
C30   C     C_3   0.394899 0.923775 0.256885 -0.919090
C31   C     C_2   0.410008 0.135676 0.502833 -0.474500
C32   C     C_2   0.494663 0.937215 0.480309 0.406670
C33   C     C_2   0.503862 0.060669 0.510911 0.428254
C34   C     C_2   0.927191 0.510404 0.505985 -0.148565
C35   C     C_2   0.072711 0.489105 0.494287 -0.129514
C36   C     C_R   0.500822 0.505670 0.634914 0.853249
H1    H     H_    0.341826 0.673929 0.854195 0.167632
H2    H     H_    0.891010 0.579219 0.544299 0.168065
H3    H     H_    0.119785 0.616724 0.563762 0.170488
H4    H     H_    0.880245 0.384379 0.435329 0.178073
H5    H     H_    0.391379 0.765462 0.650355 0.152651
H6    H     H_    0.371123 0.818909 0.741912 0.110559
H7    H     H_    0.135172 0.745090 0.660918 0.221955
H8    H     H_    0.126242 0.809807 0.748905 0.219581
H9    H     H_    0.264669 0.003126 0.696922 0.265563
H10   H     H_    0.112173 0.970845 0.659198 0.268406
H11   H     H_    0.270882 0.936846 0.608545 0.283449
H12   H     H_    0.741379 0.622460 0.141898 0.165963
H13   H     H_    0.725881 0.727231 0.333428 0.128745
H14   H     H_    0.821518 0.753095 0.244159 0.125491
H15   H     H_    0.917959 0.622711 0.367110 0.241287
H16   H     H_    0.012772 0.656105 0.279487 0.211173
H17   H     H_    0.003478 0.883442 0.301545 0.266438
H18   H     H_    0.077906 0.810946 0.368661 0.269731
H19   H     H_    0.906556 0.849699 0.389474 0.272129
H20   H     H_    0.694252 0.043965 0.626780 0.165831
H21   H     H_    0.524111 0.981631 0.626961 0.108341
H22   H     H_    0.621277 0.257226 0.648548 0.244253
H23   H     H_    0.716159 0.506216 0.830906 0.166795
H24   H     H_    0.448009 0.194416 0.652420 0.207081
H25   H     H_    0.469957 0.058642 0.755822 0.259621
H26   H     H_    0.505055 0.221271 0.773908 0.279876
H27   H     H_    0.642341 0.126111 0.752417 0.267467
H28   H     H_    0.329747 0.776990 0.375319 0.176733
H29   H     H_    0.505039 0.827659 0.365820 0.097619
H30   H     H_    0.279077 0.994062 0.351996 0.234005
H31   H     H_    0.457144 0.043826 0.339836 0.221051
H32   H     H_    0.496567 0.893487 0.238486 0.262810
H33   H     H_    0.380731 0.002767 0.223071 0.270723
H34   H     H_    0.306404 0.581396 0.169186 0.162350
H35   H     H_    0.317149 0.846243 0.250449 0.268353
H36   H     H_    0.696416 0.453860 0.708162 0.180333
H37   H     H_    0.295236 0.522933 0.293194 0.174798
H38   H     H_    0.316726 0.102025 0.484302 0.166683
H39   H     H_    0.686853 0.900566 0.502802 0.167021
H40   H     H_    0.108763 0.419862 0.456233 0.162306
N1    N     N_R   0.648183 0.600067 0.954468 -0.177920
N2    N     N_R   0.420352 0.642304 0.042200 -0.178968
N3    N     N_R   0.646768 0.603738 0.024502 -0.173867
N4    N     N_R   0.421911 0.639102 0.972162 -0.175494
N5    N     N_2   0.842710 0.448880 0.471430 -0.189303
N6    N     N_2   0.157290 0.551120 0.528570 -0.177924
O1    O     O_R   0.431050 0.692470 0.505750 -0.560965
O2    O     O_3   0.758076 0.568598 0.272914 -0.627595
O3    O     O_3   0.616252 0.103000 0.541483 -0.629602
O4    O     O_3   0.375953 0.892719 0.455715 -0.647212
O5    O     O_R   0.568950 0.307530 0.494250 -0.541263
O6    O     O_R   0.651120 0.659650 0.487410 -0.623187
O7    O     O_R   0.348880 0.340350 0.512590 -0.619344
O8    O     O_R   0.389930 0.516430 0.611030 -0.559599
O9    O     O_R   0.610070 0.483570 0.388970 -0.562036
O10   O     O_R   0.610000 0.483610 0.592700 -0.629467
O11   O     O_R   0.390000 0.516390 0.407300 -0.635628
O12   O     O_3   0.298202 0.633414 0.725004 -0.624891
Zn1   Zn    Zn3+2 0.353060 0.521920 0.512240 0.963035
Zn2   Zn    Zn3+2 0.646940 0.478080 0.487760 0.965376

loop_
_geom_bond_atom_site_label_1
_geom_bond_atom_site_label_2
_ccdc_geom_bond_type
O6    Zn2   S    
C5    H1    S    
C19   C20   S    
C25   H20   S    
C21   H13   S    
C30   H35   S    
O8    Zn1   S    
C24   H19   S    
C26   C27   S    
C6    H12   S    
C28   C29   S    
C18   C19   S    
C18   H6    S    
C14   C36   S    
C11   C14   A    
N2    N4    A    
C24   H18   S    
O10   Zn2   S    
C34   C35   S    
C33   O3    S    
C27   H25   S    
O9    Zn2   S    
C29   H31   S    
C7    C17   S    
C31   C33   D    
C34   N5    D    
C20   H9    S    
C36   O10   A    
C1    O6    A    
O1    Zn1   S    
C8    C16   S    
C21   C22   S    
C25   H21   S    
C25   O3    S    
C21   H14   S    
C35   N6    D    
C19   H7    S    
N1    N3    A    
C35   H40   S    
C12   O7    A    
C4    C6    A    
C18   H5    S    
C5    C7    A    
N5    Zn2   S    
C11   H36   S    
C31   H38   S    
C6    C8    A    
C24   H17   S    
C17   N4    A    
C9    H23   S    
O7    Zn1   S    
C29   C30   S    
C27   H26   S    
C26   H22   S    
C4    O2    S    
C21   O2    S    
C32   O4    S    
O5    Zn2   S    
C17   N1    A    
C2    C15   S    
C9    C11   A    
C3    C14   A    
C27   H27   S    
C10   H34   S    
C8    C10   A    
C13   H37   S    
C1    C23   S    
C13   C15   A    
C12   C31   S    
C28   O4    S    
C18   O12   S    
C22   C24   S    
C28   H28   S    
C30   H33   S    
C19   H8    S    
C22   H16   S    
C36   O8    A    
C7    C9    A    
N6    Zn1   S    
C12   O5    A    
C34   H2    S    
H4    N5    S    
C2    O11   A    
H3    N6    S    
C23   H39   S    
C3    C5    A    
C10   C13   A    
C1    O1    A    
C16   N3    A    
C23   C32   D    
C4    C15   A    
C28   H29   S    
C25   C26   S    
C32   C33   S    
C3    O12   S    
C16   N2    A    
C2    O9    A    
C20   H10   S    
C20   H11   S    
C29   H30   S    
O11   Zn1   S    
C26   H24   S    
C30   H32   S    
C22   H15   S    
