data_mof_unit_45939.cif
_audit_creation_date              2012-12-11T14:28:14-0500
_audit_creation_method            fapswitch 2.2
_symmetry_space_group_name_H-M    P1
_symmetry_Int_Tables_number       1
_space_group_crystal_system       triclinic
_cell_length_a                    11.081939
_cell_length_b                    19.299995
_cell_length_c                    18.473234
_cell_angle_alpha                 90.023355
_cell_angle_beta                  90.179507
_cell_angle_gamma                 89.664149
_cell_volume                      3950.99297749

loop_
_atom_site_label
_atom_site_type_symbol
_atom_type_description
_atom_site_fract_x
_atom_site_fract_y
_atom_site_fract_z
_atom_type_partial_charge
C1    C     C_R   0.318803 0.969363 0.646357 0.571522
C2    C     C_R   0.321451 0.968728 0.854270 0.584336
C3    C     C_R   0.322013 0.030351 0.353274 0.575638
C4    C     C_R   0.319118 0.029658 0.147325 0.574104
C5    C     C_R   0.818770 0.469587 0.646623 0.573293
C6    C     C_R   0.821484 0.468551 0.854460 0.583638
C7    C     C_R   0.822069 0.530768 0.353439 0.574078
C8    C     C_R   0.819117 0.529517 0.147488 0.572718
C9    C     C_3   0.154288 0.736937 0.460022 -0.085578
C10   C     C_3   0.105454 0.682849 0.018223 -0.061126
C11   C     C_3   0.107466 0.318243 0.514593 -0.114005
C12   C     C_3   0.024954 0.302951 0.995673 -0.097828
C13   C     C_3   0.656992 0.244996 0.458890 -0.092258
C14   C     C_3   0.605218 0.182823 0.018175 -0.061248
C15   C     C_3   0.565221 0.829835 0.509995 -0.108721
C16   C     C_3   0.525174 0.802859 0.995539 -0.097284
C17   C     C_3   0.024020 0.729147 0.436746 0.021878
C18   C     C_3   0.069381 0.743208 0.068864 0.041243
C19   C     C_3   0.041773 0.266842 0.563295 0.028792
C20   C     C_3   0.063901 0.256901 0.931907 0.011866
C21   C     C_3   0.527536 0.231342 0.436459 0.018715
C22   C     C_3   0.569278 0.243195 0.068838 0.041601
C23   C     C_3   0.527107 0.773017 0.562178 0.012941
C24   C     C_3   0.564181 0.756767 0.931812 0.011749
C25   C     C_R   0.335046 0.993732 0.423318 0.039264
C26   C     C_R   0.322508 0.989898 0.078653 -0.007178
C27   C     C_R   0.323013 0.004525 0.574971 -0.019022
C28   C     C_R   0.333054 0.000542 0.927104 0.034114
C29   C     C_R   0.835149 0.495984 0.424123 0.033681
C30   C     C_R   0.822554 0.489223 0.079192 -0.007698
C31   C     C_R   0.823278 0.505414 0.575669 -0.019481
C32   C     C_R   0.833177 0.499847 0.927617 0.033723
C33   C     C_R   0.562326 0.985901 0.435088 0.201124
C34   C     C_R   0.534686 0.961764 0.084485 0.179723
C35   C     C_R   0.540609 0.020239 0.581037 0.196744
C36   C     C_R   0.562714 0.999559 0.939508 0.207587
C37   C     C_R   0.063931 0.486302 0.436240 0.224044
C38   C     C_R   0.034817 0.461326 0.085446 0.180591
C39   C     C_R   0.040978 0.516853 0.582489 0.212743
C40   C     C_R   0.062943 0.498751 0.940301 0.207415
C41   C     C_R   0.662219 0.984326 0.481243 -0.117845
C42   C     C_R   0.648633 0.969438 0.056246 -0.143009
C43   C     C_R   0.650204 0.998100 0.554581 -0.094305
C44   C     C_R   0.662378 0.987678 0.984315 -0.154765
C45   C     C_R   0.160686 0.478000 0.483815 -0.111826
C46   C     C_R   0.148735 0.469126 0.057237 -0.142328
C47   C     C_R   0.147611 0.489462 0.557436 -0.094115
C48   C     C_R   0.162529 0.487103 0.985243 -0.155160
C49   C     C_R   0.435335 0.008317 0.540297 -0.064506
C50   C     C_R   0.443036 0.994198 0.968228 -0.010123
C51   C     C_R   0.444289 0.996707 0.464335 -0.028511
C52   C     C_R   0.433285 0.982077 0.043931 -0.043004
C53   C     C_R   0.935762 0.508248 0.541073 -0.053683
C54   C     C_R   0.943172 0.493319 0.968851 -0.010481
C55   C     C_R   0.945068 0.498122 0.464914 -0.016602
C56   C     C_R   0.933346 0.481244 0.044609 -0.043298
C57   C     C_R   0.216889 0.002745 0.532380 -0.017156
C58   C     C_R   0.222575 0.008640 0.964491 -0.000597
C59   C     C_R   0.225971 0.982856 0.459871 0.008202
C60   C     C_R   0.216211 0.989203 0.037136 -0.013581
C61   C     C_R   0.717019 0.504741 0.533201 -0.019958
C62   C     C_R   0.722676 0.507871 0.965013 -0.000699
C63   C     C_R   0.725915 0.485100 0.460698 0.003612
C64   C     C_R   0.716320 0.488375 0.037640 -0.013566
C65   C     C_R   0.100814 0.015517 0.560947 -0.071123
C66   C     C_R   0.115511 0.030816 0.929697 -0.069550
C67   C     C_R   0.122338 0.958915 0.423332 -0.059194
C68   C     C_R   0.102437 0.974796 0.067685 -0.070091
C69   C     C_R   0.600902 0.516782 0.562163 -0.073311
C70   C     C_R   0.615622 0.530247 0.930329 -0.069952
C71   C     C_R   0.622454 0.460097 0.424605 -0.062810
C72   C     C_R   0.602557 0.474091 0.068257 -0.070017
C73   C     C_R   0.998243 0.997511 0.521762 -0.110478
C74   C     C_R   0.003799 0.019550 0.961285 -0.136708
C75   C     C_R   0.009181 0.967913 0.453482 -0.130697
C76   C     C_R   0.997111 0.990221 0.029822 -0.118701
C77   C     C_R   0.498324 0.496863 0.523883 -0.110869
C78   C     C_R   0.503913 0.519177 0.962017 -0.136871
C79   C     C_R   0.509446 0.466918 0.455732 -0.126695
C80   C     C_R   0.497227 0.489748 0.030508 -0.118213
C81   C     C_R   0.136936 0.758624 0.642626 0.578604
C82   C     C_R   0.135481 0.758805 0.856303 0.609407
C83   C     C_R   0.133596 0.241321 0.355599 0.619016
C84   C     C_R   0.179238 0.229672 0.136371 0.570544
C85   C     C_R   0.637637 0.258878 0.642568 0.584244
C86   C     C_R   0.635513 0.258816 0.856309 0.609395
C87   C     C_R   0.633916 0.741948 0.356193 0.616056
C88   C     C_R   0.679277 0.729658 0.136369 0.570770
C89   C     C_R   0.497958 0.787308 0.637405 0.538972
C90   C     C_R   0.533099 0.772960 0.858186 0.557587
C91   C     C_R   0.498691 0.213725 0.362549 0.541775
C92   C     C_R   0.541746 0.230048 0.144437 0.579342
C93   C     C_R   0.007562 0.283494 0.636924 0.546324
C94   C     C_R   0.032817 0.273077 0.858281 0.556621
C95   C     C_R   0.996999 0.712907 0.362276 0.547400
C96   C     C_R   0.041793 0.730062 0.144456 0.581162
C97   C     C_3   0.987334 0.792353 0.482299 -0.132223
C98   C     C_3   0.161768 0.791822 0.035224 -0.124082
C99   C     C_3   0.115629 0.205271 0.535523 -0.122387
C100  C     C_3   0.194890 0.258065 0.955368 -0.125298
C101  C     C_3   0.482212 0.291199 0.484575 -0.139281
C102  C     C_3   0.661799 0.291747 0.035238 -0.124393
C103  C     C_3   0.629064 0.724729 0.538883 -0.128168
C104  C     C_3   0.695145 0.757926 0.955323 -0.125491
C105  C     C_3   0.119204 0.799198 0.507543 -0.148554
C106  C     C_3   0.198595 0.731667 0.984286 -0.103379
C107  C     C_3   0.181727 0.256559 0.486442 -0.172728
C108  C     C_3   0.157841 0.303844 0.019530 -0.127528
C109  C     C_3   0.613221 0.303812 0.509033 -0.151120
C110  C     C_3   0.698512 0.231580 0.984292 -0.103288
C111  C     C_3   0.668732 0.781809 0.486190 -0.145372
C112  C     C_3   0.658031 0.803755 0.019445 -0.127176
C113  C     C_3   0.092463 0.749080 0.569599 0.056283
C114  C     C_3   0.101338 0.755067 0.930872 0.069521
C115  C     C_3   0.086372 0.246309 0.427973 0.063141
C116  C     C_3   0.136250 0.237813 0.063245 0.061687
C117  C     C_3   0.595310 0.250396 0.569333 0.060505
C118  C     C_3   0.601350 0.255084 0.930871 0.069684
C119  C     C_3   0.584653 0.751067 0.428484 0.067745
C120  C     C_3   0.636373 0.737754 0.063203 0.061441
C121  C     C_3   0.960761 0.742331 0.545972 -0.150790
C122  C     C_3   0.065147 0.815516 0.980141 -0.162561
C123  C     C_3   0.020727 0.193740 0.475521 -0.085607
C124  C     C_3   0.172658 0.191541 0.999998 -0.135357
C125  C     C_3   0.465206 0.237865 0.546601 -0.154099
C126  C     C_3   0.565265 0.315542 0.980145 -0.162378
C127  C     C_3   0.543898 0.694079 0.480982 -0.105102
C128  C     C_3   0.672831 0.691433 0.999996 -0.135802
C129  C     C_3   0.997845 0.679150 0.498445 -0.106002
C130  C     C_3   0.971588 0.767248 0.015090 -0.146306
C131  C     C_3   0.945421 0.255288 0.505554 -0.087014
C132  C     C_3   0.039093 0.190723 0.975381 -0.110001
C133  C     C_3   0.510499 0.178528 0.496737 -0.101139
C134  C     C_3   0.471564 0.267343 0.015055 -0.145899
C135  C     C_3   0.440998 0.743524 0.505915 -0.088703
C136  C     C_3   0.539301 0.690614 0.975320 -0.110609
C137  C     C_3   0.129864 0.687227 0.522547 0.192276
C138  C     C_3   0.009013 0.707592 0.964152 0.138340
C139  C     C_3   0.010529 0.305895 0.455584 0.150941
C140  C     C_3   0.004147 0.236669 0.040387 0.169183
C141  C     C_3   0.640954 0.192370 0.519882 0.195444
C142  C     C_3   0.508859 0.207681 0.964095 0.138118
C143  C     C_3   0.482419 0.798744 0.452096 0.146729
C144  C     C_3   0.504294 0.736603 0.040288 0.169509
Cr1   Cr    Cr6+3 0.488160 0.884660 0.750000 1.092279
Cr2   Cr    Cr6+3 0.488160 0.115340 0.250000 1.109878
Cr3   Cr    Cr6+3 0.988160 0.384660 0.750000 1.094135
Cr4   Cr    Cr6+3 0.988160 0.615340 0.250000 1.115505
Cr5   Cr    Cr6+3 0.173480 0.883120 0.750000 1.027446
Cr6   Cr    Cr6+3 0.173480 0.116880 0.250000 1.067272
Cr7   Cr    Cr6+3 0.673480 0.383120 0.750000 1.027974
Cr8   Cr    Cr6+3 0.673480 0.616880 0.250000 1.071398
Cr9   Cr    Cr6+3 0.333410 0.727260 0.750000 1.094694
Cr10  Cr    Cr6+3 0.333410 0.272740 0.250000 1.063025
Cr11  Cr    Cr6+3 0.833410 0.227260 0.750000 1.096663
Cr12  Cr    Cr6+3 0.833410 0.772740 0.250000 1.062414
H1    H     H_    0.172110 0.847343 0.513986 0.149580
H2    H     H_    0.290574 0.716695 0.966987 0.147815
H3    H     H_    0.275085 0.251285 0.469606 0.115296
H4    H     H_    0.213779 0.346998 0.038639 0.135140
H5    H     H_    0.659210 0.353813 0.518094 0.149957
H6    H     H_    0.790471 0.216539 0.967025 0.147866
H7    H     H_    0.758954 0.800569 0.474823 0.125818
H8    H     H_    0.713811 0.846982 0.038554 0.135341
H9    H     H_    0.910944 0.005086 0.545325 0.150682
H10   H     H_    0.923423 0.034559 0.932065 0.122852
H11   H     H_    0.931032 0.952772 0.422579 0.121665
H12   H     H_    0.911136 0.980882 0.054548 0.111465
H13   H     H_    0.410994 0.502937 0.548155 0.154541
H14   H     H_    0.423525 0.534379 0.932910 0.123161
H15   H     H_    0.431504 0.449890 0.425739 0.126756
H16   H     H_    0.411265 0.480558 0.055313 0.111674
H17   H     H_    0.935668 0.837227 0.461769 0.127789
H18   H     H_    0.222792 0.827112 0.065259 0.166780
H19   H     H_    0.159834 0.165488 0.570084 0.134619
H20   H     H_    0.268295 0.272006 0.917599 0.182722
H21   H     H_    0.418099 0.332525 0.467903 0.130033
H22   H     H_    0.722868 0.326989 0.065304 0.165949
H23   H     H_    0.687289 0.694436 0.576392 0.134800
H24   H     H_    0.768620 0.771771 0.917563 0.182572
H25   H     H_    0.883748 0.745559 0.583983 0.136456
H26   H     H_    0.047549 0.868582 0.959829 0.156162
H27   H     H_    0.988080 0.143323 0.454583 0.184805
H28   H     H_    0.233263 0.146296 0.007504 0.157431
H29   H     H_    0.388620 0.235169 0.585079 0.143438
H30   H     H_    0.547791 0.368607 0.959801 0.156305
H31   H     H_    0.533872 0.638649 0.466375 0.172869
H32   H     H_    0.733305 0.646131 0.007539 0.157665
H33   H     H_    0.941532 0.632931 0.491126 0.112657
H34   H     H_    0.883579 0.783205 0.035964 0.119470
H35   H     H_    0.852218 0.263072 0.523258 0.141371
H36   H     H_    0.981512 0.149897 0.952551 0.132342
H37   H     H_    0.462690 0.129777 0.487050 0.119364
H38   H     H_    0.383549 0.283334 0.035896 0.119497
H39   H     H_    0.349535 0.743844 0.526572 0.153151
H40   H     H_    0.481874 0.649702 0.952493 0.132245
H41   H     H_    0.229847 0.731211 0.421452 0.204325
H42   H     H_    0.123031 0.628532 0.035026 0.163216
H43   H     H_    0.154589 0.361925 0.538903 0.133891
H44   H     H_    0.961004 0.346999 0.990681 0.120459
H45   H     H_    0.731879 0.245841 0.419339 0.194721
H46   H     H_    0.622664 0.128499 0.034987 0.162935
H47   H     H_    0.561870 0.881532 0.532974 0.137075
H48   H     H_    0.461363 0.846985 0.990528 0.121122
H49   H     H_    0.749222 0.970033 0.460629 0.137757
H50   H     H_    0.726078 0.956345 0.089186 0.137618
H51   H     H_    0.727694 0.997001 0.590119 0.167531
H52   H     H_    0.751728 0.990724 0.962469 0.132033
H53   H     H_    0.247429 0.462058 0.463863 0.133322
H54   H     H_    0.226210 0.456395 0.090308 0.138584
H55   H     H_    0.224629 0.485530 0.593278 0.157618
H56   H     H_    0.251938 0.490282 0.963494 0.132100
H57   H     H_    0.128685 0.936237 0.369779 0.171298
H58   H     H_    0.094979 0.952492 0.121284 0.148309
H59   H     H_    0.088971 0.038863 0.613782 0.155077
H60   H     H_    0.117940 0.055227 0.876907 0.159898
H61   H     H_    0.628916 0.437095 0.371209 0.167584
H62   H     H_    0.595154 0.451860 0.121894 0.147741
H63   H     H_    0.589235 0.540055 0.615052 0.158642
H64   H     H_    0.618032 0.554801 0.877614 0.160148
O1    O     O_R   0.575450 0.828820 0.667950 -0.507669
O2    O     O_R   0.575450 0.828820 0.832050 -0.495915
O3    O     O_R   0.575450 0.171180 0.332050 -0.472787
O4    O     O_R   0.575450 0.171180 0.167950 -0.481183
O5    O     O_R   0.075450 0.328820 0.667950 -0.515284
O6    O     O_R   0.075450 0.328820 0.832050 -0.495947
O7    O     O_R   0.075450 0.671180 0.332050 -0.469225
O8    O     O_R   0.075450 0.671180 0.167950 -0.479549
O9    O     O_R   0.416860 0.942890 0.674680 -0.474366
O10   O     O_R   0.416860 0.942890 0.825320 -0.449614
O11   O     O_R   0.416860 0.057110 0.325320 -0.467896
O12   O     O_R   0.416860 0.057110 0.174680 -0.466211
O13   O     O_R   0.916860 0.442890 0.674680 -0.469652
O14   O     O_R   0.916860 0.442890 0.825320 -0.449449
O15   O     O_R   0.916860 0.557110 0.325320 -0.465800
O16   O     O_R   0.916860 0.557110 0.174680 -0.465702
O17   O     O_R   0.213790 0.953680 0.668330 -0.530705
O18   O     O_R   0.213790 0.953680 0.831670 -0.533303
O19   O     O_R   0.213790 0.046320 0.331670 -0.530509
O20   O     O_R   0.213790 0.046320 0.168330 -0.530604
O21   O     O_R   0.713790 0.453680 0.668330 -0.531740
O22   O     O_R   0.713790 0.453680 0.831670 -0.533715
O23   O     O_R   0.713790 0.546320 0.331670 -0.531283
O24   O     O_R   0.713790 0.546320 0.168330 -0.530714
O25   O     O_R   0.121360 0.817890 0.672660 -0.515680
O26   O     O_R   0.121360 0.817890 0.827340 -0.515477
O27   O     O_R   0.121360 0.182110 0.327340 -0.503317
O28   O     O_R   0.121360 0.182110 0.172660 -0.439481
O29   O     O_R   0.621360 0.317890 0.672660 -0.517505
O30   O     O_R   0.621360 0.317890 0.827340 -0.515983
O31   O     O_R   0.621360 0.682110 0.327340 -0.497265
O32   O     O_R   0.621360 0.682110 0.172660 -0.438249
O33   O     O_R   0.206850 0.711370 0.665820 -0.437860
O34   O     O_R   0.206850 0.711370 0.834180 -0.471870
O35   O     O_R   0.206850 0.288630 0.334180 -0.472159
O36   O     O_R   0.206850 0.288630 0.165820 -0.471261
O37   O     O_R   0.706850 0.211370 0.665820 -0.432671
O38   O     O_R   0.706850 0.211370 0.834180 -0.472474
O39   O     O_R   0.706850 0.788630 0.334180 -0.477128
O40   O     O_R   0.706850 0.788630 0.165820 -0.470319
O41   O     O_R   0.457710 0.733190 0.672630 -0.480882
O42   O     O_R   0.457710 0.733190 0.827370 -0.518758
O43   O     O_R   0.457710 0.266810 0.327370 -0.507119
O44   O     O_R   0.457710 0.266810 0.172630 -0.535221
O45   O     O_R   0.957710 0.233190 0.672630 -0.480373
O46   O     O_R   0.957710 0.233190 0.827370 -0.519626
O47   O     O_R   0.957710 0.766810 0.327370 -0.506389
O48   O     O_R   0.957710 0.766810 0.172630 -0.535161
O49   O     O_3   0.331690 0.831680 0.750000 -0.325921
O50   O     O_3   0.331690 0.168320 0.250000 -0.346864
O51   O     O_3   0.831690 0.331680 0.750000 -0.321129
O52   O     O_3   0.831690 0.668320 0.250000 -0.349053
Br1   Br    Br    0.261728 0.623468 0.539262 -0.575839
Br2   Br    Br    0.909694 0.656580 0.896826 -0.538644
Br3   Br    Br    0.908080 0.347010 0.382248 -0.493755
Br4   Br    Br    0.884148 0.216631 0.114112 -0.467889
Br5   Br    Br    0.774673 0.131170 0.538816 -0.586413
Br6   Br    Br    0.409368 0.157060 0.896540 -0.538775
Br7   Br    Br    0.377101 0.837452 0.378667 -0.491173
Br8   Br    Br    0.384228 0.716608 0.113990 -0.461485
Br9   Br    Br    0.600297 0.955546 0.339302 -0.369685
Br10  Br    Br    0.517847 0.908530 0.171372 -0.352629
Br11  Br    Br    0.539943 0.075155 0.668007 -0.379192
Br12  Br    Br    0.608067 0.034838 0.846313 -0.377155
Br13  Br    Br    0.111374 0.467085 0.338321 -0.362169
Br14  Br    Br    0.018706 0.409501 0.173498 -0.351278
Br15  Br    Br    0.043788 0.572468 0.669142 -0.372829
Br16  Br    Br    0.108683 0.534182 0.847306 -0.377648

loop_
_geom_bond_atom_site_label_1
_geom_bond_atom_site_label_2
_ccdc_geom_bond_type
C6    C32   S    
Cr1   O10   S    
C7    C29   S    
C119  C143  S    
Cr4   O52   S    
C120  C144  S    
C110  C118  S    
C36   C50   A    
C138  Br2   S    
C4    O12   A    
C121  H25   S    
C16   C144  S    
Cr8   O24   S    
C57   C59   A    
Cr1   O1    S    
C8    O24   A    
C58   C60   A    
C62   C70   A    
C61   C63   A    
C62   C64   A    
Cr10  O43   S    
C23   C103  S    
C48   H56   S    
C49   C51   A    
C34   C42   A    
C84   O36   A    
C50   C52   A    
C23   C89   S    
C88   O32   A    
C97   C105  S    
C128  H32   S    
C73   C75   A    
C42   C44   A    
C20   C132  S    
C21   C133  S    
C116  C140  S    
Cr3   O6    S    
C54   C56   A    
Cr10  O35   S    
C45   C47   A    
C112  H8    S    
C46   C48   A    
C115  C123  S    
Cr2   O50   S    
C27   C57   A    
C87   O39   A    
C112  C120  S    
Cr11  O38   S    
C19   C99   S    
C29   C55   A    
C39   Br15  S    
C46   H54   S    
C30   C56   A    
C40   Br16  S    
C100  C124  S    
C15   C111  S    
Cr11  O51   S    
C104  C128  S    
C12   C20   S    
C13   C21   S    
C85   C117  S    
C36   Br12  S    
C92   O44   A    
C115  C139  S    
C34   Br10  S    
C113  C137  S    
C36   C44   A    
C33   C51   A    
C80   H16   S    
C37   C45   A    
C130  C138  S    
C91   O43   A    
C39   C47   A    
C40   C48   A    
C20   C94   S    
C133  C141  S    
C24   C90   S    
C15   H47   S    
C28   C58   A    
C72   H62   S    
C98   C106  S    
C33   C41   A    
C111  H7    S    
C10   C18   S    
C76   H12   S    
C95   O7    A    
C2    C28   S    
C32   C62   A    
C93   O5    A    
C134  H38   S    
C129  C137  S    
C126  C134  S    
Cr6   O19   S    
C83   O27   A    
C10   C138  S    
C81   O33   A    
Cr10  O50   S    
C101  C109  S    
C130  H34   S    
C96   O48   A    
C14   C142  S    
C85   O29   A    
Cr5   O26   S    
C47   H55   S    
C69   C77   A    
Cr4   O8    S    
Cr6   O50   S    
C71   C79   A    
C110  H6    S    
Cr6   O28   S    
C74   C76   A    
C96   O8    A    
C105  C113  S    
C124  H28   S    
C89   O1    A    
C78   C80   A    
C9    C105  S    
C66   C74   A    
C78   H14   S    
C124  C132  S    
C125  H29   S    
C97   C121  S    
C59   C67   A    
C129  H33   S    
C35   C49   A    
C101  C125  S    
C35   C43   A    
C132  H36   S    
C24   C136  S    
C135  C143  S    
C6    O14   A    
C127  H31   S    
C84   C116  S    
C139  Br3   S    
C9    H41   S    
Cr7   O30   S    
Cr2   O11   S    
C100  C108  S    
C82   O26   A    
C83   C115  S    
C103  C127  S    
C73   H9    S    
C3    O11   A    
C104  C112  S    
C94   O6    A    
C1    O17   A    
C45   H53   S    
C87   C119  S    
Cr7   O21   S    
Cr2   O4    S    
C95   O47   A    
Cr12  O48   S    
C57   C65   A    
C12   H44   S    
C15   C143  S    
C40   C54   A    
C102  H22   S    
C10   C106  S    
C67   C75   A    
Cr8   O32   S    
C38   Br14  S    
C14   C110  S    
Cr1   O9    S    
C102  C126  S    
C68   C76   A    
C84   O28   A    
Cr4   O15   S    
C85   O37   A    
C14   C22   S    
Cr9   O33   S    
C72   C80   A    
C16   H48   S    
C14   H46   S    
C35   Br11  S    
C114  C138  S    
C66   H60   S    
C90   O42   A    
C38   C46   A    
C99   H19   S    
Cr10  O44   S    
C2    O10   A    
C37   C55   A    
Cr3   O14   S    
C38   C56   A    
C133  H37   S    
C22   C92   S    
C6    O22   A    
C25   C59   A    
C26   C60   A    
C27   C49   A    
C119  C127  S    
C29   C63   A    
C30   C64   A    
C41   C43   A    
C31   C61   A    
C142  Br6   S    
Cr3   O5    S    
C109  C117  S    
Cr10  O36   S    
C11   C19   S    
C127  C135  S    
C136  H40   S    
C128  C136  S    
Cr11  O37   S    
C93   O45   A    
C61   C69   A    
C103  C111  S    
C79   H15   S    
C11   C139  S    
C86   O38   A    
Cr3   O51   S    
C9    C137  S    
C105  H1    S    
C100  H20   S    
C12   C140  S    
C17   C95   S    
C13   C141  S    
C88   C120  S    
C68   H58   S    
C19   C93   S    
Cr12  O39   S    
C77   C79   A    
C32   C54   A    
C7    O15   A    
C43   H51   S    
C126  H30   S    
C97   H17   S    
Cr8   O23   S    
Cr1   O2    S    
C83   O35   A    
C117  C141  S    
C134  C142  S    
C20   C100  S    
C92   O4    A    
Cr5   O18   S    
C4    O20   A    
C86   C118  S    
C8    O16   A    
C22   C134  S    
Cr6   O20   S    
C102  C110  S    
C37   Br13  S    
C74   H10   S    
C16   C112  S    
C12   C108  S    
C21   C91   S    
Cr5   O25   S    
C116  C124  S    
C123  C131  S    
C69   H63   S    
C121  C129  S    
C4    C26   S    
C120  C128  S    
C65   H59   S    
Cr12  O52   S    
C132  C140  S    
C99   C107  S    
C34   C52   A    
C71   H61   S    
C23   C135  S    
C8    C30   S    
C108  C116  S    
Cr5   O49   S    
C136  C144  S    
C24   C104  S    
C39   C53   A    
C42   H50   S    
C103  H23   S    
C11   H43   S    
Cr11  O46   S    
C101  H21   S    
C88   O40   A    
C135  H39   S    
C60   C68   A    
C81   C113  S    
Cr5   O17   S    
C82   O34   A    
C3    O19   A    
C86   O30   A    
Cr9   O34   S    
C70   C78   A    
C18   C96   S    
Cr7   O29   S    
Cr2   O12   S    
C106  C114  S    
C111  C119  S    
C90   O2    A    
C98   H18   S    
C44   H52   S    
C65   C73   A    
Cr1   O49   S    
C5    C31   S    
C28   C50   A    
C58   C66   A    
C13   C109  S    
C21   C101  S    
C15   C23   S    
C16   C24   S    
C5    O13   A    
Cr4   O7    S    
C10   H42   S    
C53   C55   A    
C19   C131  S    
Cr6   O27   S    
C94   O46   A    
C33   Br9   S    
C17   C129  S    
C81   O25   A    
C131  C139  S    
C82   C114  S    
C2    O18   A    
C106  H2    S    
C70   H64   S    
Cr4   O16   S    
C25   C51   A    
C26   C52   A    
C143  Br7   S    
C113  C121  S    
C144  Br8   S    
Cr11  O45   S    
C31   C53   A    
Cr9   O42   S    
C107  C115  S    
C98   C122  S    
Cr3   O13   S    
C9    C17   S    
C11   C107  S    
C67   H57   S    
Cr9   O41   S    
C99   C123  S    
C125  C133  S    
Cr9   O49   S    
C63   C71   A    
C118  C142  S    
C107  H3    S    
C108  H4    S    
C131  H35   S    
C118  C126  S    
C22   C102  S    
C140  Br4   S    
C87   O31   A    
C141  Br5   S    
C109  H5    S    
Cr7   O22   S    
Cr2   O3    S    
Cr7   O51   S    
C104  H24   S    
Cr12  O47   S    
C17   C97   S    
Cr8   O52   S    
C137  Br1   S    
C13   H45   S    
C64   C72   A    
C41   H49   S    
C18   C130  S    
C114  C122  S    
C1    O9    A    
C122  H26   S    
C3    C25   S    
C89   O41   A    
C77   H13   S    
C123  H27   S    
C7    O23   A    
C1    C27   S    
C75   H11   S    
C18   C98   S    
C5    O21   A    
C117  C125  S    
C91   O3    A    
C122  C130  S    
Cr8   O31   S    
Cr12  O40   S    
