data_mof_unit_6999.cif
_audit_creation_date              2012-10-26T20:17:12-0400
_audit_creation_method            fapswitch 2.2
_symmetry_space_group_name_H-M    P1
_symmetry_Int_Tables_number       1
_space_group_crystal_system       triclinic
_cell_length_a                    10.592296
_cell_length_b                    10.937236
_cell_length_c                    9.873467
_cell_angle_alpha                 111.76443
_cell_angle_beta                  98.644379
_cell_angle_gamma                 91.503784
_cell_volume                      1046.04630213

loop_
_atom_site_label
_atom_site_type_symbol
_atom_type_description
_atom_site_fract_x
_atom_site_fract_y
_atom_site_fract_z
_atom_type_partial_charge
C1    C     C_R   0.487271 0.252579 0.439436 0.547285
C2    C     C_3   0.122590 0.496265 0.499278 0.032751
C3    C     C_3   0.980832 0.570935 0.638700 -0.115368
C4    C     C_3   0.019151 0.429029 0.360944 -0.113732
C5    C     C_2   0.470815 0.109679 0.403982 -0.023606
C6    C     C_2   0.516468 0.891016 0.596386 -0.022370
C7    C     C_2   0.451898 0.069389 0.513367 -0.164249
C8    C     C_2   0.447538 0.930667 0.496309 -0.167921
C9    C     C_2   0.509806 0.511547 0.081328 0.134195
C10   C     C_2   0.488067 0.490677 0.919170 0.129775
C11   C     C_3   0.877719 0.239328 0.406983 -0.247156
C12   C     C_R   0.511463 0.747612 0.560875 0.554838
C13   C     C_3   0.971015 0.132078 0.367036 -0.309318
C14   C     C_3   0.903061 0.995764 0.329179 -0.453983
C15   C     C_3   0.122347 0.760256 0.590595 -0.248875
C16   C     C_3   0.033498 0.868781 0.649150 -0.311090
C17   C     C_3   0.102905 0.005423 0.692827 -0.448246
C18   C     C_3   0.601221 0.991932 0.734684 -0.263815
C19   C     C_3   0.696296 0.934630 0.824118 -0.294912
C20   C     C_3   0.793999 0.042425 0.938376 -0.471571
C21   C     C_3   0.477353 0.013848 0.248264 -0.250922
C22   C     C_3   0.342655 0.971292 0.155124 -0.303330
C23   C     C_R   0.259317 0.496105 0.499365 0.541182
C24   C     C_3   0.347007 0.870427 0.000431 -0.431949
C25   C     C_R   0.740672 0.503865 0.500574 0.540049
C26   C     C_3   0.051233 0.443037 0.593309 -0.119571
C27   C     C_3   0.948666 0.556908 0.406333 -0.121161
C28   C     C_3   0.946274 0.377382 0.455651 -0.001054
C29   C     C_3   0.053665 0.622552 0.543864 -0.003672
C30   C     C_3   0.877346 0.503671 0.500368 0.032527
Cu1   Cu    Cu3+1 0.522260 0.521810 0.644920 0.925613
Cu2   Cu    Cu3+1 0.477740 0.478190 0.355080 0.936649
H1    H     H_    0.095953 0.395642 0.668267 0.116552
H2    H     H_    0.824619 0.971928 0.232610 0.159380
H3    H     H_    0.972686 0.919778 0.301670 0.144796
H4    H     H_    0.012698 0.132464 0.270347 0.154818
H5    H     H_    0.050462 0.152171 0.461891 0.160103
H6    H     H_    0.831276 0.234804 0.498984 0.150812
H7    H     H_    0.801792 0.222741 0.309579 0.146433
H8    H     H_    0.184118 0.023274 0.785325 0.163169
H9    H     H_    0.140328 0.013698 0.597063 0.154877
H10   H     H_    0.035335 0.082270 0.729264 0.143620
H11   H     H_    0.948398 0.855622 0.562556 0.159585
H12   H     H_    0.904012 0.604586 0.331634 0.119123
H13   H     H_    0.000001 0.862204 0.747852 0.156644
H14   H     H_    0.206646 0.772347 0.677552 0.151751
H15   H     H_    0.157560 0.768048 0.493300 0.145540
H16   H     H_    0.849657 0.091620 0.883058 0.154183
H17   H     H_    0.744752 0.117318 0.018442 0.160872
H18   H     H_    0.861967 0.997693 0.999728 0.139345
H19   H     H_    0.643414 0.888646 0.884614 0.188928
H20   H     H_    0.748861 0.859260 0.748791 0.160351
H21   H     H_    0.658480 0.057377 0.698590 0.155897
H22   H     H_    0.538665 0.054036 0.808784 0.148624
H23   H     H_    0.962170 0.629634 0.751418 0.112996
H24   H     H_    0.401373 0.914752 0.939515 0.160511
H25   H     H_    0.392755 0.782153 0.007139 0.182848
H26   H     H_    0.247680 0.838572 0.938595 0.135835
H27   H     H_    0.281141 0.926855 0.209717 0.155091
H28   H     H_    0.298023 0.059149 0.145121 0.165415
H29   H     H_    0.536326 0.061610 0.194235 0.152819
H30   H     H_    0.526585 0.926188 0.251498 0.153609
H31   H     H_    0.692792 0.676850 0.892001 0.356972
H32   H     H_    0.317160 0.312080 0.105521 0.359784
H33   H     H_    0.037653 0.370013 0.248241 0.116590
H34   H     H_    0.391095 0.858769 0.395694 0.146792
H35   H     H_    0.448289 0.141464 0.623339 0.147668
H36   H     H_    0.411588 0.418483 0.844811 0.142513
H37   H     H_    0.583768 0.586521 0.156386 0.144586
H38   H     H_    0.861871 0.992892 0.425083 0.153044
N1    N     N_2   0.444270 0.445410 0.137360 -0.095206
N2    N     N_2   0.555730 0.554590 0.862640 -0.099985
O1    O     O_R   0.511880 0.332340 0.577400 -0.512034
O2    O     O_3   0.354756 0.351050 0.043123 -0.670007
O3    O     O_R   0.488120 0.667660 0.422600 -0.514921
O4    O     O_R   0.474280 0.295500 0.332650 -0.501302
O5    O     O_R   0.525720 0.704500 0.667350 -0.506187
O6    O     O_R   0.335640 0.518390 0.622350 -0.516215
O7    O     O_R   0.664360 0.481610 0.377650 -0.511384
O8    O     O_R   0.298050 0.481550 0.377590 -0.502753
O9    O     O_R   0.701950 0.518450 0.622410 -0.504221
O10   O     O_3   0.651364 0.642102 0.955327 -0.675252

loop_
_geom_bond_atom_site_label_1
_geom_bond_atom_site_label_2
_ccdc_geom_bond_type
C8    H34   S    
C27   C29   S    
C19   C20   S    
C15   H15   S    
Cu2   O3    S    
C7    C8    S    
C2    C29   S    
C1    C5    S    
C9    H37   S    
C22   H28   S    
C4    H33   S    
Cu1   O1    S    
C15   C16   S    
C18   C19   S    
C3    C29   S    
C17   H10   S    
C20   H18   S    
C18   H21   S    
C3    H23   S    
C19   H20   S    
C24   H25   S    
Cu1   O5    S    
C23   O8    A    
C9    C10   S    
C13   H5    S    
C13   C14   S    
C27   C30   S    
C25   O9    A    
C14   H38   S    
C27   H12   S    
C4    C28   S    
C15   C29   S    
Cu2   N1    S    
C6    C18   S    
H31   O10   S    
C13   H4    S    
C14   H3    S    
C5    C7    D    
C16   C17   S    
C6    C8    D    
C17   H8    S    
C3    C30   S    
C2    C4    S    
C14   H2    S    
C20   H17   S    
Cu2   O8    S    
C26   H1    S    
Cu1   Cu2   S    
C12   O5    A    
C2    C26   S    
C11   H7    S    
C16   H11   S    
C21   H30   S    
C20   H16   S    
Cu1   N2    S    
C22   C24   S    
C22   H27   S    
C4    C27   S    
Cu1   O6    S    
C25   C30   S    
C25   O7    A    
C1    O4    A    
C21   H29   S    
C3    C26   S    
C9    N1    D    
C16   H13   S    
Cu2   O4    S    
N1    O2    S    
C10   H36   S    
C24   H24   S    
C26   C28   S    
Cu1   O9    S    
C1    O1    A    
C28   C30   S    
Cu2   O7    S    
C6    C12   S    
C11   C13   S    
C11   C28   S    
C23   O6    A    
C17   H9    S    
C18   H22   S    
C7    H35   S    
C19   H19   S    
C5    C21   S    
C24   H26   S    
C12   O3    A    
C2    C23   S    
H32   O2    S    
C11   H6    S    
C15   H14   S    
C21   C22   S    
N2    O10   S    
C10   N2    D    
