data_mof_unit_21473.cif
_audit_creation_date              2012-12-11T15:27:38-0500
_audit_creation_method            fapswitch 2.2
_symmetry_space_group_name_H-M    P1
_symmetry_Int_Tables_number       1
_space_group_crystal_system       triclinic
_cell_length_a                    23.215218
_cell_length_b                    7.294392
_cell_length_c                    15.09938
_cell_angle_alpha                 89.9999
_cell_angle_beta                  108.12042
_cell_angle_gamma                 90.000034
_cell_volume                      2430.13090241

loop_
_atom_site_label
_atom_site_type_symbol
_atom_type_description
_atom_site_fract_x
_atom_site_fract_y
_atom_site_fract_z
_atom_type_partial_charge
O1    O     O_R   0.711000 0.648610 0.341170 -0.534347
O2    O     O_R   0.289000 0.351390 0.658830 -0.540777
O3    O     O_R   0.789000 0.148610 0.158830 -0.534347
O4    O     O_R   0.211000 0.851390 0.841170 -0.540774
O5    O     O_R   0.829650 0.322030 0.336650 -0.540075
O6    O     O_R   0.170350 0.677970 0.663350 -0.534651
O7    O     O_R   0.670350 0.822030 0.163350 -0.540075
O8    O     O_R   0.329650 0.177970 0.836650 -0.534648
C1    C     C_R   0.854271 0.485795 0.356867 0.716204
C2    C     C_R   0.145731 0.514166 0.643126 0.715042
C3    C     C_R   0.645729 0.985795 0.143133 0.716204
C4    C     C_R   0.354269 0.014167 0.856874 0.715048
O9    O     O_R   0.713950 0.319280 0.352070 -0.545295
O10   O     O_R   0.286050 0.680720 0.647930 -0.538710
O11   O     O_R   0.786050 0.819280 0.147930 -0.545295
O12   O     O_R   0.213950 0.180720 0.852070 -0.538710
O13   O     O_R   0.672470 0.142870 0.174360 -0.530148
O14   O     O_R   0.327530 0.857130 0.825640 -0.534238
O15   O     O_R   0.827530 0.642870 0.325640 -0.530148
O16   O     O_R   0.172470 0.357130 0.674360 -0.534239
C5    C     C_R   0.701882 0.487520 0.376179 0.678500
C6    C     C_R   0.297826 0.512629 0.623470 0.676273
C7    C     C_R   0.798118 0.987520 0.123821 0.678501
C8    C     C_R   0.202174 0.012629 0.876531 0.676278
O17   O     O_3   0.736530 0.478650 0.191680 -0.384043
O18   O     O_3   0.263470 0.521350 0.808320 -0.383053
O19   O     O_3   0.763470 0.978650 0.308320 -0.384044
O20   O     O_3   0.236530 0.021350 0.691680 -0.383049
V1    V     V_3+5 0.752500 0.206170 0.260820 1.396064
V2    V     V_3+5 0.247500 0.793830 0.739180 1.399941
V3    V     V_3+5 0.747500 0.706170 0.239180 1.396063
V4    V     V_3+5 0.252500 0.293830 0.760820 1.399944
C9    C     C_R   0.827749 0.996627 0.051770 -0.025167
C10   C     C_R   0.173235 0.007478 0.949520 -0.027364
C11   C     C_R   0.672250 0.496625 0.448229 -0.025166
C12   C     C_R   0.326764 0.507482 0.550480 -0.027362
C13   C     C_R   0.822270 0.026800 0.890479 -0.156083
C14   C     C_R   0.178674 0.049005 0.110282 -0.157158
C15   C     C_R   0.677729 0.526797 0.609520 -0.156082
C16   C     C_R   0.321325 0.549061 0.389719 -0.157161
C17   C     C_R   0.793537 0.013180 0.958427 -0.183148
C18   C     C_R   0.207273 0.036784 0.042107 -0.181158
C19   C     C_R   0.706462 0.513175 0.541573 -0.183146
C20   C     C_R   0.292726 0.536841 0.457895 -0.181123
C21   C     C_R   0.890838 0.994514 0.077651 -0.199577
C22   C     C_R   0.110384 0.992819 0.924600 -0.200501
C23   C     C_R   0.609160 0.494514 0.422347 -0.199577
C24   C     C_R   0.389615 0.492790 0.575398 -0.200510
C25   C     C_R   0.921566 0.013761 0.010624 0.077848
C26   C     C_R   0.079596 0.015510 0.991359 0.077889
C27   C     C_R   0.578432 0.513759 0.489373 0.077847
C28   C     C_R   0.420403 0.515506 0.508637 0.077893
C29   C     C_R   0.886157 0.024659 0.914915 0.090539
C30   C     C_R   0.114934 0.037090 0.086557 0.090830
C31   C     C_R   0.613841 0.524656 0.585083 0.090540
C32   C     C_R   0.385064 0.537110 0.413440 0.090824
C33   C     C_R   0.986189 0.022696 0.036199 0.040390
C34   C     C_R   0.014958 0.020193 0.965760 0.040254
C35   C     C_R   0.513809 0.522693 0.463797 0.040393
C36   C     C_R   0.485040 0.520190 0.534236 0.040254
C37   C     C_R   0.978418 0.032708 0.871773 -0.225690
C38   C     C_R   0.022673 0.042985 0.129870 -0.226319
C39   C     C_R   0.521580 0.532713 0.628223 -0.225694
C40   C     C_R   0.477325 0.542979 0.370125 -0.226320
C41   C     C_R   0.915313 0.037752 0.846079 -0.024583
C42   C     C_R   0.085753 0.052965 0.155300 -0.024234
C43   C     C_R   0.584685 0.537753 0.653917 -0.024580
C44   C     C_R   0.414245 0.552969 0.344697 -0.024227
H1    H     H_    0.086960 0.964908 0.852218 0.099807
H2    H     H_    0.914422 0.974423 0.150684 0.098102
H3    H     H_    0.413041 0.464831 0.647778 0.099813
H4    H     H_    0.585577 0.474425 0.349312 0.098100
C45   C     C_1   0.416756 0.006846 0.918817 -0.193662
C46   C     C_1   0.583240 0.992940 0.081190 -0.194349
C47   C     C_1   0.083244 0.506846 0.581182 -0.193652
C48   C     C_1   0.916760 0.492940 0.418810 -0.194346
C49   C     C_1   0.469135 0.002177 0.970006 0.008596
C50   C     C_1   0.530858 0.997397 0.030002 0.008553
C51   C     C_1   0.030865 0.502177 0.529994 0.008602
C52   C     C_1   0.969142 0.497397 0.469998 0.008555
C53   C     C_R   0.881593 0.061920 0.745885 0.096241
C54   C     C_R   0.885902 0.228351 0.701555 -0.125257
C55   C     C_R   0.855709 0.250805 0.606498 -0.135732
C56   C     C_R   0.821123 0.107477 0.555194 -0.082959
C57   C     C_R   0.816929 0.941077 0.598635 -0.117756
C58   C     C_R   0.847229 0.917636 0.693710 -0.147984
H5    H     H_    0.912650 0.340352 0.740653 0.113833
H6    H     H_    0.859162 0.379245 0.572611 0.099459
H7    H     H_    0.797771 0.125107 0.481744 0.147917
H8    H     H_    0.790416 0.830292 0.558391 0.113341
H9    H     H_    0.844071 0.787638 0.726582 0.112187
C59   C     C_R   0.119406 0.086161 0.254886 0.096664
C60   C     C_R   0.112631 0.253981 0.296234 -0.122748
C61   C     C_R   0.143261 0.285490 0.390445 -0.137721
C62   C     C_R   0.180746 0.149858 0.443949 -0.083328
C63   C     C_R   0.187406 0.982028 0.403539 -0.112967
C64   C     C_R   0.156665 0.949517 0.309327 -0.151908
H10   H     H_    0.083749 0.360274 0.255405 0.114116
H11   H     H_    0.137990 0.415140 0.421935 0.100961
H12   H     H_    0.204510 0.174747 0.516724 0.140183
H13   H     H_    0.216278 0.877239 0.445402 0.116407
H14   H     H_    0.161857 0.818564 0.278819 0.112280
C65   C     C_R   0.618404 0.561921 0.754112 0.096243
C66   C     C_R   0.614093 0.728347 0.798444 -0.125257
C67   C     C_R   0.644286 0.750802 0.893501 -0.135729
C68   C     C_R   0.678876 0.607479 0.944804 -0.082962
C69   C     C_R   0.683073 0.441084 0.901361 -0.117756
C70   C     C_R   0.652771 0.417642 0.806287 -0.147985
H15   H     H_    0.587342 0.840345 0.759346 0.113833
H16   H     H_    0.640830 0.879239 0.927389 0.099463
H17   H     H_    0.702227 0.625109 0.018253 0.147915
H18   H     H_    0.709589 0.330302 0.941605 0.113343
H19   H     H_    0.655933 0.287646 0.773414 0.112188
C71   C     C_R   0.380592 0.586131 0.245109 0.096673
C72   C     C_R   0.387383 0.753902 0.203735 -0.122764
C73   C     C_R   0.356750 0.785377 0.109525 -0.137720
C74   C     C_R   0.319246 0.649760 0.056047 -0.083335
C75   C     C_R   0.312570 0.481978 0.096483 -0.113000
C76   C     C_R   0.343314 0.449499 0.190693 -0.151901
H20   H     H_    0.416279 0.860185 0.244543 0.114120
H21   H     H_    0.362032 0.914991 0.078015 0.100981
H22   H     H_    0.295478 0.674622 0.983273 0.140198
H23   H     H_    0.283683 0.377201 0.054641 0.116424
H24   H     H_    0.338109 0.318583 0.221222 0.112295
H25   H     H_    0.256020 0.051356 0.061531 0.099584
H26   H     H_    0.744547 0.015553 0.938142 0.099309
H27   H     H_    0.243980 0.551449 0.438472 0.099563
H28   H     H_    0.755453 0.515547 0.561859 0.099307
H29   H     H_    0.793871 0.040232 0.818880 0.131337
H30   H     H_    0.206970 0.072070 0.181224 0.131262
H31   H     H_    0.706128 0.540228 0.681119 0.131336
H32   H     H_    0.293029 0.572161 0.318780 0.131263
H33   H     H_    0.997795 0.047428 0.815920 0.131416
H34   H     H_    0.003204 0.060325 0.185464 0.131317
H35   H     H_    0.502201 0.547448 0.684073 0.131418
H36   H     H_    0.496793 0.560307 0.314531 0.131311

loop_
_geom_bond_atom_site_label_1
_geom_bond_atom_site_label_2
_ccdc_geom_bond_type
O17   V3    S    
C67   H16   S    
C40   H36   S    
C20   H27   S    
O1    C5    A    
C60   C61   A    
O19   V1    S    
C9    C21   A    
C69   H18   S    
O3    C7    A    
C62   C63   A    
C10   C18   A    
C11   C23   A    
C53   C54   A    
C37   H33   S    
C33   C38   A    
C76   H24   S    
O18   V4    S    
C35   C40   A    
C26   C30   A    
C36   C39   A    
C14   H30   S    
O9    V1    S    
C14   C18   A    
C58   H9    S    
C57   C58   A    
C66   H15   S    
O4    C8    A    
C68   C69   A    
C72   C73   A    
O1    V3    S    
O13   V1    S    
C73   C74   A    
O2    V4    S    
O3    V1    S    
C75   C76   A    
C22   H1    S    
C28   C36   A    
C18   H25   S    
C28   C32   A    
C1    O15   A    
C15   C31   A    
C2    O16   A    
C7    C9    S    
O2    C6    A    
C69   C70   A    
C65   C70   A    
C10   C22   A    
C1    C48   S    
C11   C19   A    
C16   C20   A    
C64   H14   S    
C13   C29   A    
C34   C37   A    
O11   C7    A    
C55   H6    S    
C16   H32   S    
O15   V3    S    
C35   C36   A    
O12   C8    A    
C42   C59   S    
C63   H13   S    
O10   V2    S    
C66   C67   A    
C59   C64   A    
C71   C72   A    
O5    V1    S    
C68   H17   S    
C39   C43   A    
O7    V3    S    
C73   H21   S    
C38   C42   A    
C43   C65   S    
C26   C34   A    
C56   C57   A    
C62   H12   S    
C23   C27   A    
C16   C32   A    
C49   C50   S    
C8    C10   S    
C39   H35   S    
C70   H19   S    
O7    C3    A    
C74   H22   S    
O5    C1    A    
C2    C47   S    
C41   C53   S    
C55   C56   A    
C14   C30   A    
C21   C25   A    
O8    C4    A    
C63   C64   A    
O8    V4    S    
C53   C58   A    
O9    C5    A    
O14   V2    S    
O6    V2    S    
C54   C55   A    
C12   C20   A    
C27   C35   A    
C56   H7    S    
C24   H3    S    
C40   C44   A    
C29   C41   A    
O16   V4    S    
C3    O13   A    
C21   H2    S    
C17   H26   S    
C48   C52   T    
C3    C46   S    
C19   H28   S    
O6    C2    A    
C25   C33   A    
C15   C19   A    
C57   H8    S    
O11   V3    S    
C30   C42   A    
O12   V4    S    
C6    C12   S    
C67   C68   A    
C22   C26   A    
C9    C17   A    
C38   H34   S    
O20   V2    S    
C5    C11   S    
C31   C43   A    
C32   C44   A    
C74   C75   A    
O10   C6    A    
C33   C34   A    
C71   C76   A    
C15   H31   S    
C61   H11   S    
C25   C29   A    
C59   C60   A    
C13   H29   S    
C12   C24   A    
C27   C31   A    
C75   H23   S    
C13   C17   A    
C61   C62   A    
C23   H4    S    
C51   C52   S    
C37   C41   A    
C24   C28   A    
C72   H20   S    
C46   C50   T    
C4    O14   A    
C65   C66   A    
C45   C49   T    
C4    C45   S    
C47   C51   T    
C60   H10   S    
O4    V2    S    
C54   H5    S    
C44   C71   S    
