data_mof_unit_41232.cif
_audit_creation_date              2012-12-10T20:03:14-0500
_audit_creation_method            fapswitch 2.2
_symmetry_space_group_name_H-M    P1
_symmetry_Int_Tables_number       1
_space_group_crystal_system       triclinic
_cell_length_a                    8.57967
_cell_length_b                    19.334795
_cell_length_c                    18.430794
_cell_angle_alpha                 90.031412
_cell_angle_beta                  98.623753
_cell_angle_gamma                 89.941654
_cell_volume                      3022.84565371

loop_
_atom_site_label
_atom_site_type_symbol
_atom_type_description
_atom_site_fract_x
_atom_site_fract_y
_atom_site_fract_z
_atom_type_partial_charge
C1    C     C_R   0.499930 0.365617 0.500012 0.862541
C2    C     C_R   0.373785 0.476000 0.263853 0.002654
C3    C     C_R   0.625327 0.523989 0.812120 -0.310533
C4    C     C_R   0.374674 0.476011 0.187880 -0.310528
C5    C     C_R   0.493167 0.499798 0.841105 0.060776
C6    C     C_R   0.506833 0.500203 0.158895 0.060775
C7    C     C_R   0.361930 0.474716 0.791991 0.031581
C8    C     C_R   0.638069 0.525285 0.208009 0.031581
C9    C     C_R   0.370558 0.475349 0.715711 -0.006969
C10   C     C_R   0.629441 0.524652 0.284289 -0.006968
C11   C     C_R   0.398283 0.544609 0.955849 -0.194097
C12   C     C_R   0.500069 0.634383 0.499987 0.862541
C13   C     C_R   0.601717 0.455393 0.044151 -0.194101
C14   C     C_R   0.400978 0.544203 0.032304 -0.188713
C15   C     C_R   0.599021 0.455799 0.967696 -0.188714
C16   C     C_R   0.200825 0.499991 0.480878 0.982940
C17   C     C_R   0.799175 0.500009 0.519122 0.982940
C18   C     C_R   0.503542 0.499959 0.077385 0.117427
C19   C     C_R   0.496457 0.500043 0.922615 0.117426
C20   C     C_2   0.035886 0.499919 0.470470 -0.389163
C21   C     C_2   0.964114 0.500081 0.529530 -0.389163
C22   C     C_R   0.498524 0.745583 0.433916 -0.194785
C23   C     C_R   0.607144 0.964185 0.551304 -0.186680
C24   C     C_R   0.501464 0.254417 0.566083 -0.194786
C25   C     C_R   0.498469 0.817212 0.433947 -0.180256
C26   C     C_R   0.501512 0.182788 0.566052 -0.180257
C27   C     C_R   0.500212 0.853163 0.499979 0.119500
C28   C     C_R   0.499768 0.146837 0.500020 0.119500
C29   C     C_R   0.501962 0.817288 0.566016 -0.180621
C30   C     C_R   0.498022 0.182712 0.433983 -0.180620
C31   C     C_R   0.501861 0.745659 0.566059 -0.193276
C32   C     C_R   0.498130 0.254340 0.433941 -0.193276
C33   C     C_R   0.500154 0.709488 0.499992 -0.031262
C34   C     C_R   0.392833 0.035815 0.448696 -0.186680
C35   C     C_R   0.499840 0.290511 0.500008 -0.031261
C36   C     C_3   0.218546 0.446676 0.822270 -0.434746
C37   C     C_3   0.084165 0.418776 0.765139 -0.370084
C38   C     C_3   0.948560 0.391470 0.801954 -0.867243
C39   C     C_3   0.781451 0.553327 0.177730 -0.434750
C40   C     C_3   0.915843 0.581217 0.234863 -0.370090
C41   C     C_3   0.051450 0.608521 0.198048 -0.867262
C42   C     C_R   0.607003 0.035816 0.551328 -0.186347
C43   C     C_R   0.392974 0.964183 0.448672 -0.186347
C44   C     C_R   0.499848 0.071739 0.500024 0.107493
C45   C     C_R   0.500129 0.928261 0.499976 0.107493
C46   C     C_R   0.626216 0.524000 0.736147 0.002656
H1    H     H_    0.974020 0.499676 0.414443 0.162893
H2    H     H_    0.502466 0.281376 0.617687 0.155580
H3    H     H_    0.498684 0.844576 0.382680 0.130158
H4    H     H_    0.501295 0.155425 0.617319 0.130158
H5    H     H_    0.501742 0.844712 0.617279 0.130294
H6    H     H_    0.498240 0.155287 0.382721 0.130294
H7    H     H_    0.502855 0.718759 0.617662 0.157203
H8    H     H_    0.497140 0.281241 0.382338 0.157203
H9    H     H_    0.691721 0.936806 0.590617 0.133004
H10   H     H_    0.308257 0.063194 0.409383 0.133004
H11   H     H_    0.691485 0.063195 0.590653 0.133172
H12   H     H_    0.025980 0.500324 0.585557 0.162893
H13   H     H_    0.308492 0.936804 0.409346 0.133172
H14   H     H_    0.728268 0.543236 0.714507 0.133976
H15   H     H_    0.271733 0.456763 0.285493 0.133977
H16   H     H_    0.727275 0.543235 0.848285 0.148022
H17   H     H_    0.272726 0.456765 0.151715 0.148023
H18   H     H_    0.988763 0.347031 0.838171 0.256328
H19   H     H_    0.903204 0.432747 0.835133 0.257903
H20   H     H_    0.851051 0.373934 0.759399 0.255398
H21   H     H_    0.038022 0.460888 0.726739 0.217738
H22   H     H_    0.128302 0.375807 0.733618 0.222050
H23   H     H_    0.274680 0.456007 0.676496 0.127671
H24   H     H_    0.258750 0.404453 0.861633 0.216180
H25   H     H_    0.169163 0.488758 0.852965 0.206154
H26   H     H_    0.096786 0.567248 0.164858 0.257905
H27   H     H_    0.011258 0.652968 0.161842 0.256332
H28   H     H_    0.148969 0.626044 0.240603 0.255404
H29   H     H_    0.871719 0.624184 0.266389 0.222052
H30   H     H_    0.961978 0.539099 0.273256 0.217742
H31   H     H_    0.830825 0.511249 0.147028 0.206160
H32   H     H_    0.741249 0.595556 0.138374 0.216179
H33   H     H_    0.725318 0.543994 0.323504 0.127671
H34   H     H_    0.319842 0.579970 0.922559 0.129394
H35   H     H_    0.680157 0.420031 0.077441 0.129395
H36   H     H_    0.324040 0.578977 0.056476 0.135911
H37   H     H_    0.675960 0.421025 0.943524 0.135911
H38   H     H_    0.497525 0.718624 0.382313 0.155580
N1    N     N_R   0.500020 0.499980 0.689440 -0.104942
N2    N     N_R   0.499980 0.500020 0.310560 -0.104943
O1    O     O_R   0.500010 0.398180 0.560840 -0.625283
O2    O     O_R   0.499990 0.601820 0.439160 -0.625283
O3    O     O_R   0.499930 0.398180 0.439210 -0.622302
O4    O     O_R   0.500070 0.601820 0.560790 -0.622301
O5    O     O_R   0.271780 0.500000 0.546590 -0.625099
O6    O     O_R   0.728220 0.500000 0.453410 -0.625099
O7    O     O_R   0.271710 0.499990 0.424960 -0.635127
O8    O     O_R   0.728290 0.500010 0.575040 -0.635127
Zn1   Zn    Zn3+2 0.500050 0.500000 0.581210 0.933587
Zn2   Zn    Zn3+2 0.499950 0.500000 0.418790 0.933586

loop_
_geom_bond_atom_site_label_1
_geom_bond_atom_site_label_2
_ccdc_geom_bond_type
C1    O1    A    
O2    Zn2   S    
C34   H10   S    
C23   C45   A    
C27   C29   A    
C7    C36   S    
C14   C18   A    
O4    Zn1   S    
C15   C19   A    
C4    H17   S    
C11   C19   A    
C16   O7    A    
C23   C42   A    
C13   C18   A    
C39   H31   S    
C12   O4    A    
C36   C37   S    
C9    H23   S    
C26   H4    S    
C11   C14   A    
C37   H22   S    
C13   H35   S    
O6    Zn2   S    
C9    N1    A    
C41   H28   S    
C38   H20   S    
C22   C25   A    
O1    Zn1   S    
C31   C33   A    
C8    C39   S    
C2    H15   S    
C43   H13   S    
C46   N1    A    
C27   C45   S    
C17   O6    A    
C42   C44   A    
C42   H11   S    
C32   H8    S    
C36   H24   S    
C38   H18   S    
C6    C18   S    
C24   C35   A    
C12   O2    A    
C24   H2    S    
C39   H32   S    
C34   C44   A    
C4    C6    A    
C39   C40   S    
C5    C7    A    
C6    C8    A    
C41   H27   S    
C28   C44   S    
C17   C21   S    
C40   H30   S    
C22   H38   S    
C2    C4    A    
C32   C35   A    
C37   C38   S    
C38   H19   S    
C16   C20   S    
C31   H7    S    
C43   C45   A    
N2    Zn2   S    
C41   H26   S    
C40   C41   S    
O7    Zn2   S    
C13   C15   A    
C14   H36   S    
C1    C35   S    
C29   H5    S    
C3    H16   S    
C7    C9    A    
C22   C33   A    
C30   H6    S    
C10   N2    A    
C1    O3    A    
C46   H14   S    
C34   C43   A    
C24   C26   A    
C3    C5    A    
C15   H37   S    
C10   H33   S    
C36   H25   S    
C23   H9    S    
C5    C19   S    
C25   C27   A    
C3    C46   A    
C26   C28   A    
C40   H29   S    
O3    Zn2   S    
C28   C30   A    
C21   H12   S    
C29   C31   A    
C30   C32   A    
N1    Zn1   S    
C37   H21   S    
C2    N2    A    
O8    Zn1   S    
C25   H3    S    
C20   H1    S    
C11   H34   S    
O5    Zn1   S    
C20   C21   D    
C16   O5    A    
C8    C10   A    
C17   O8    A    
C12   C33   S    
