data_mof_unit_7156.cif
_audit_creation_date              2012-12-10T16:50:08-0500
_audit_creation_method            fapswitch 2.2
_symmetry_space_group_name_H-M    P1
_symmetry_Int_Tables_number       1
_space_group_crystal_system       triclinic
_cell_length_a                    7.817686
_cell_length_b                    8.566332
_cell_length_c                    10.564969
_cell_angle_alpha                 92.043721
_cell_angle_beta                  82.388589
_cell_angle_gamma                 94.000572
_cell_volume                      699.33181711

loop_
_atom_site_label
_atom_site_type_symbol
_atom_type_description
_atom_site_fract_x
_atom_site_fract_y
_atom_site_fract_z
_atom_type_partial_charge
C1    C     C_R   0.545212 0.794712 0.503672 1.027696
C2    C     C_R   0.340098 0.527641 0.956437 0.025292
C3    C     C_R   0.468870 0.450435 0.874856 -0.133035
C4    C     C_R   0.597541 0.375936 0.925874 -0.068462
C5    C     C_R   0.617259 0.408210 0.052447 -0.194191
C6    C     C_R   0.513884 0.515546 0.123905 -0.061182
C7    C     C_2   0.567043 0.958824 0.504770 -0.360121
C8    C     C_2   0.428993 0.044285 0.536550 0.230214
C9    C     C_R   0.491469 0.481164 0.739828 0.855619
C10   C     C_R   0.453668 0.205890 0.510772 0.819398
C11   C     C_R   0.505077 0.509135 0.259403 0.929966
C12   C     C_R   0.168056 0.540489 0.930779 0.489413
C13   C     C_R   0.063459 0.646745 0.003764 -0.314237
C14   C     C_R   0.128397 0.740586 0.100382 0.377177
C15   C     C_R   0.292776 0.715218 0.132974 -0.036028
C16   C     C_R   0.386348 0.590898 0.070924 -0.062721
H1    H     H_    0.932385 0.657910 0.984082 0.181307
H2    H     H_    0.707627 0.344801 0.097075 0.208860
H3    H     H_    0.694621 0.008513 0.466835 0.158290
N1    N     N_2   0.950330 0.457950 0.466250 0.055601
N2    N     N_2   0.049670 0.542050 0.533750 -0.064586
O1    O     O_R   0.389250 0.738570 0.508280 -0.587762
O2    O     O_R   0.678390 0.711630 0.486650 -0.663659
O3    O     O_R   0.355400 0.513470 0.694050 -0.556356
O4    O     O_R   0.644540 0.486530 0.672420 -0.641391
O5    O     O_R   0.321610 0.288370 0.513350 -0.555708
O6    O     O_R   0.610750 0.261430 0.491720 -0.661653
O7    O     O_R   0.355460 0.513470 0.327580 -0.601160
O8    O     O_R   0.644600 0.486530 0.305950 -0.627180
Zn1   Zn    Zn3+2 0.306930 0.517990 0.514440 1.074827
Zn2   Zn    Zn3+2 0.693070 0.482010 0.485560 0.988838
C17   C     C_2   0.696909 0.253095 0.852058 0.458880
H4    H     H_    0.670228 0.217333 0.756730 0.072982
O9    O     O_2   0.806635 0.186995 0.898173 -0.521849
C18   C     C_2   0.988270 0.686497 0.581536 0.701979
H5    H     H_    0.978715 0.779481 0.516293 0.035412
O10   O     O_2   0.956660 0.710792 0.696389 -0.595884
O11   O     O_3   0.098315 0.436134 0.845807 -0.694244
H6    H     H_    0.980403 0.465126 0.836159 0.358961
O12   O     O_3   0.032876 0.855248 0.165214 -0.761923
H7    H     H_    0.920957 0.857014 0.130862 0.382526
C19   C     C_2   0.370819 0.828862 0.221672 0.452905
H8    H     H_    0.289245 0.898171 0.289780 0.125945
O13   O     O_2   0.527645 0.851335 0.215452 -0.618479
O14   O     O_3   0.272084 0.980570 0.596690 -0.735863
H9    H     H_    0.191451 0.064246 0.619962 0.370257
O15   O     O_3   0.023159 0.333491 0.407401 -0.621895
H10   H     H_    0.929083 0.275815 0.367461 0.357225

loop_
_geom_bond_atom_site_label_1
_geom_bond_atom_site_label_2
_ccdc_geom_bond_type
C10   O6    A    
O4    Zn2   S    
C9    O3    A    
O5    Zn1   S    
C3    C9    S    
C6    C16   A    
C2    C16   A    
N2    Zn1   S    
O15   H10   S    
C14   C15   A    
C13   H1    S    
C2    C12   A    
C17   H4    S    
C10   O5    A    
O7    Zn1   S    
C2    C3    A    
C9    O4    A    
C7    C8    D    
O8    Zn2   S    
C1    C7    S    
C13   C14   A    
N1    N2    D    
C4    C17   S    
C19   O13   D    
C11   O7    A    
N2    C18   S    
C15   C16   A    
O12   H7    S    
C18   O10   D    
C1    O2    A    
C7    H3    S    
C12   O11   S    
C5    C6    A    
O3    Zn1   S    
N1    O15   S    
C19   H8    S    
C14   O12   S    
C3    C4    A    
C1    O1    A    
O11   H6    S    
C12   C13   A    
C11   O8    A    
C8    C10   S    
C6    C11   S    
C8    O14   S    
C5    H2    S    
O1    Zn1   S    
O14   H9    S    
O6    Zn2   S    
C18   H5    S    
C15   C19   S    
C17   O9    D    
C4    C5    A    
N1    Zn2   S    
O2    Zn2   S    
