data_mof_unit_48963.cif
_audit_creation_date              2012-12-11T15:55:47-0500
_audit_creation_method            fapswitch 2.2
_symmetry_space_group_name_H-M    P1
_symmetry_Int_Tables_number       1
_space_group_crystal_system       triclinic
_cell_length_a                    6.977873
_cell_length_b                    14.463864
_cell_length_c                    16.195441
_cell_angle_alpha                 90.01463
_cell_angle_beta                  89.866734
_cell_angle_gamma                 89.941591
_cell_volume                      1634.55204724

loop_
_atom_site_label
_atom_site_type_symbol
_atom_type_description
_atom_site_fract_x
_atom_site_fract_y
_atom_site_fract_z
_atom_type_partial_charge
O1    O     O_R   0.505680 0.583900 0.413320 -0.503733
O2    O     O_R   0.176010 0.594950 0.586080 -0.501293
O3    O     O_R   0.005680 0.416100 0.586680 -0.529875
C1    C     C_R   0.344877 0.616964 0.614983 0.849843
O4    O     O_R   0.175960 0.594930 0.413930 -0.557766
O5    O     O_R   0.005640 0.416080 0.413300 -0.543305
C2    C     C_R   0.345478 0.621551 0.388634 0.752497
O6    O     O_R   0.505720 0.583920 0.586700 -0.500551
O7    O     O_3   0.339190 0.441320 0.500000 -0.395899
V1    V     V_3+5 0.064350 0.510890 0.500000 1.595019
O8    O     O_R   0.675920 0.405050 0.413920 -0.562074
C3    C     C_R   0.846184 0.381974 0.385665 0.702483
O9    O     O_R   0.675960 0.405070 0.586070 -0.521690
C4    C     C_R   0.845548 0.380530 0.612899 0.737349
V2    V     V_3+5 0.564340 0.489110 0.500000 1.574736
O10   O     O_3   0.839370 0.558680 0.500000 -0.338153
C5    C     C_R   0.013951 0.309564 0.734606 0.026205
C6    C     C_R   0.858035 0.310765 0.680516 -0.130785
C7    C     C_R   0.710348 0.247498 0.696355 -0.111581
H1    H     H_    0.593763 0.241877 0.653621 0.182780
C8    C     C_R   0.718781 0.186567 0.764181 -0.202449
H2    H     H_    0.606915 0.135342 0.771049 0.131092
C9    C     C_R   0.874126 0.188634 0.819961 -0.133020
C10   C     C_R   0.015180 0.256239 0.807180 -0.039240
C11   C     C_3   0.227256 0.241858 0.803492 0.035756
C12   C     C_3   0.218452 0.283284 0.717111 0.759492
H3    H     H_    0.271407 0.168006 0.804932 0.083511
C13   C     C_R   0.037635 0.200180 0.233225 -0.246527
H4    H     H_    0.167107 0.162102 0.219656 0.184840
C14   C     C_R   0.032000 0.261955 0.300643 0.308931
C15   C     C_R   0.861210 0.313243 0.316658 -0.183817
C16   C     C_R   0.703346 0.300174 0.264230 -0.284317
H5    H     H_    0.573933 0.340131 0.273233 0.163024
C17   C     C_R   0.710227 0.237203 0.198625 0.610739
C18   C     C_R   0.878156 0.186280 0.182515 -0.228910
C19   C     C_R   0.203772 0.748071 0.697751 0.509120
C20   C     C_R   0.214150 0.814379 0.761293 0.207281
C21   C     C_R   0.377542 0.818047 0.813407 -0.236255
C22   C     C_R   0.529185 0.756426 0.798177 -0.309772
H6    H     H_    0.655611 0.757382 0.836847 0.182649
C23   C     C_R   0.519253 0.691459 0.734267 0.612084
C24   C     C_R   0.355780 0.686015 0.683318 -0.345842
C25   C     C_R   0.190686 0.740398 0.293821 0.178329
C26   C     C_R   0.202065 0.785559 0.216792 0.546885
C27   C     C_R   0.378096 0.821739 0.189477 -0.338523
C28   C     C_R   0.538535 0.806042 0.239898 0.167785
C29   C     C_R   0.533082 0.732955 0.297914 0.540787
C30   C     C_R   0.356300 0.696554 0.324484 -0.352381
O11   O     O_R   0.229200 0.915950 0.913350 -0.520407
O12   O     O_R   0.559090 0.905000 0.086080 -0.514761
O13   O     O_R   0.729280 0.083880 0.086680 -0.505958
C31   C     C_R   0.389742 0.884333 0.116042 0.804933
O14   O     O_R   0.558920 0.904980 0.913920 -0.558208
O15   O     O_R   0.729110 0.083860 0.913300 -0.546434
C32   C     C_R   0.389932 0.884386 0.883942 0.748405
O16   O     O_R   0.229360 0.915970 0.086730 -0.510695
O17   O     O_3   0.395680 0.058580 0.000030 -0.366335
V3    V     V_3+5 0.670570 0.989070 0.999990 1.555038
O18   O     O_R   0.058820 0.094950 0.913870 -0.543202
C33   C     C_R   0.889299 0.118297 0.886414 0.705328
O19   O     O_R   0.058990 0.094970 0.086020 -0.543563
C34   C     C_R   0.889412 0.117914 0.113971 0.767363
V4    V     V_3+5 0.170560 0.010930 0.999930 1.551319
O20   O     O_3   0.895590 0.941310 0.999960 -0.351469
F1    F     F_    0.553334 0.228100 0.149887 -0.689515
F2    F     F_    0.047354 0.747464 0.647882 -0.656507
N1    N     N_2   0.061494 0.878985 0.770489 -0.472467
H7    H     H_    0.927697 0.851711 0.758890 0.294202
C35   C     C_3   0.092431 0.965166 0.727260 -0.519074
H8    H     H_    0.968862 0.011943 0.738065 0.171125
H9    H     H_    0.105556 0.952655 0.659753 0.206242
H10   H     H_    0.224303 0.999634 0.750075 0.173580
F3    F     F_    0.668956 0.632522 0.723862 -0.635811
N2    N     N_2   0.045883 0.769790 0.350097 -0.438943
H11   H     H_    0.002509 0.723317 0.394002 0.337694
C36   C     C_3   0.081776 0.859446 0.386991 -0.578685
H12   H     H_    0.956892 0.880052 0.425480 0.221155
H13   H     H_    0.102530 0.912978 0.338565 0.193967
H14   H     H_    0.211167 0.856406 0.426823 0.190836
F4    F     F_    0.039975 0.801529 0.173303 -0.659221
N3    N     N_2   0.692783 0.870204 0.239887 -0.415167
H15   H     H_    0.812760 0.844988 0.267363 0.367696
C37   C     C_3   0.645870 0.960118 0.274053 -0.553810
H16   H     H_    0.601509 0.953157 0.339741 0.179420
H17   H     H_    0.529048 0.993899 0.238764 0.190392
H18   H     H_    0.773909 0.005538 0.271040 0.186813
F5    F     F_    0.696581 0.703812 0.333610 -0.675999
N4    N     N_2   0.334605 0.297006 0.863299 -0.479018
H19   H     H_    0.480099 0.297803 0.852559 0.292450
C38   C     C_3   0.259831 0.385189 0.891673 -0.390790
H20   H     H_    0.359567 0.415322 0.937710 0.187101
H21   H     H_    0.118872 0.375728 0.922443 0.189276
H22   H     H_    0.245738 0.434375 0.839447 0.222873
N5    N     N_2   0.235893 0.209501 0.655900 -0.601714
H23   H     H_    0.149651 0.152667 0.666059 0.218714
C39   C     C_3   0.249980 0.233155 0.569771 -0.470767
H24   H     H_    0.296453 0.170636 0.535621 0.169213
H25   H     H_    0.358838 0.287429 0.559930 0.244806
H26   H     H_    0.108783 0.254618 0.545240 0.186032
F6    F     F_    0.338469 0.358074 0.703437 -0.682651
N6    N     N_2   0.198737 0.275384 0.350237 -0.494531
H27   H     H_    0.269970 0.336065 0.337312 0.266155
C40   C     C_3   0.325094 0.197384 0.364337 -0.595771
H28   H     H_    0.242229 0.137107 0.387403 0.197326
H29   H     H_    0.403238 0.178157 0.307266 0.215383
H30   H     H_    0.434824 0.216741 0.410651 0.191178

loop_
_geom_bond_atom_site_label_1
_geom_bond_atom_site_label_2
_ccdc_geom_bond_type
C12   N5    S    
N6    H27   S    
O11   V4    S    
C23   C24   A    
C4    C6    S    
C19   C24   A    
C7    H1    S    
C36   H14   S    
C1    O6    A    
N3    H15   S    
C38   H20   S    
C22   C23   A    
O15   C33   A    
C27   C28   A    
N2    C36   S    
C5    C12   S    
C19   C20   A    
C7    C8    A    
C36   H13   S    
C6    C7    A    
O5    C3    A    
C14   C15   A    
C19   F2    S    
V2    O10   S    
C39   H26   S    
C35   H9    S    
C17   C18   A    
O19   V4    S    
O8    V2    S    
C21   C32   S    
C37   H16   S    
C13   C18   A    
C39   H25   S    
O12   C31   A    
C9    C10   A    
O1    V2    S    
C40   H30   S    
C25   C30   A    
O19   C34   A    
C25   N2    S    
O18   C33   A    
N6    C40   S    
O9    C4    A    
N5    H23   S    
O13   C34   A    
C17   F1    S    
N3    C37   S    
O17   V4    S    
O14   C32   A    
V3    O20   S    
C9    C33   S    
C5    C10   A    
N2    H11   S    
N1    H7    S    
O12   V3    S    
C26   F4    S    
C10   C11   S    
C22   H6    S    
O4    C2    A    
C27   C31   S    
C11   C12   S    
O11   C32   A    
C11   N4    S    
N1    C35   S    
C16   C17   A    
C35   H10   S    
O2    C1    A    
C25   C26   A    
C20   C21   A    
C28   N3    S    
C38   H21   S    
C29   C30   A    
O14   V3    S    
C39   H24   S    
C5    C6    A    
O16   V4    S    
C40   H29   S    
O13   V3    S    
C36   H12   S    
N5    C39   S    
O3    C4    A    
C37   H17   S    
N4    C38   S    
O6    V2    S    
C8    C9    A    
C3    C15   S    
O2    V1    S    
C26   C27   A    
C38   H22   S    
O15   V3    S    
C28   C29   A    
C13   H4    S    
O1    C2    A    
C15   C16   A    
O5    V1    S    
O8    C3    A    
C11   H3    S    
O18   V4    S    
C2    C30   S    
O9    V2    S    
O7    V2    S    
O4    V1    S    
O3    V1    S    
V1    O10   S    
C16   H5    S    
O17   V3    S    
C21   C22   A    
C1    C24   S    
C20   N1    S    
C14   N6    S    
C13   C14   A    
O7    V1    S    
C18   C34   S    
C35   H8    S    
C23   F3    S    
V4    O20   S    
C37   H18   S    
N4    H19   S    
C40   H28   S    
C8    H2    S    
C31   O16   A    
C12   F6    S    
C29   F5    S    
