data_mof_unit_57812.cif
_audit_creation_date              2012-12-10T19:44:55-0500
_audit_creation_method            fapswitch 2.2
_symmetry_space_group_name_H-M    P1
_symmetry_Int_Tables_number       1
_space_group_crystal_system       triclinic
_cell_length_a                    15.005792
_cell_length_b                    10.863615
_cell_length_c                    13.717165
_cell_angle_alpha                 89.099134
_cell_angle_beta                  89.840843
_cell_angle_gamma                 88.530547
_cell_volume                      2235.11511323

loop_
_atom_site_label
_atom_site_type_symbol
_atom_type_description
_atom_site_fract_x
_atom_site_fract_y
_atom_site_fract_z
_atom_type_partial_charge
C1    C     C_R   0.494970 0.262409 0.501122 0.848904
C2    C     C_R   0.502048 0.737825 0.499200 0.831915
C3    C     C_R   0.050400 0.311629 0.599088 -0.326917
C4    C     C_R   0.948894 0.691402 0.405979 -0.305963
C5    C     C_R   0.285780 0.259471 0.281200 -0.151938
C6    C     C_R   0.724316 0.760497 0.701740 -0.177379
C7    C     C_R   0.329029 0.194655 0.356786 -0.168345
C8    C     C_R   0.672114 0.824555 0.632667 -0.162527
C9    C     C_R   0.411087 0.133533 0.339813 0.159832
C10   C     C_R   0.586763 0.870232 0.657465 0.197241
C11   C     C_R   0.449191 0.137696 0.246360 -0.059376
C12   C     C_R   0.553879 0.848753 0.752057 -0.103739
C13   C     C_R   0.405827 0.202203 0.170204 0.175821
C14   C     C_R   0.607231 0.787261 0.822503 0.186821
C15   C     C_R   0.323809 0.263333 0.188156 -0.160728
C16   C     C_R   0.692287 0.742610 0.796469 -0.102279
C17   C     C_R   0.464488 0.938531 0.418412 0.395176
C18   C     C_R   0.515037 0.060732 0.587812 0.391183
C19   C     C_R   0.501760 0.872045 0.498275 -0.263785
C20   C     C_R   0.487324 0.128496 0.503955 -0.278629
C21   C     C_R   0.531080 0.934131 0.581455 -0.146894
C22   C     C_R   0.457495 0.066721 0.420983 -0.141920
C23   C     C_R   0.328705 0.500494 0.500124 0.772527
C24   C     C_R   0.671146 0.499493 0.499967 0.806859
C25   C     C_R   0.573299 0.456061 0.793549 0.044638
C26   C     C_R   0.426458 0.542839 0.206205 0.060743
C27   C     C_R   0.426702 0.542785 0.793314 0.009998
C28   C     C_R   0.572896 0.455509 0.206745 0.031540
C29   C     C_R   0.424613 0.541543 0.896051 -0.016251
C30   C     C_R   0.574762 0.455227 0.103900 0.000557
C31   C     C_R   0.500009 0.498316 0.948219 0.065464
C32   C     C_R   0.499649 0.499129 0.051688 0.054963
C33   C     C_R   0.575657 0.454563 0.896811 -0.010670
C34   C     C_R   0.423727 0.542035 0.103041 -0.000288
C35   C     C_R   0.348550 0.581719 0.947314 -0.271579
C36   C     C_R   0.649751 0.410878 0.052661 -0.217209
C37   C     C_R   0.347130 0.581014 0.050035 0.124679
C38   C     C_R   0.650970 0.409864 0.949676 0.152568
C39   C     C_R   0.811575 0.592828 0.450544 -0.225293
C40   C     C_R   0.188030 0.407955 0.551287 -0.225465
C41   C     C_R   0.767406 0.499363 0.500197 -0.075606
C42   C     C_R   0.232163 0.500764 0.500579 -0.060151
C43   C     C_R   0.814776 0.406534 0.551011 -0.215120
C44   C     C_R   0.184292 0.594534 0.451352 -0.241668
C45   C     C_R   0.908014 0.404749 0.550991 0.029652
C46   C     C_R   0.091228 0.597622 0.453118 0.022188
C47   C     C_R   0.952949 0.500499 0.501835 -0.010810
C48   C     C_R   0.046415 0.501389 0.501781 -0.005965
C49   C     C_R   0.904315 0.595196 0.452259 0.064076
C50   C     C_R   0.095125 0.406489 0.551025 0.077909
C51   C     C_R   0.957052 0.308633 0.597779 0.436974
C52   C     C_R   0.041916 0.695197 0.408247 0.434536
Cu1   Cu    Cu3+1 0.500010 0.499980 0.597420 0.947402
Cu2   Cu    Cu3+1 0.499990 0.500020 0.402580 0.957341
H1    H     H_    0.773458 0.664856 0.412503 0.135161
H2    H     H_    0.226247 0.335817 0.589081 0.119091
H3    H     H_    0.629912 0.421366 0.752653 0.168600
H4    H     H_    0.369434 0.576985 0.246694 0.164208
H5    H     H_    0.369475 0.577961 0.752953 0.131395
H6    H     H_    0.629868 0.419733 0.247239 0.130366
H7    H     H_    0.289561 0.612875 0.907700 0.140855
H8    H     H_    0.707457 0.376458 0.092941 0.129054
H9    H     H_    0.778510 0.334889 0.588664 0.182019
H10   H     H_    0.219558 0.665961 0.413256 0.150851
H11   H     H_    0.087849 0.239460 0.637542 0.147301
H12   H     H_    0.911625 0.765248 0.369285 0.162370
H13   H     H_    0.289512 0.314147 0.130357 0.133502
H14   H     H_    0.733412 0.693347 0.849645 0.148660
H15   H     H_    0.222778 0.306952 0.294838 0.152690
H16   H     H_    0.789801 0.724923 0.681826 0.150611
H17   H     H_    0.298881 0.192336 0.428620 0.107412
H18   H     H_    0.697883 0.837825 0.559504 0.117581
H19   H     H_    0.512779 0.091468 0.232927 0.142080
H20   H     H_    0.486569 0.877213 0.770513 0.106027
N1    N     N_R   0.499960 0.499900 0.743810 -0.190770
N2    N     N_R   0.500040 0.500100 0.256190 -0.192083
O1    O     O_R   0.500000 0.319630 0.582270 -0.552267
O2    O     O_R   0.500000 0.680370 0.417730 -0.542530
O3    O     O_R   0.499990 0.319660 0.417730 -0.574316
O4    O     O_R   0.500010 0.680340 0.582270 -0.581581
O5    O     O_R   0.370260 0.499960 0.582280 -0.602022
O6    O     O_R   0.629740 0.500040 0.417720 -0.594081
O7    O     O_R   0.370250 0.499990 0.417740 -0.593973
O8    O     O_R   0.629750 0.500010 0.582260 -0.582309
O9    O     O_3   0.439433 0.879714 0.334413 -0.563727
C53   C     C_3   0.348394 0.850378 0.340106 0.078431
H21   H     H_    0.308260 0.909370 0.390729 0.114818
H22   H     H_    0.343756 0.753462 0.364979 0.159207
C54   C     C_3   0.307630 0.862793 0.239039 -0.793564
H23   H     H_    0.349903 0.812380 0.185633 0.260798
H24   H     H_    0.239790 0.824347 0.239602 0.245660
H25   H     H_    0.302771 0.961240 0.216384 0.239550
O10   O     O_3   0.528634 0.117339 0.676087 -0.555898
C55   C     C_3   0.445421 0.127283 0.725146 0.097606
H26   H     H_    0.404524 0.043603 0.717892 0.097940
H27   H     H_    0.405217 0.206880 0.696127 0.161219
C56   C     C_3   0.460987 0.146822 0.833064 -0.808763
H28   H     H_    0.497399 0.232802 0.843923 0.258522
H29   H     H_    0.395763 0.153870 0.871182 0.188876
H30   H     H_    0.500558 0.068516 0.864970 0.241399
N3    N     N_3   0.266859 0.616957 0.099925 -0.624464
H31   H     H_    0.247299 0.704802 0.074644 0.224207
H32   H     H_    0.217192 0.556384 0.080282 0.223457
N4    N     N_3   0.728438 0.363669 0.898813 -0.597884
H33   H     H_    0.711704 0.280059 0.867808 0.228501
H34   H     H_    0.780356 0.343776 0.947707 0.223159
O11   O     O_3   0.913266 0.214733 0.645751 -0.575656
C57   C     C_3   0.925132 0.105110 0.592652 0.044135
H35   H     H_    0.994541 0.068009 0.600981 0.137440
H36   H     H_    0.910195 0.120129 0.513607 0.138773
C58   C     C_3   0.861786 0.009236 0.632066 -0.777165
H37   H     H_    0.791756 0.043708 0.624465 0.257933
H38   H     H_    0.870395 0.922783 0.590498 0.187075
H39   H     H_    0.875942 0.989311 0.710256 0.254455
O12   O     O_3   0.083719 0.793999 0.364695 -0.582229
C59   C     C_3   0.088275 0.889639 0.433225 0.040995
H40   H     H_    0.144281 0.870006 0.484608 0.133875
H41   H     H_    0.025312 0.901694 0.475932 0.131310
C60   C     C_3   0.104575 0.011191 0.380246 -0.818015
H42   H     H_    0.047970 0.034332 0.330714 0.251514
H43   H     H_    0.110585 0.085922 0.434022 0.192837
H44   H     H_    0.166876 0.005088 0.336815 0.257367
N5    N     N_3   0.446433 0.205567 0.075580 -0.603771
H45   H     H_    0.407378 0.259696 0.027703 0.215760
H46   H     H_    0.447066 0.115855 0.049106 0.213923
N6    N     N_3   0.575683 0.768024 0.920230 -0.595261
H47   H     H_    0.615552 0.818743 0.966401 0.216148
H48   H     H_    0.510590 0.803422 0.927599 0.210591

loop_
_geom_bond_atom_site_label_1
_geom_bond_atom_site_label_2
_ccdc_geom_bond_type
C37   N3    S    
O10   C55   S    
C12   H20   S    
C27   C29   A    
C34   C37   A    
C1    O1    A    
C57   H35   S    
C58   H37   S    
N4    H34   S    
C56   H28   S    
C43   H9    S    
N5    H45   S    
C39   C41   A    
Cu1   N1    S    
Cu1   Cu2   S    
C44   H10   S    
N3    H31   S    
C23   C42   S    
C23   O7    A    
C4    C52   A    
Cu1   O8    S    
C17   O9    S    
C35   C37   A    
C7    H17   S    
C13   N5    S    
C53   H22   S    
C9    C22   S    
N5    H46   S    
C45   C51   A    
O12   C59   S    
C18   C21   A    
C46   C52   A    
C59   H40   S    
Cu1   O5    S    
C45   C47   A    
C24   O6    A    
N4    H33   S    
C38   N4    S    
C17   C19   A    
C26   C34   A    
C39   H1    S    
C47   C48   A    
C59   H41   S    
C40   H2    S    
C26   N2    A    
O11   C57   S    
C31   C33   A    
C16   H14   S    
C54   H24   S    
C48   C50   A    
N3    H32   S    
C24   C41   S    
C41   C43   A    
C3    H11   S    
C42   C44   A    
C36   H8    S    
Cu2   O7    S    
C56   H29   S    
C3    C50   A    
C44   C46   A    
C60   H43   S    
C10   C21   S    
C46   C48   A    
C8    H18   S    
C25   H3    S    
Cu1   O4    S    
C58   H38   S    
C11   H19   S    
C5    C7    A    
C3    C51   A    
C53   H21   S    
C6    C8    A    
C55   C56   S    
O9    C53   S    
C5    H15   S    
C25   N1    A    
C32   C34   A    
Cu1   O1    S    
C2    O2    A    
C26   H4    S    
C31   C32   A    
C29   C31   A    
C15   H13   S    
C35   H7    S    
C54   H25   S    
C55   H27   S    
C9    C11   A    
C28   H6    S    
C10   C12   A    
Cu2   N2    S    
C51   O11   S    
C39   C49   A    
C12   C14   A    
C13   C15   A    
C1    O3    A    
C14   C16   A    
C36   C38   A    
C28   N2    A    
Cu2   O6    S    
C56   H30   S    
Cu2   O3    S    
C52   O12   S    
C6    H16   S    
C1    C20   S    
N6    H48   S    
C23   O5    A    
C19   C21   A    
C2    C19   S    
C33   C38   A    
C20   C22   A    
C27   N1    A    
C53   C54   S    
C60   H42   S    
C57   C58   S    
C47   C49   A    
C29   C35   A    
C17   C22   A    
C14   N6    S    
C59   C60   S    
C30   C36   A    
C4    C49   A    
C28   C30   A    
C24   O8    A    
C43   C45   A    
C27   H5    S    
C30   C32   A    
C11   C13   A    
N6    H47   S    
C40   C50   A    
C40   C42   A    
C60   H44   S    
C57   H36   S    
C58   H39   S    
C18   C20   A    
C55   H26   S    
C5    C15   A    
C2    O4    A    
C6    C16   A    
C7    C9    A    
C4    H12   S    
C8    C10   A    
C18   O10   S    
C54   H23   S    
C25   C33   A    
Cu2   O2    S    
