data_mof_unit_24828.cif
_audit_creation_date              2012-12-10T16:44:14-0500
_audit_creation_method            fapswitch 2.2
_symmetry_space_group_name_H-M    P1
_symmetry_Int_Tables_number       1
_space_group_crystal_system       triclinic
_cell_length_a                    7.486811
_cell_length_b                    8.668692
_cell_length_c                    13.441112
_cell_angle_alpha                 93.817551
_cell_angle_beta                  79.357693
_cell_angle_gamma                 102.997162
_cell_volume                      835.085181997

loop_
_atom_site_label
_atom_site_type_symbol
_atom_type_description
_atom_site_fract_x
_atom_site_fract_y
_atom_site_fract_z
_atom_type_partial_charge
C1    C     C_R   0.545383 0.800026 0.502672 0.878866
C2    C     C_R   0.443580 0.496074 0.968250 0.026189
C3    C     C_R   0.461869 0.442688 0.866230 0.045594
C4    C     C_R   0.556768 0.455819 0.030297 0.013578
C5    C     C_R   0.722211 0.410291 0.986587 0.091643
C6    C     C_R   0.738871 0.350023 0.887032 -0.276314
C7    C     C_R   0.596424 0.348363 0.831153 0.247760
C8    C     C_R   0.505856 0.451109 0.135148 -0.082772
C9    C     C_R   0.831177 0.483202 0.145911 -0.035724
C10   C     C_R   0.352818 0.493055 0.803173 -0.086352
C11   C     C_2   0.571174 0.968015 0.503422 -0.363678
C12   C     C_R   0.401797 0.485464 0.693069 0.824798
C13   C     C_2   0.430751 0.031993 0.492950 -0.365393
C14   C     C_R   0.455486 0.200003 0.495679 0.887919
C15   C     C_R   0.597203 0.502106 0.306056 0.796559
C16   C     C_R   0.861354 0.422798 0.045758 -0.211802
C17   C     C_R   0.646975 0.482484 0.194752 -0.153816
C18   C     C_R   0.229302 0.590818 0.843272 -0.222681
C19   C     C_R   0.224030 0.651006 0.941700 -0.162005
C20   C     C_R   0.330542 0.604477 0.003657 -0.174382
Cu1   Cu    Cu3+1 0.321300 0.483160 0.488710 0.970548
Cu2   Cu    Cu3+1 0.678700 0.516840 0.511290 0.968653
H1    H     H_    0.295316 0.960668 0.483312 0.182942
H2    H     H_    0.012107 0.619154 0.578923 0.219176
H3    H     H_    0.987783 0.380634 0.421216 0.240323
H4    H     H_    0.854034 0.294740 0.855791 0.148247
H5    H     H_    0.992924 0.393147 0.013223 0.169729
H6    H     H_    0.149834 0.633414 0.795466 0.152365
H7    H     H_    0.332973 0.660335 0.077675 0.166536
H8    H     H_    0.138209 0.735117 0.969904 0.156447
H9    H     H_    0.706483 0.039374 0.513280 0.179418
N1    N     N_2   0.947230 0.542220 0.528320 -0.218061
N2    N     N_2   0.052770 0.457780 0.471680 -0.203317
O1    O     O_R   0.383920 0.714220 0.492660 -0.578541
O2    O     O_R   0.685730 0.742660 0.511730 -0.585371
O3    O     O_R   0.275440 0.478800 0.636790 -0.606429
O4    O     O_R   0.577250 0.507240 0.655860 -0.563801
O5    O     O_R   0.314270 0.257340 0.488270 -0.589686
O6    O     O_R   0.616080 0.285780 0.507340 -0.578007
O7    O     O_R   0.422750 0.492760 0.344140 -0.558634
O8    O     O_R   0.724560 0.521200 0.363210 -0.575786
C21   C     C_1   0.985724 0.550407 0.196579 0.273756
N3    N     N_1   0.105095 0.608084 0.239890 -0.274617
C22   C     C_1   0.322181 0.358319 0.173673 0.299863
N4    N     N_1   0.177439 0.280450 0.203937 -0.300791
N5    N     N_2   0.582900 0.244550 0.744891 -0.400610
H10   H     H_    0.705411 0.213106 0.710939 0.256106
C23   C     C_3   0.422829 0.112531 0.756510 -0.693453
H11   H     H_    0.468234 0.999229 0.736086 0.218825
H12   H     H_    0.327146 0.127048 0.705684 0.223019
H13   H     H_    0.344349 0.104227 0.835524 0.223164

loop_
_geom_bond_atom_site_label_1
_geom_bond_atom_site_label_2
_ccdc_geom_bond_type
C2    C4    A    
H2    N1    S    
C18   H6    S    
C6    C7    A    
Cu2   O4    S    
C14   O5    A    
C8    C17   A    
C1    C11   S    
C4    C8    A    
N1    N2    D    
C16   H5    S    
C23   H12   S    
C2    C3    A    
C11   H9    S    
C3    C10   A    
C13   C14   S    
Cu2   O2    S    
C11   C13   D    
C15   O8    A    
C9    C21   S    
C6    H4    S    
Cu1   O7    S    
Cu2   N1    S    
C10   C18   A    
Cu2   O6    S    
C10   C12   S    
C9    C17   A    
C23   H11   S    
C9    C16   A    
C1    O1    A    
C3    C7    A    
C20   H7    S    
C5    C6    A    
N5    C23   S    
C15   O7    A    
Cu2   O8    S    
C12   O3    A    
C21   N3    T    
C2    C20   A    
C7    N5    S    
C8    C22   S    
Cu1   N2    S    
C22   N4    T    
C1    O2    A    
C15   C17   S    
C18   C19   A    
C12   O4    A    
Cu1   O3    S    
N5    H10   S    
C5    C16   A    
Cu1   O1    S    
C14   O6    A    
Cu1   Cu2   S    
C19   H8    S    
C23   H13   S    
Cu1   O5    S    
C19   C20   A    
H3    N2    S    
C4    C5    A    
C13   H1    S    
