data_mof_unit_40752.cif
_audit_creation_date              2012-12-11T17:05:37-0500
_audit_creation_method            fapswitch 2.2
_symmetry_space_group_name_H-M    P1
_symmetry_Int_Tables_number       1
_space_group_crystal_system       triclinic
_cell_length_a                    6.978426
_cell_length_b                    14.597012
_cell_length_c                    15.960941
_cell_angle_alpha                 90.117892
_cell_angle_beta                  89.801513
_cell_angle_gamma                 89.985956
_cell_volume                      1625.83472714

loop_
_atom_site_label
_atom_site_type_symbol
_atom_type_description
_atom_site_fract_x
_atom_site_fract_y
_atom_site_fract_z
_atom_type_partial_charge
O1    O     O_R   0.494380 0.415640 0.412830 -0.523543
O2    O     O_R   0.823960 0.405540 0.586560 -0.550130
O3    O     O_R   0.994270 0.584360 0.587170 -0.540552
C1    C     C_R   0.654458 0.381538 0.613475 0.800215
O4    O     O_R   0.824090 0.404620 0.413450 -0.561485
O5    O     O_R   0.994400 0.583430 0.412820 -0.548944
C2    C     C_R   0.654991 0.380985 0.385805 0.705440
O6    O     O_R   0.494250 0.416570 0.587180 -0.502352
O7    O     O_3   0.660800 0.558670 0.500000 -0.384728
V1    V     V_3+5 0.935650 0.489120 0.500000 1.438102
O8    O     O_R   0.324110 0.594460 0.413440 -0.552131
C3    C     C_R   0.155288 0.616330 0.384630 0.671772
O9    O     O_R   0.323980 0.595380 0.586550 -0.532273
C4    C     C_R   0.154934 0.615668 0.616887 0.776651
V2    V     V_3+5 0.435660 0.510880 0.500000 1.505277
O10   O     O_3   0.160640 0.441330 0.500000 -0.360079
C5    C     C_3   0.962476 0.668672 0.745036 -0.279405
H1    H     H_    0.832125 0.679546 0.706274 0.149820
H2    H     H_    0.954223 0.596591 0.766280 0.222472
C6    C     C_3   0.956958 0.737198 0.820362 -0.045827
H3    H     H_    0.820321 0.776254 0.814526 0.136809
H4    H     H_    0.006871 0.786635 0.609426 0.148772
H5    H     H_    0.958803 0.883661 0.719440 0.125693
C7    C     C_3   0.130764 0.781882 0.652972 -0.443686
C8    C     C_3   0.326559 0.679131 0.746633 0.373057
C9    C     C_3   0.144105 0.683713 0.689486 -0.079585
H6    H     H_    0.453272 0.694827 0.706619 0.054774
C10   C     C_3   0.124460 0.808604 0.812112 -0.027519
C11   C     C_3   0.106800 0.855334 0.723629 -0.004154
C12   C     C_3   0.317928 0.754978 0.815401 -0.389127
H7    H     H_    0.339409 0.727004 0.879085 0.187396
H8    H     H_    0.439946 0.802797 0.805882 0.112551
H9    H     H_    0.261550 0.795020 0.614719 0.153863
C13   C     C_R   0.266459 0.746067 0.183845 0.064400
C14   C     C_R   0.117325 0.810118 0.178935 -0.102857
C15   C     C_R   0.968958 0.802795 0.238788 -0.157889
H10   H     H_    0.848263 0.849216 0.236753 0.133665
C16   C     C_R   0.981562 0.739807 0.305545 -0.183414
H11   H     H_    0.869290 0.739058 0.352466 0.130571
C17   C     C_R   0.142512 0.682115 0.314246 -0.135035
C18   C     C_R   0.278335 0.683659 0.249490 0.117564
C19   C     C_3   0.492273 0.689734 0.251380 -0.044863
C20   C     C_3   0.478529 0.757753 0.178848 -0.399364
H12   H     H_    0.543949 0.722585 0.309992 0.116764
H13   H     H_    0.538288 0.732888 0.118348 0.176535
H14   H     H_    0.523213 0.828290 0.196278 0.159664
C21   C     C_R   0.481614 0.305574 0.732563 0.216623
C22   C     C_R   0.643873 0.312443 0.681165 -0.133993
C23   C     C_R   0.798086 0.253243 0.697686 -0.176331
H15   H     H_    0.921683 0.253194 0.656878 0.140092
C24   C     C_R   0.788577 0.189305 0.763434 -0.178003
H16   H     H_    0.906008 0.141932 0.771823 0.135766
C25   C     C_R   0.623971 0.182544 0.814358 -0.119736
C26   C     C_R   0.473013 0.243080 0.798656 0.117740
C27   C     C_3   0.270688 0.218682 0.780338 -0.451287
C28   C     C_3   0.281934 0.283024 0.706524 -0.379117
H17   H     H_    0.172061 0.242794 0.830590 0.199793
H18   H     H_    0.253146 0.145928 0.761737 0.171606
H19   H     H_    0.181368 0.341260 0.711961 0.231058
H20   H     H_    0.277267 0.246678 0.645323 0.187290
C29   C     C_R   0.478504 0.301824 0.269183 -0.013139
C30   C     C_R   0.644839 0.313048 0.316381 -0.053511
C31   C     C_R   0.800160 0.256638 0.295725 -0.109624
H21   H     H_    0.922391 0.257000 0.335880 0.167094
C32   C     C_R   0.790367 0.193527 0.228871 -0.127876
H22   H     H_    0.908518 0.146955 0.218838 0.144101
C33   C     C_R   0.624025 0.185724 0.179504 -0.072966
C34   C     C_R   0.470666 0.243920 0.199152 0.026202
C35   C     C_3   0.270681 0.215916 0.218130 -0.441984
C36   C     C_3   0.285871 0.270893 0.298648 0.328773
H23   H     H_    0.255794 0.140623 0.226543 0.215027
H24   H     H_    0.169320 0.246214 0.172320 0.131767
H25   H     H_    0.185512 0.329666 0.303442 0.015083
O11   O     O_R   0.771490 0.080820 0.910070 -0.540361
O12   O     O_R   0.441590 0.092730 0.083780 -0.535975
O13   O     O_R   0.271350 0.913900 0.084390 -0.535850
C37   C     C_R   0.610609 0.115157 0.112452 0.708740
O14   O     O_R   0.441780 0.091820 0.910670 -0.540429
O15   O     O_R   0.271540 0.912980 0.910040 -0.543652
C38   C     C_R   0.610954 0.113092 0.881508 0.701334
O16   O     O_R   0.771300 0.081740 0.084420 -0.542340
O17   O     O_3   0.604960 0.938700 0.997240 -0.376287
V3    V     V_3+5 0.330090 0.008230 0.997220 1.401736
O18   O     O_R   0.941820 0.901930 0.910640 -0.544873
C39   C     C_R   0.111371 0.879741 0.882018 0.670843
O19   O     O_R   0.941630 0.902840 0.083750 -0.542151
C40   C     C_R   0.110213 0.880544 0.112226 0.709271
V4    V     V_3+5 0.830090 0.986410 0.997190 1.387857
O20   O     O_3   0.105080 0.055990 0.997200 -0.367071
C41   C     C_3   0.246383 0.936940 0.709696 -0.382163
C42   C     C_3   0.192928 0.993950 0.632849 -0.691231
H26   H     H_    0.197424 0.951788 0.574934 0.248949
H27   H     H_    0.047066 0.023345 0.640633 0.217873
H28   H     H_    0.296347 0.051226 0.625588 0.236515
H29   H     H_    0.243174 0.983913 0.764229 0.173540
H30   H     H_    0.395958 0.912060 0.702279 0.185423
C43   C     C_3   0.599035 0.599469 0.231021 -0.325980
C44   C     C_3   0.500784 0.537266 0.166697 -0.725876
H31   H     H_    0.361147 0.512438 0.191326 0.214130
H32   H     H_    0.477755 0.573794 0.106676 0.243085
H33   H     H_    0.592896 0.476664 0.154256 0.210255
H34   H     H_    0.745201 0.616245 0.207939 0.190612
H35   H     H_    0.616020 0.560252 0.290091 0.175753
S1    S     S_3+6 0.293938 0.196363 0.389289 -0.012719
O21   O     O_2   0.130593 0.129249 0.386462 -0.353647
O22   O     O_2   0.478000 0.142901 0.390636 -0.302069
O23   O     O_3   0.277913 0.258458 0.477674 -0.500733
H36   H     H_    0.139805 0.258864 0.492240 0.333685
C45   C     C_3   0.954949 0.687237 0.907008 -0.289718
C46   C     C_3   0.754377 0.681455 0.944550 -0.768193
H37   H     H_    0.696411 0.751088 0.956729 0.230012
H38   H     H_    0.659440 0.645033 0.900624 0.293684
H39   H     H_    0.758760 0.643220 0.004600 0.221234
H40   H     H_    0.012453 0.616743 0.901793 0.251273
H41   H     H_    0.046110 0.722854 0.953696 0.166107
S2    S     S_3+6 0.372238 0.565888 0.789611 -0.087846
O24   O     O_2   0.348664 0.563553 0.883229 -0.381332
O25   O     O_2   0.239108 0.496500 0.752375 -0.376040
O26   O     O_3   0.598063 0.535880 0.765094 -0.540675
H42   H     H_    0.628870 0.484122 0.802764 0.351967

loop_
_geom_bond_atom_site_label_1
_geom_bond_atom_site_label_2
_ccdc_geom_bond_type
C29   C36   S    
C12   H8    S    
C27   C28   S    
C31   C32   A    
C18   C19   S    
C14   C15   A    
C33   C37   S    
C1    O6    A    
S1    O22   D    
C43   C44   S    
C41   H29   S    
C25   C26   A    
C5    C9    S    
H5    C11   S    
C10   C11   S    
C7    C9    S    
O5    C3    A    
C12   H7    S    
O14   C38   A    
C14   C40   S    
V2    O10   S    
C5    C6    S    
S2    O24   D    
C13   C14   A    
C35   H23   S    
C46   H37   S    
S1    O21   D    
C7    C11   S    
O8    V2    S    
O14   V3    S    
C34   C35   S    
C32   C33   A    
O23   H36   S    
O1    V2    S    
O7    V1    S    
C43   H34   S    
V4    O20   S    
O11   C38   A    
O9    C4    A    
C35   C36   S    
C13   C18   A    
C19   H12   S    
O13   V3    S    
C11   C41   S    
V3    O20   S    
O19   V4    S    
C33   C34   A    
C25   C38   S    
O18   C39   A    
C8    S2    S    
C42   H26   S    
O4    C2    A    
O19   C40   A    
C6    C10   S    
C23   C24   A    
C8    C9    S    
C28   H20   S    
C24   C25   A    
C3    C17   S    
C35   H24   S    
O2    C1    A    
C2    C30   S    
C30   C31   A    
C42   H27   S    
O12   C37   A    
C21   C22   A    
C46   H39   S    
O9    V2    S    
C37   O16   A    
O26   H42   S    
C36   H25   S    
C5    H1    S    
C4    C9    S    
C20   H13   S    
O13   C40   A    
C43   H35   S    
O3    C4    A    
C45   H40   S    
C21   C26   A    
C17   C18   A    
C44   H31   S    
O6    V2    S    
C44   H32   S    
C27   H17   S    
C23   H15   S    
H4    C7    S    
C19   C43   S    
C19   C20   S    
O2    V1    S    
O15   C39   A    
C1    C22   S    
C8    C12   S    
C26   C27   S    
C22   C23   A    
O1    C2    A    
C13   C20   S    
O18   V4    S    
O5    V1    S    
O8    C3    A    
C28   H19   S    
C41   H30   S    
C8    H6    S    
C44   H33   S    
C7    H9    S    
S2    O26   S    
C6    C45   S    
C15   C16   A    
O7    V2    S    
C24   H16   S    
O3    V1    S    
V1    O10   S    
C45   C46   S    
C42   H28   S    
C16   C17   A    
C29   C34   A    
O12   V3    S    
C41   C42   S    
C16   H11   S    
O17   V4    S    
C10   C12   S    
C5    H2    S    
S2    O25   D    
C36   S1    S    
C32   H22   S    
C29   C30   A    
C20   H14   S    
C46   H38   S    
O16   V4    S    
C45   H41   S    
C31   H21   S    
O15   V3    S    
O4    V1    S    
C6    H3    S    
C15   H10   S    
O17   V3    S    
C27   H18   S    
C10   C39   S    
O11   V4    S    
S1    O23   S    
C21   C28   S    
