data_mof_unit_29320.cif
_audit_creation_date              2012-12-10T20:34:15-0500
_audit_creation_method            fapswitch 2.2
_symmetry_space_group_name_H-M    P1
_symmetry_Int_Tables_number       1
_space_group_crystal_system       triclinic
_cell_length_a                    9.934896
_cell_length_b                    10.810491
_cell_length_c                    13.622327
_cell_angle_alpha                 89.456037
_cell_angle_beta                  83.350023
_cell_angle_gamma                 89.701083
_cell_volume                      1453.13174957

loop_
_atom_site_label
_atom_site_type_symbol
_atom_type_description
_atom_site_fract_x
_atom_site_fract_y
_atom_site_fract_z
_atom_type_partial_charge
C1    C     C_R   0.501821 0.739592 0.495138 0.878794
C2    C     C_3   0.240186 0.931861 0.526229 -0.033994
C3    C     C_R   0.917013 0.456865 0.579304 0.175975
C4    C     C_R   0.475972 0.499943 0.685343 0.894713
C5    C     C_R   0.940415 0.533794 0.417335 0.092057
C6    C     C_R   0.084487 0.534222 0.417298 0.075517
C7    C     C_R   0.058786 0.456785 0.579296 0.170507
C8    C     C_3   0.048090 0.504432 0.682187 -0.505883
C9    C     C_3   0.895259 0.504505 0.682238 -0.493934
C10   C     C_R   0.501502 0.261070 0.496798 0.899589
C11   C     C_R   0.523974 0.499548 0.314669 0.898083
C12   C     C_1   0.457585 0.495740 0.788733 -0.233768
C13   C     C_1   0.541720 0.490823 0.211574 -0.207143
C14   C     C_2   0.555439 0.470662 0.020616 0.124633
C15   C     C_2   0.437508 0.483446 0.980854 0.141205
C16   C     C_1   0.444197 0.490465 0.876303 0.016773
C17   C     C_1   0.552773 0.481289 0.124397 -0.050577
C18   C     C_3   0.302127 0.504455 0.044037 -0.408225
C19   C     C_3   0.178156 0.493894 0.987497 -0.887243
C20   C     C_3   0.692762 0.450740 0.961177 -0.402132
C21   C     C_3   0.765603 0.573487 0.938851 -0.870795
C22   C     C_3   0.771560 0.873055 0.439558 -0.355903
C23   C     C_R   0.391104 0.939554 0.503466 0.065035
C24   C     C_3   0.830573 0.844288 0.536531 -0.825482
C25   C     C_3   0.203133 0.122040 0.641291 -0.393764
C26   C     C_3   0.050220 0.117885 0.669993 -0.912934
C27   C     C_3   0.166070 0.887395 0.439518 -0.390533
C28   C     C_3   0.238623 0.912930 0.335750 -0.861546
C29   C     C_R   0.509226 0.871599 0.485179 -0.190763
C30   C     C_R   0.634416 0.937291 0.460152 0.104015
C31   C     C_R   0.631039 0.068060 0.458495 0.070206
C32   C     C_R   0.507529 0.130476 0.488455 -0.152648
C33   C     C_R   0.391221 0.062606 0.509513 -0.037129
C34   C     C_3   0.241731 0.074470 0.535583 -0.035232
H1    H     H_    0.084148 0.435593 0.734496 0.208569
H2    H     H_    0.290508 0.434791 0.104961 0.206971
H3    H     H_    0.302114 0.597831 0.077505 0.208636
H4    H     H_    0.153006 0.511011 0.272920 0.164958
H5    H     H_    0.141716 0.660606 0.309188 0.163261
H6    H     H_    0.707686 0.632883 0.891494 0.260939
H7    H     H_    0.777396 0.622720 0.008539 0.260913
H8    H     H_    0.867964 0.556072 0.899329 0.255559
H9    H     H_    0.756317 0.390397 0.003919 0.204900
H10   H     H_    0.683442 0.401767 0.891016 0.198941
H11   H     H_    0.753337 0.807749 0.594748 0.271297
H12   H     H_    0.091390 0.598694 0.686082 0.208693
H13   H     H_    0.912992 0.774769 0.523619 0.233039
H14   H     H_    0.871588 0.929977 0.565508 0.228583
H15   H     H_    0.764118 0.790154 0.393847 0.224564
H16   H     H_    0.846350 0.928600 0.391720 0.162714
H17   H     H_    0.827304 0.117194 0.469616 0.189313
H18   H     H_    0.782767 0.117296 0.351404 0.166580
H19   H     H_    0.996810 0.169172 0.614853 0.258273
H20   H     H_    0.014940 0.020584 0.674933 0.256869
H21   H     H_    0.024591 0.161467 0.743307 0.252939
H22   H     H_    0.254228 0.066529 0.695474 0.204482
H23   H     H_    0.843575 0.435426 0.734314 0.210277
H24   H     H_    0.236675 0.219393 0.645821 0.237104
H25   H     H_    0.263739 0.012507 0.325695 0.253611
H26   H     H_    0.332754 0.856727 0.322695 0.265096
H27   H     H_    0.171232 0.887255 0.279706 0.230410
H28   H     H_    0.148536 0.786681 0.448567 0.226789
H29   H     H_    0.066279 0.934088 0.444585 0.209513
H30   H     H_    0.915246 0.507331 0.273863 0.170178
H31   H     H_    0.914922 0.657690 0.308007 0.142128
H32   H     H_    0.849697 0.598766 0.686479 0.213610
H33   H     H_    0.193064 0.126659 0.478219 0.175559
H34   H     H_    0.208623 0.881789 0.596848 0.136740
H35   H     H_    0.179489 0.567513 0.929940 0.264860
H36   H     H_    0.176167 0.401757 0.952272 0.261176
H37   H     H_    0.084305 0.504930 0.039555 0.246066
N1    N     N_R   0.857130 0.500860 0.500650 -0.108089
N2    N     N_R   0.142770 0.500820 0.500650 -0.115393
N3    N     N_3   0.168590 0.571526 0.329862 -0.394923
N4    N     N_3   0.750934 0.137920 0.425284 -0.426501
N5    N     N_3   0.881908 0.569140 0.330130 -0.398077
O1    O     O_R   0.385310 0.683210 0.499990 -0.609182
O2    O     O_R   0.614650 0.683240 0.500000 -0.606760
O3    O     O_R   0.368820 0.499950 0.640340 -0.616151
O4    O     O_R   0.598170 0.499990 0.640350 -0.613258
O5    O     O_R   0.385350 0.316760 0.500000 -0.635668
O6    O     O_R   0.614690 0.316790 0.500010 -0.588049
O7    O     O_R   0.401830 0.500010 0.359650 -0.588375
O8    O     O_R   0.631180 0.500050 0.359660 -0.589228
Zn1   Zn    Zn3+2 0.346870 0.499980 0.499990 0.941598
Zn2   Zn    Zn3+2 0.653130 0.500020 0.500010 0.956471

loop_
_geom_bond_atom_site_label_1
_geom_bond_atom_site_label_2
_ccdc_geom_bond_type
C15   C18   S    
C1    O1    A    
C19   H37   S    
C25   H22   S    
H18   N4    S    
C26   H21   S    
C7    C8    S    
C7    N2    A    
H31   N5    S    
C24   H11   S    
C23   C29   A    
C18   H3    S    
H17   N4    S    
C4    O4    A    
C5    N1    A    
C3    C7    A    
C5    C6    A    
C15   C16   S    
C18   C19   S    
H5    N3    S    
C9    H32   S    
O4    Zn2   S    
C12   C16   T    
C8    C9    S    
C23   C33   A    
C2    C27   S    
C4    C12   S    
C25   C34   S    
C22   H16   S    
C28   H27   S    
O2    Zn2   S    
O1    Zn1   S    
C1    O2    A    
C14   C17   S    
C26   H20   S    
C20   H10   S    
C6    N3    S    
C28   H26   S    
C24   H14   S    
C14   C20   S    
C4    O3    A    
C11   O7    A    
C25   C26   S    
O6    Zn2   S    
C10   O6    A    
C8    H1    S    
C29   C30   A    
C3    C9    S    
C27   H28   S    
C31   N4    S    
C31   C32   A    
C1    C29   S    
C33   C34   S    
H30   N5    S    
N2    Zn1   S    
C27   H29   S    
C22   H15   S    
C21   H7    S    
O7    Zn1   S    
C22   C24   S    
C19   H35   S    
C25   H24   S    
C26   H19   S    
O3    Zn1   S    
C20   H9    S    
C6    N2    A    
H4    N3    S    
C28   H25   S    
C22   C30   S    
C24   H13   S    
O8    Zn2   S    
C34   H33   S    
N1    Zn2   S    
C11   O8    A    
C10   O5    A    
C2    H34   S    
C13   C17   T    
C32   C33   A    
C5    N5    S    
C3    N1    A    
C11   C13   S    
C2    C34   S    
C30   C31   A    
C21   H6    S    
C9    H23   S    
C8    H12   S    
C21   H8    S    
C10   C32   S    
C20   C21   S    
C2    C23   S    
C14   C15   D    
C19   H36   S    
C18   H2    S    
O5    Zn1   S    
C27   C28   S    
