data_mof_unit_60773.cif
_audit_creation_date              2013-03-05T15:44:29-0500
_audit_creation_method            fapswitch 2.2
_symmetry_space_group_name_H-M    P1
_symmetry_Int_Tables_number       1
_space_group_crystal_system       triclinic
_cell_length_a                    13.12042
_cell_length_b                    13.103354
_cell_length_c                    19.502773
_cell_angle_alpha                 100.191379
_cell_angle_beta                  80.367262
_cell_angle_gamma                 91.433143
_cell_volume                      3253.4789761

loop_
_atom_site_label
_atom_site_type_symbol
_atom_site_description
_atom_site_fract_x
_atom_site_fract_y
_atom_site_fract_z
_atom_type_partial_charge
Zn1   Zn    Zn3+2 0.571990 0.407410 0.544380 1.030001
Zn2   Zn    Zn3+2 0.407420 0.421690 0.442900 1.085675
Zn3   Zn    Zn3+2 0.598910 0.570150 0.439280 1.045445
Zn4   Zn    Zn3+2 0.421690 0.600750 0.573440 1.009934
O1    O     O_3   0.500000 0.500000 0.500000 -0.521017
O2    O     O_R   0.276880 0.592620 0.567490 -0.651146
O3    O     O_R   0.718700 0.413090 0.514970 -0.613485
O4    O     O_R   0.414920 0.276880 0.447500 -0.572920
O5    O     O_R   0.589510 0.717410 0.470040 -0.619143
O6    O     O_R   0.441420 0.437150 0.344000 -0.630337
O7    O     O_R   0.438960 0.578560 0.667440 -0.640081
O8    O     O_R   0.575450 0.541060 0.341470 -0.637446
O9    O     O_R   0.544160 0.443230 0.647100 -0.630169
O10   O     O_R   0.530110 0.266880 0.518530 -0.662989
O11   O     O_R   0.465470 0.738830 0.563940 -0.631127
O12   O     O_R   0.266890 0.467300 0.476120 -0.552584
O13   O     O_R   0.737530 0.526990 0.441410 -0.617813
C1    C     C_R   0.222849 0.534497 0.527474 0.895546
C2    C     C_R   0.776459 0.464557 0.473479 0.876366
C3    C     C_R   0.464670 0.223207 0.480335 0.756902
C4    C     C_R   0.534401 0.776420 0.520818 0.871537
C5    C     C_R   0.510620 0.486426 0.309499 0.814125
C6    C     C_R   0.489944 0.513764 0.690312 0.819213
C7    C     C_R   0.488155 0.520822 0.766026 -0.011316
C8    C     C_R   0.572315 0.483168 0.789820 -0.116264
C9    C     C_R   0.570947 0.487208 0.861575 -0.215936
C10   C     C_R   0.483672 0.526270 0.910806 0.053233
C11   C     C_R   0.400661 0.566574 0.886797 -0.085215
C12   C     C_R   0.403078 0.564416 0.814846 -0.204119
C13   C     C_R   0.433924 0.450626 0.129817 -0.040967
C14   C     C_R   0.428139 0.455959 0.202240 -0.182816
C15   C     C_R   0.611892 0.493463 0.191167 -0.165015
C16   C     C_R   0.618032 0.485779 0.118519 -0.148454
C17   C     C_R   0.528783 0.466465 0.087994 0.224246
C18   C     C_2   0.476939 0.526382 0.987196 0.603609
C19   C     C_2   0.535651 0.463711 0.012215 -0.369252
C20   C     C_R   0.516850 0.478797 0.233358 -0.016318
H1    H     H_    0.639857 0.451593 0.752893 0.186522
H2    H     H_    0.354248 0.444054 0.234037 0.189690
H3    H     H_    0.681393 0.509868 0.214277 0.180471
H4    H     H_    0.592482 0.411384 0.977737 0.125287
H5    H     H_    0.333023 0.598199 0.923539 0.192614
H6    H     H_    0.364751 0.434063 0.106345 0.172540
H7    H     H_    0.337571 0.594398 0.797279 0.169841
H8    H     H_    0.638998 0.460377 0.877600 0.148672
H9    H     H_    0.691732 0.497278 0.086334 0.155227
C21   C     C_2   0.889111 0.458301 0.465415 0.070497
C22   C     C_2   0.937251 0.481420 0.522763 0.054635
H10   H     H_    0.074773 0.613584 0.573933 0.154981
C23   C     C_2   0.109782 0.543200 0.541358 -0.392591
C24   C     C_2   0.049945 0.467005 0.514261 0.667588
H11   H     H_    0.558630 0.092825 0.537196 0.183734
H12   H     H_    0.398115 0.915139 0.511754 0.199274
C25   C     C_2   0.549125 0.887723 0.526844 -0.288612
C26   C     C_2   0.473624 0.947856 0.518119 -0.077205
C27   C     C_2   0.442642 0.111499 0.477209 0.167883
C28   C     C_2   0.495826 0.056535 0.511850 -0.261494
H13   H     H_    0.626915 0.918082 0.527429 0.162679
F1    F     F_    0.092096 0.376804 0.475121 -0.579364
N1    N     N_R   0.881065 0.519947 0.592471 0.187431
O14   O     O_R   0.913940 0.498787 0.647764 -0.372925
O15   O     O_R   0.806564 0.587237 0.601500 -0.410493
N2    N     N_R   0.946243 0.435134 0.394470 0.237774
O16   O     O_R   0.904900 0.376541 0.345373 -0.354504
O17   O     O_R   0.030233 0.485592 0.376134 -0.332311
N3    N     N_R   0.364117 0.064041 0.438512 0.218143
O18   O     O_R   0.280158 0.114964 0.438732 -0.298222
O19   O     O_R   0.381182 0.974776 0.396868 -0.358969
F2    F     F_    0.407933 0.591925 0.033315 -0.648698

loop_
_geom_bond_atom_site_label_1
_geom_bond_atom_site_label_2
_geom_bond_distance
_ccdc_geom_bond_type
N3    O19   1.301523 A    
C6    C7    1.459356 S    
N2    O17   1.301824 A    
C22   N1    1.444608 S    
Zn3   O5    1.917281 S    
O10   C3    1.287700 A    
C8    H1    1.083729 S    
Zn1   O10   1.913238 S    
Zn2   O12   1.922209 S    
C17   C19   1.459566 S    
C21   C22   1.359622 D    
C13   C14   1.391075 A    
C3    C27   1.477484 S    
C10   C18   1.477345 S    
C15   C16   1.391325 A    
Zn3   O1    1.934588 S    
Zn4   O11   1.915437 S    
C15   H3    1.083665 S    
C16   C17   1.398148 A    
C19   H4    1.083002 S    
C26   C28   1.468556 S    
Zn1   O3    1.917863 S    
C15   C20   1.403410 A    
C7    C8    1.399231 A    
Zn4   O7    1.956447 S    
C16   H9    1.083877 S    
O5    C4    1.272302 A    
C9    C10   1.408026 A    
O4    C3    1.285693 A    
C27   N3    1.442165 S    
C18   F2    1.363570 S    
O7    C6    1.276560 A    
C11   C12   1.393560 A    
O13   C2    1.276786 A    
O9    C6    1.275569 A    
C14   H2    1.083637 S    
Zn3   O13   1.927297 S    
O3    C2    1.283043 A    
H12   C26   1.087096 S    
C12   H7    1.083282 S    
C21   N2    1.443654 S    
C4    C25   1.452937 S    
O2    C1    1.280415 A    
Zn1   O1    1.953400 S    
C13   H6    1.083693 S    
Zn2   O1    1.937655 S    
Zn1   O9    1.948837 S    
H11   C28   1.087656 S    
C13   C17   1.401646 A    
N2    O16   1.301306 A    
Zn2   O6    1.950947 S    
O8    C5    1.270377 A    
O11   C4    1.279687 A    
C24   F1    1.362966 S    
C27   C28   1.348036 D    
C1    C23   1.466337 S    
O12   C1    1.277490 A    
Zn4   O2    1.921974 S    
C25   H13   1.087238 S    
C2    C21   1.462795 S    
C11   H5    1.083166 S    
N3    O18   1.301121 A    
H10   C23   1.086904 S    
C7    C12   1.400936 A    
Zn4   O1    1.938084 S    
Zn2   O4    1.921135 S    
Zn3   O8    1.952479 S    
C9    H8    1.080028 S    
C23   C24   1.343645 D    
C8    C9    1.388130 A    
C25   C26   1.331923 D    
C5    C20   1.459126 S    
O6    C5    1.270412 A    
C22   C24   1.473169 S    
N1    O15   1.301721 A    
C14   C20   1.402610 A    
N1    O14   1.301251 A    
C10   C11   1.404030 A    
C18   C19   1.343534 D    
