data_mof_unit_32982.cif
_audit_creation_date              2012-12-10T20:30:10-0500
_audit_creation_method            fapswitch 2.2
_symmetry_space_group_name_H-M    P1
_symmetry_Int_Tables_number       1
_space_group_crystal_system       triclinic
_cell_length_a                    9.869546
_cell_length_b                    10.712096
_cell_length_c                    13.29189
_cell_angle_alpha                 89.613278
_cell_angle_beta                  71.779114
_cell_angle_gamma                 88.934135
_cell_volume                      1334.57121857

loop_
_atom_site_label
_atom_site_type_symbol
_atom_type_description
_atom_site_fract_x
_atom_site_fract_y
_atom_site_fract_z
_atom_type_partial_charge
C1    C     C_R   0.497310 0.739563 0.503467 0.946180
C2    C     C_R   0.444558 0.531091 0.979394 0.113673
C3    C     C_R   0.476891 0.554597 0.870407 0.037206
C4    C     C_R   0.547909 0.557201 0.028858 -0.074216
C5    C     C_R   0.689821 0.581685 0.967844 0.062678
C6    C     C_R   0.715804 0.621712 0.863444 0.247880
C7    C     C_R   0.606909 0.614987 0.817451 -0.211637
C8    C     C_R   0.512709 0.566703 0.138041 0.374502
C9    C     C_R   0.763083 0.538423 0.122354 -0.229054
C10   C     C_R   0.379373 0.515357 0.818265 -0.020112
C11   C     C_R   0.391081 0.942973 0.568864 -0.031929
C12   C     C_R   0.422945 0.506409 0.702967 0.929383
C13   C     C_R   0.497490 0.870992 0.499114 -0.082687
C14   C     C_R   0.610827 0.930702 0.423651 -0.181701
C15   C     C_R   0.615580 0.060956 0.420026 0.245944
C16   C     C_R   0.506470 0.129908 0.493692 -0.115231
C17   C     C_R   0.397485 0.067659 0.565614 -0.056366
C18   C     C_3   0.272726 0.091044 0.660573 0.050977
C19   C     C_3   0.259681 0.947330 0.664570 0.297219
C20   C     C_R   0.911233 0.601012 0.536097 0.228615
C21   C     C_R   0.941359 0.395845 0.473597 -0.108008
C22   C     C_R   0.085215 0.395816 0.473531 -0.072818
C23   C     C_R   0.503016 0.260911 0.496081 0.960199
C24   C     C_R   0.053382 0.600991 0.536517 0.290898
C25   C     C_3   0.072413 0.730864 0.493615 -0.445719
C26   C     C_3   0.919523 0.729805 0.492424 -0.490545
C27   C     C_R   0.576938 0.509058 0.297455 0.933274
C28   C     C_R   0.798338 0.570844 0.015479 -0.108598
C29   C     C_R   0.619034 0.536767 0.184601 -0.170772
C30   C     C_R   0.245299 0.470055 0.877107 -0.077112
C31   C     C_R   0.213470 0.449144 0.984992 -0.129087
C32   C     C_R   0.314574 0.473785 0.034785 -0.090701
H1    H     H_    0.847411 0.521551 0.157148 0.185433
H2    H     H_    0.184544 0.140344 0.640364 0.108171
H3    H     H_    0.162074 0.918257 0.648194 0.063767
H4    H     H_    0.899227 0.312769 0.449567 0.192662
H5    H     H_    0.150901 0.312743 0.449141 0.158907
H6    H     H_    0.087307 0.797396 0.551749 0.209541
H7    H     H_    0.151405 0.738668 0.414048 0.282361
H8    H     H_    0.848376 0.796540 0.549564 0.240814
H9    H     H_    0.910032 0.732603 0.411232 0.218785
H10   H     H_    0.909533 0.581949 0.970285 0.199276
H11   H     H_    0.168705 0.442676 0.838495 0.176820
H12   H     H_    0.292436 0.443518 0.115799 0.181822
H13   H     H_    0.113167 0.407498 0.029034 0.162089
H14   H     H_    0.626501 0.657004 0.740232 0.211528
H15   H     H_    0.694278 0.876505 0.367570 0.181568
N1    N     N_R   0.856940 0.500860 0.500710 -0.122088
N2    N     N_R   0.142580 0.500820 0.500710 -0.095718
O1    O     O_R   0.385310 0.683210 0.499990 -0.591742
O2    O     O_R   0.614650 0.683240 0.500000 -0.645552
O3    O     O_R   0.328390 0.499940 0.653610 -0.592169
O4    O     O_R   0.557730 0.499980 0.653620 -0.630832
O5    O     O_R   0.385350 0.316760 0.500000 -0.644560
O6    O     O_R   0.614690 0.316790 0.500010 -0.592416
O7    O     O_R   0.442270 0.500020 0.346380 -0.543605
O8    O     O_R   0.671610 0.500060 0.346390 -0.619760
Zn1   Zn    Zn3+2 0.346870 0.499980 0.499990 1.041356
Zn2   Zn    Zn3+2 0.653130 0.500020 0.500010 0.985212
Br1   Br    Br    0.767557 0.138739 0.312151 -0.488001
Br2   Br    Br    0.332669 0.173129 0.769703 -0.402176
S1    S     S_3+6 0.281052 0.870138 0.778392 0.082793
O9    O     O_2   0.183900 0.929841 0.877410 -0.193379
O10   O     O_2   0.239226 0.736924 0.775269 -0.314590
O11   O     O_3   0.451428 0.876733 0.777762 -0.537289
H16   H     H_    0.448524 0.854417 0.850842 0.400255
Br3   Br    Br    0.890722 0.700430 0.786690 -0.503426
S2    S     S_3+6 0.364042 0.665584 0.204138 0.018733
O12   O     O_2   0.403976 0.749440 0.280166 -0.300061
O13   O     O_2   0.322806 0.745893 0.124672 -0.272678
O14   O     O_3   0.224172 0.578447 0.270791 -0.597937
H17   H     H_    0.140588 0.615284 0.254536 0.363748

loop_
_geom_bond_atom_site_label_1
_geom_bond_atom_site_label_2
_ccdc_geom_bond_type
C2    C4    A    
C18   Br2   S    
C23   O6    A    
S1    O9    D    
C22   H5    S    
O6    Zn2   S    
C25   H6    S    
C27   C29   S    
C5    C28   A    
C11   C13   A    
C1    O1    A    
C10   C30   A    
C3    C7    A    
C12   O4    A    
C9    C29   A    
C30   C31   A    
C4    C8    A    
C21   N1    A    
C26   H8    S    
C27   O7    A    
C27   O8    A    
O5    Zn1   S    
C17   C18   S    
O4    Zn2   S    
O14   H17   S    
C3    C10   A    
C19   H3    S    
C21   C22   A    
C25   H7    S    
C9    H1    S    
C1    O2    A    
C11   C19   S    
C6    C7    A    
C10   C12   S    
N1    Zn2   S    
S2    O14   S    
C8    C29   A    
C28   H10   S    
C6    Br3   S    
C12   O3    A    
O7    Zn1   S    
C8    S2    S    
C16   C23   S    
C2    C3    A    
C18   H2    S    
C32   H12   S    
C5    C6    A    
O3    Zn1   S    
C16   C17   A    
C30   H11   S    
O8    Zn2   S    
C1    C13   S    
C19   S1    S    
C31   H13   S    
C15   C16   A    
O1    Zn1   S    
C7    H14   S    
O2    Zn2   S    
C24   C25   S    
C26   H9    S    
C23   O5    A    
C2    C32   A    
O11   H16   S    
C15   Br1   S    
C22   N2    A    
C24   N2    A    
C21   H4    S    
S2    O13   D    
C14   C15   A    
C18   C19   S    
S1    O10   D    
C20   N1    A    
S1    O11   S    
C25   C26   S    
C13   C14   A    
C14   H15   S    
S2    O12   D    
C31   C32   A    
C11   C17   A    
N2    Zn1   S    
C20   C24   A    
C9    C28   A    
C4    C5    A    
C20   C26   S    
