data_mof_unit_49722.cif
_audit_creation_date              2013-03-05T16:20:07-0500
_audit_creation_method            fapswitch 2.2
_symmetry_space_group_name_H-M    P1
_symmetry_Int_Tables_number       1
_space_group_crystal_system       triclinic
_cell_length_a                    8.391189
_cell_length_b                    18.976721
_cell_length_c                    27.028162
_cell_angle_alpha                 100.953234
_cell_angle_beta                  92.835707
_cell_angle_gamma                 87.004706
_cell_volume                      4216.27832295

loop_
_atom_site_label
_atom_site_type_symbol
_atom_site_description
_atom_site_fract_x
_atom_site_fract_y
_atom_site_fract_z
_atom_type_partial_charge
P1    P     P_3+3 0.929380 0.335110 0.452880 0.499290
O1    O     O_2   0.106080 0.324280 0.466820 -0.394263
O2    O     O_3   0.859130 0.413620 0.470620 -0.333399
O3    O     O_3   0.376230 0.370290 0.556910 -0.375826
O4    O     O_2   0.271081 0.244606 0.514409 -0.399959
O5    O     O_3   0.910157 0.302310 0.387566 -0.628004
O6    O     O_3   0.350023 0.255951 0.609035 -0.540496
H1    H     H_    0.408144 0.356669 0.648454 0.099859
C1    C     C_3   0.375885 0.283605 0.699279 0.231444
H2    H     H_    0.243791 0.290982 0.699225 0.148269
P2    P     P_3+3 0.398530 0.559060 0.613740 0.514120
P3    P     P_3+3 0.964609 0.422212 0.648732 0.493880
O7    O     O_2   0.227190 0.537650 0.620070 -0.316474
O8    O     O_3   0.971110 0.406970 0.583250 -0.392421
O9    O     O_2   0.133131 0.445147 0.669180 -0.388084
O10   O     O_3   0.367827 0.650626 0.635979 -0.568621
O11   O     O_3   0.946924 0.339554 0.667842 -0.508367
C2    C     C_3   0.936617 0.284662 0.624842 0.209231
H3    H     H_    0.034645 0.286696 0.598986 0.146777
H4    H     H_    0.819530 0.289888 0.604774 0.037836
C3    C     C_3   0.953864 0.210736 0.639626 -0.093986
H5    H     H_    0.951775 0.168886 0.604728 0.092823
H6    H     H_    0.070375 0.204460 0.659708 0.169894
C4    C     C_3   0.004916 0.688163 0.641987 0.756935
H7    H     H_    0.106004 0.672598 0.617255 0.037145
C5    C     C_3   0.029353 0.763394 0.674906 -0.480357
H8    H     H_    0.945020 0.773140 0.706250 0.245391
H9    H     H_    0.152054 0.763643 0.692445 0.223844
Ba1   Ba    Ba6+2 0.160810 0.465630 0.521640 1.595927
C6    C     C_3   0.008024 0.334661 0.358853 0.590209
H10   H     H_    0.119518 0.353425 0.379899 0.009102
C7    C     C_3   0.053630 0.277880 0.312320 -0.174259
H11   H     H_    0.120738 0.232477 0.325674 0.104978
H12   H     H_    0.944275 0.255733 0.291419 0.181172
C8    C     C_3   0.488692 0.689823 0.623136 0.552074
H13   H     H_    0.593398 0.655485 0.609441 0.163474
C9    C     C_3   0.541842 0.742364 0.670355 -0.702213
H14   H     H_    0.573591 0.712663 0.701376 0.248809
H15   H     H_    0.444722 0.782938 0.682873 0.259660
H16   H     H_    0.649132 0.769721 0.663045 0.250511
P4    P     P_3+3 0.880940 0.664900 0.547160 0.460553
O12   O     O_2   0.704230 0.675760 0.533200 -0.362994
O13   O     O_3   0.951180 0.586390 0.529420 -0.381308
O14   O     O_3   0.434080 0.629720 0.443130 -0.393287
O15   O     O_3   0.859832 0.685015 0.613276 -0.627429
P5    P     P_3+3 0.842120 0.589897 0.350920 0.542888
O16   O     O_3   0.351080 0.462080 0.440130 -0.419556
O17   O     O_3   0.839200 0.593040 0.416790 -0.363648
O18   O     O_2   0.700158 0.543215 0.329447 -0.274732
O19   O     O_3   0.776051 0.671892 0.333455 -0.524427
Ba2   Ba    Ba6+2 0.649380 0.534380 0.478400 1.605285
P6    P     P_3+3 0.401941 0.278127 0.552164 0.427229
C10   C     C_3   0.433048 0.298719 0.649220 0.215533
H17   H     H_    0.563689 0.286355 0.646839 0.087104
O20   O     O_3   0.459240 0.537930 0.559910 -0.407060
C11   C     C_3   0.479279 0.314686 0.401681 0.426437
H18   H     H_    0.595350 0.337199 0.416327 0.110428
H19   H     H_    0.391477 0.325864 0.431920 0.106992
C12   C     C_3   0.502882 0.233640 0.385874 -0.933427
H20   H     H_    0.593532 0.220663 0.356546 0.289946
H21   H     H_    0.544236 0.209471 0.418774 0.204906
H22   H     H_    0.388327 0.209947 0.370548 0.248129
P7    P     P_3+3 0.406044 0.437084 0.376886 0.499845
O21   O     O_2   0.583120 0.462390 0.379940 -0.260698
O22   O     O_3   0.423049 0.343479 0.359656 -0.523754
C13   C     C_3   0.885950 0.726243 0.349403 0.405296
H23   H     H_    0.007706 0.702711 0.354417 0.022651
C14   C     C_3   0.893091 0.775680 0.308790 0.528211
P8    P     P_3+3 0.414564 0.722804 0.445702 0.443671
C15   C     C_3   0.382498 0.679644 0.349531 0.510163
H24   H     H_    0.258236 0.669050 0.356544 -0.005840
O23   O     O_2   0.561284 0.755714 0.476637 -0.406722
O24   O     O_3   0.437201 0.738837 0.384666 -0.512566
H25   H     H_    0.458813 0.630715 0.351648 0.140112
H26   H     H_    0.309827 0.658251 0.270096 0.216513
C16   C     C_3   0.387549 0.694785 0.296275 -0.814742
H27   H     H_    0.510438 0.685416 0.282614 0.285431
H28   H     H_    0.345935 0.750906 0.295099 0.301151
C17   C     C_R   0.003148 0.049662 0.482017 0.008218
C18   C     C_R   0.089520 0.095244 0.458643 0.114655
C19   C     C_R   0.237593 0.070161 0.438553 -0.158786
C20   C     C_R   0.298600 0.000840 0.441396 -0.154312
C21   C     C_R   0.211250 0.954339 0.463320 0.118593
C22   C     C_R   0.062666 0.978468 0.483661 0.011135
C23   C     C_R   0.268609 0.883618 0.463737 -0.107625
C24   C     C_R   0.176666 0.834472 0.482104 -0.017266
C25   C     C_R   0.029330 0.858888 0.504467 0.022858
C26   C     C_R   0.973336 0.931412 0.505172 0.041705
C27   C     C_R   0.222563 0.760650 0.475411 0.199961
C28   C     C_R   0.118301 0.711969 0.489380 -0.183449
C29   C     C_R   0.983573 0.735384 0.518406 0.166279
C30   C     C_R   0.935200 0.810635 0.524328 -0.080629
C31   C     C_R   0.856344 0.074794 0.502934 0.003129
C32   C     C_R   0.799476 0.147066 0.503202 -0.016887
C33   C     C_R   0.888625 0.194325 0.481078 -0.056919
C34   C     C_R   0.028184 0.165295 0.456106 -0.126696
H29   H     H_    0.307212 0.104457 0.421010 0.134995
H30   H     H_    0.413498 0.983183 0.425701 0.137054
H31   H     H_    0.382465 0.866690 0.447323 0.164414
H32   H     H_    0.093286 0.197031 0.435454 0.162476
C35   C     C_R   0.793694 0.839190 0.547975 -0.102770
C36   C     C_R   0.736940 0.910992 0.548777 -0.058147
C37   C     C_R   0.825620 0.956531 0.525866 -0.000233
C38   C     C_R   0.767328 0.027903 0.524436 0.019601
C39   C     C_R   0.591144 0.938498 0.570984 0.348299
C40   C     C_R   0.531673 0.007382 0.566904 -0.210518
C41   C     C_R   0.619026 0.052388 0.544469 0.059292
C42   C     C_R   0.651801 0.171279 0.525013 -0.047141
C43   C     C_R   0.561400 0.122604 0.543895 -0.110976
C44   C     C_R   0.598610 0.243557 0.527737 0.183366
C45   C     C_R   0.692163 0.291219 0.509285 -0.537168
C46   C     C_R   0.834452 0.268410 0.484940 0.275594
H33   H     H_    0.727260 0.805297 0.565894 0.165741
H34   H     H_    0.419689 0.027255 0.583924 0.198822
H35   H     H_    0.446194 0.138729 0.559388 0.193010
H36   H     H_    0.648816 0.346399 0.511527 0.173152
C47   C     C_R   0.412439 0.506320 0.185146 0.591051
O25   O     O_2   0.520193 0.508555 0.217363 -0.511853
N1    N     N_R   0.255361 0.521459 0.199496 -0.173755
C48   C     C_R   0.140526 0.534747 0.162892 0.645764
C49   C     C_2   0.081804 0.558032 0.273047 -0.266821
C50   C     C_3   0.022018 0.539247 0.320104 0.357357
C51   C     C_1   0.280855 0.481540 0.333186 0.198680
C52   C     C_2   0.310027 0.475607 0.284490 -0.053180
C53   C     C_2   0.212323 0.520307 0.251747 0.105497
C54   C     C_R   0.337618 0.512756 0.097959 -0.093358
C55   C     C_R   0.450851 0.492080 0.133397 -0.207061
C56   C     C_R   0.600792 0.461142 0.116209 0.445076
C57   C     C_R   0.183171 0.536415 0.113365 -0.049434
C58   C     C_2   0.156221 0.518850 0.354129 -0.539722
H37   H     H_    0.394455 0.433801 0.267507 0.209081
C59   C     C_2   0.656626 0.481270 0.638572 -0.497250
C60   C     C_R   0.555778 0.466254 0.976835 0.024412
C61   C     C_R   0.321103 0.545976 0.965387 0.060798
C62   C     C_R   0.461076 0.507123 0.946338 0.047457
C63   C     C_R   0.673306 0.415793 0.952547 0.205177
C64   C     C_R   0.712716 0.417323 0.902908 -0.100767
C65   C     C_R   0.631074 0.463528 0.874543 -0.099938
C66   C     C_R   0.504014 0.508003 0.896066 -0.069521
C67   C     C_R   0.418763 0.553051 0.867231 -0.057453
C68   C     C_R   0.466354 0.555315 0.818149 0.548929
N2    N     N_R   0.586392 0.508535 0.795869 -0.165913
C69   C     C_R   0.667772 0.462521 0.823866 0.541517
C70   C     C_2   0.773556 0.497171 0.726770 -0.089886
C71   C     C_3   0.807318 0.492146 0.671509 0.335263
C72   C     C_1   0.522397 0.512546 0.656502 0.297980
C73   C     C_2   0.488534 0.512087 0.703805 -0.209921
C74   C     C_2   0.621231 0.505892 0.742800 0.072813
O26   O     O_2   0.770140 0.419320 0.804463 -0.569732
C75   C     C_R   0.525203 0.476967 0.029545 0.007410
C76   C     C_R   0.377720 0.509471 0.046909 0.108990
C77   C     C_R   0.270369 0.539697 0.013695 0.054405
C78   C     C_R   0.638224 0.458161 0.065702 -0.335699
H38   H     H_    0.874576 0.497773 0.753466 0.174463
H39   H     H_    0.804452 0.379513 0.885610 0.194296
H40   H     H_    0.758045 0.440791 0.055106 0.193339
O27   O     O_2   0.999955 0.544383 0.172829 -0.520741
C79   C     C_R   0.072030 0.559246 0.078474 -0.046340
H41   H     H_    0.012786 0.597004 0.255910 0.231635
H42   H     H_    0.951086 0.576411 0.088917 0.174347
C80   C     C_R   0.237330 0.590503 0.935649 -0.197940
C81   C     C_R   0.287092 0.594926 0.887981 -0.058885
O28   O     O_2   0.401504 0.599639 0.795501 -0.550084
C82   C     C_R   0.115827 0.562609 0.030016 -0.210997
H43   H     H_    0.135864 0.624737 0.949298 0.138623
H44   H     H_    0.219588 0.630508 0.866946 0.178627
H45   H     H_    0.365103 0.513608 0.713953 0.215478
H46   H     H_    0.024454 0.580871 0.005247 0.134159
H47   H     H_    0.128863 0.516017 0.392286 0.194157
H48   H     H_    0.659369 0.450062 0.600483 0.165383
C83   C     C_3   0.008623 0.826666 0.648098 -0.796245
H49   H     H_    0.075539 0.816913 0.613246 0.245744
H50   H     H_    0.880157 0.837449 0.640502 0.279860
H51   H     H_    0.054867 0.875278 0.673106 0.295311
N3    N     N_R   0.916455 0.395276 0.344894 0.210417
O29   O     O_R   0.887908 0.448726 0.381304 -0.370651
O30   O     O_R   0.818088 0.386134 0.305629 -0.303389
N4    N     N_R   0.151113 0.306558 0.278049 0.251481
O31   O     O_R   0.086629 0.350374 0.250403 -0.319514
O32   O     O_R   0.291949 0.277300 0.267406 -0.314103
C84   C     C_3   0.417441 0.728575 0.582514 -0.742102
H52   H     H_    0.391234 0.688260 0.548272 0.221348
H53   H     H_    0.305277 0.758289 0.594742 0.215651
H54   H     H_    0.499480 0.766472 0.573188 0.248191
C85   C     C_3   0.441576 0.338102 0.743892 -0.943123
H55   H     H_    0.393397 0.392846 0.741312 0.221391
H56   H     H_    0.403832 0.325975 0.780078 0.286782
H57   H     H_    0.573866 0.336914 0.743927 0.312735
N5    N     N_R   0.419904 0.209327 0.704668 0.298012
O33   O     O_R   0.504198 0.195437 0.743713 -0.264594
O34   O     O_R   0.364680 0.155947 0.671892 -0.351969
N6    N     N_R   0.826175 0.200026 0.671669 0.273774
O35   O     O_R   0.731169 0.147402 0.657054 -0.331324
O36   O     O_R   0.820193 0.236608 0.717457 -0.290813
C86   C     C_3   0.835264 0.769104 0.400397 -0.838981
H58   H     H_    0.911193 0.815359 0.413002 0.222423
H59   H     H_    0.710092 0.790035 0.398338 0.283900
H60   H     H_    0.843347 0.733619 0.428444 0.266983
C87   C     C_3   0.739707 0.824221 0.307317 -0.829683
H61   H     H_    0.734738 0.849079 0.273186 0.274595
H62   H     H_    0.737171 0.868503 0.340750 0.221421
H63   H     H_    0.631368 0.793249 0.306461 0.261138
N7    N     N_R   0.029664 0.823211 0.319755 0.227261
O37   O     O_R   0.050682 0.869758 0.291200 -0.324991
O38   O     O_R   0.132680 0.819083 0.356788 -0.459239
N8    N     N_R   0.909936 0.730070 0.258556 0.228527
O39   O     O_R   0.790725 0.693491 0.236413 -0.352819
O40   O     O_R   0.041371 0.727811 0.234526 -0.380201
C88   C     C_3   0.148410 0.634154 0.468421 -0.635543
H64   H     H_    0.052207 0.600059 0.462566 0.256986
H65   H     H_    0.171622 0.629459 0.428156 0.163255
H66   H     H_    0.236304 0.609087 0.492565 0.251213
N9    N     N_R   0.508207 0.900612 0.601874 0.219759
O41   O     O_R   0.353390 0.898367 0.596873 -0.435640
O42   O     O_R   0.577976 0.889911 0.643949 -0.411533
N10   N     N_R   0.708073 0.424469 0.147280 0.281035
O43   O     O_R   0.650593 0.384102 0.175427 -0.289402
O44   O     O_R   0.859223 0.416064 0.137970 -0.336399
C89   C     C_3   0.739991 0.351444 0.973519 -0.898110
H67   H     H_    0.745452 0.302975 0.943115 0.262506
H68   H     H_    0.863196 0.361051 0.989411 0.251194
H69   H     H_    0.662290 0.337622 0.001978 0.266857
N11   N     N_R   0.998225 0.639469 0.677701 0.214687
O45   O     O_R   0.128738 0.623469 0.702000 -0.366258
O46   O     O_R   0.863913 0.637826 0.699447 -0.468758

loop_
_geom_bond_atom_site_label_1
_geom_bond_atom_site_label_2
_geom_bond_distance
_ccdc_geom_bond_type
C13   C14   1.578731 S    
C83   H49   1.100975 S    
P7    O22   1.748789 S    
C35   C36   1.416280 A    
C2    C3    1.528002 S    
C35   H33   1.068448 S    
P4    O12   1.525061 D    
C45   C46   1.400494 A    
C17   C31   1.403424 A    
C70   C74   1.361733 D    
C26   C37   1.407828 A    
N4    O31   1.300598 A    
C85   H55   1.108324 S    
C51   C52   1.333257 D    
N3    O30   1.302311 A    
C63   C89   1.511894 S    
C84   H52   1.103901 S    
C11   H18   1.108572 S    
C62   C66   1.426183 A    
N7    O38   1.300893 A    
P5    O18   1.545034 D    
C32   C42   1.415636 A    
C5    H8    1.113008 S    
C54   C55   1.409942 A    
C40   H34   1.084738 S    
C14   C87   1.546493 S    
C4    O15   1.408676 S    
O7    Ba1   2.794096 S    
C8    C9    1.525908 S    
C16   H28   1.109072 S    
O6    P6    1.749545 S    
C2    H3    1.112160 S    
C9    H16   1.106563 S    
C1    C85   1.532085 S    
C65   C69   1.415084 A    
C47   N1    1.392459 Am   
P1    C46   1.891549 S    
O16   P7    1.762581 S    
C6    H10   1.109430 S    
N8    O40   1.302083 A    
C4    N11   1.462387 S    
C89   H68   1.110206 S    
C40   C41   1.393052 A    
C58   H47   1.079345 S    
C67   C81   1.402488 A    
C11   O22   1.402587 S    
C88   H66   1.108943 S    
C42   C43   1.407053 A    
C64   H39   1.084607 S    
C36   C39   1.419952 A    
O2    Ba1   2.946605 S    
P1    O1    1.524783 D    
C54   C76   1.425480 A    
N2    C69   1.392492 Am   
N5    O34   1.301170 A    
C44   C45   1.402633 A    
C37   C38   1.422668 A    
C36   C37   1.414267 A    
C81   H44   1.083538 S    
C68   N2    1.388780 Am   
O17   Ba2   2.775122 S    
C73   C74   1.510562 S    
C11   H19   1.110475 S    
C75   C78   1.409716 A    
P3    O11   1.757551 S    
C15   H25   1.109018 S    
C87   H63   1.104991 S    
C76   C77   1.417046 A    
P4    C29   1.927797 S    
O4    P6    1.538556 D    
P8    O24   1.754400 S    
C45   H36   1.082000 S    
C18   C34   1.412933 A    
C1    H2    1.109912 S    
C2    H4    1.107636 S    
O3    Ba1   2.755497 S    
C79   C82   1.391556 A    
O12   Ba2   2.855734 S    
C86   H60   1.103094 S    
N9    O42   1.298737 A    
C13   H23   1.105999 S    
C64   C65   1.402361 A    
C87   H61   1.111185 S    
C3    H5    1.111690 S    
Ba1   O13   2.796823 S    
C14   N7    1.479054 S    
C79   H42   1.083774 S    
P4    O13   1.568981 S    
C7    N4    1.461633 S    
N5    O33   1.302257 A    
C59   H48   1.086425 S    
C1    N5    1.470628 S    
C31   C38   1.412945 A    
C57   C79   1.404559 A    
C19   C20   1.400945 A    
C16   H27   1.106732 S    
C84   H53   1.103407 S    
C83   H51   1.110384 S    
P5    O17   1.771312 S    
C12   H21   1.108754 S    
C39   N9    1.426949 S    
C20   H30   1.083721 S    
P7    O21   1.578811 D    
C48   C57   1.409117 A    
N2    C74   1.469013 S    
C82   H46   1.079695 S    
C4    H7    1.099319 S    
N11   O45   1.301059 A    
C88   H64   1.048023 S    
C89   H67   1.111511 S    
O2    Ba2   2.797416 S    
N8    O39   1.302365 A    
C18   C19   1.404270 A    
C85   H57   1.109075 S    
O16   Ba2   2.963315 S    
Ba1   O20   2.964244 S    
C54   C57   1.405737 A    
C23   C24   1.414385 A    
P1    O5    1.759128 S    
C52   H37   1.084918 S    
P1    O2    1.569009 S    
C8    H13   1.101938 S    
C7    H12   1.112012 S    
P3    C71   1.862563 S    
P8    O23   1.544327 D    
H26   C16   1.105372 S    
C49   C53   1.366489 D    
C9    H14   1.110603 S    
C23   H31   1.080958 S    
C60   C63   1.430732 A    
C83   H50   1.103209 S    
P2    O10   1.737418 S    
P7    C51   1.836721 S    
N3    O29   1.293541 A    
P3    O9    1.546002 D    
P6    C44   1.849261 S    
C66   C67   1.408550 A    
N10   O43   1.301777 A    
C61   C77   1.421136 A    
C15   O24   1.407007 S    
P1    Ba1   3.428730 S    
O11   C2    1.408088 S    
Ba2   O21   2.794429 S    
O14   P8    1.753903 S    
C31   C32   1.427193 A    
C67   C68   1.413172 A    
C78   H40   1.076837 S    
C47   C55   1.423068 A    
C49   C50   1.500166 S    
C77   C82   1.410709 A    
C73   H45   1.082026 S    
C56   C78   1.405902 A    
C56   N10   1.442848 S    
C30   C35   1.410060 A    
O14   Ba2   2.754890 S    
O5    C6    1.396555 S    
Ba1   O16   2.772642 S    
C5    C83   1.514329 S    
C68   O28   1.221959 D    
C3    H6    1.106584 S    
C51   C58   1.320737 D    
C15   C16   1.523386 S    
C48   O27   1.219456 D    
C17   C18   1.411066 A    
C21   C22   1.406746 A    
C1    C10   1.539162 S    
O6    C10   1.404613 S    
O8    Ba1   2.774489 S    
C55   C56   1.421449 A    
N1    C53   1.479311 S    
C6    N3    1.449051 S    
C29   C30   1.445209 A    
C15   H24   1.104318 S    
P2    O20   1.538636 S    
C60   C62   1.423427 A    
C72   C73   1.325085 D    
Ba1   Ba2   4.635497 S    
C84   H54   1.091980 S    
C13   C86   1.529034 S    
C12   H22   1.110293 S    
C17   C22   1.423652 A    
C21   C23   1.403783 A    
C24   C25   1.419917 A    
C61   C80   1.412183 A    
C60   C75   1.434373 A    
C22   C26   1.416915 A    
N10   O44   1.300998 A    
C70   C71   1.518263 S    
C3    N6    1.456323 S    
C24   C27   1.413434 A    
H1    C10   1.112513 S    
C28   C88   1.490826 S    
N4    O32   1.300770 A    
N1    C48   1.394996 Am   
O19   C13   1.411081 S    
P2    C72   1.835265 S    
C10   H17   1.111428 S    
C61   C62   1.418918 A    
P4    Ba2   3.429361 S    
C8    C84   1.516460 S    
C39   C40   1.396817 A    
P5    O19   1.764761 S    
P8    C27   1.882601 S    
C5    H9    1.111847 S    
C11   C12   1.521191 S    
C33   C46   1.440904 A    
C59   C72   1.315523 D    
N6    O35   1.300378 A    
P3    O8    1.741385 S    
O10   C8    1.383543 S    
C80   C81   1.392609 A    
C47   O25   1.220508 D    
C7    H11   1.112251 S    
C89   H69   1.108934 S    
C6    C7    1.542342 S    
P2    O7    1.540538 D    
C4    C5    1.549738 S    
O13   Ba2   2.947462 S    
C28   C29   1.412006 A    
C41   C43   1.396168 A    
C14   N8    1.473813 S    
C19   H29   1.083541 S    
C59   C71   1.509996 S    
N9    O41   1.301520 A    
C34   H32   1.079343 S    
C88   H65   1.101157 S    
C42   C44   1.409558 A    
Ba2   O20   2.771969 S    
O3    P6    1.732006 S    
N11   O46   1.301087 A    
C70   H38   1.084735 S    
C32   C33   1.428153 A    
C85   H56   1.110688 S    
C65   C66   1.402931 A    
C43   H35   1.078872 S    
C69   O26   1.221705 D    
C86   H58   1.102633 S    
C12   H20   1.110616 S    
O1    Ba1   2.855248 S    
P2    Ba1   3.394147 S    
C25   C26   1.427783 A    
C9    H15   1.110928 S    
C20   C21   1.405829 A    
C49   H41   1.075058 S    
C33   C34   1.414197 A    
C87   H62   1.111138 S    
P4    O15   1.770728 S    
C75   C76   1.414201 A    
P5    C50   1.888098 S    
N7    O37   1.302233 A    
C27   C28   1.418129 A    
C25   C30   1.433480 A    
C50   C58   1.500322 S    
C38   C41   1.402967 A    
C80   H43   1.079469 S    
C63   C64   1.403543 A    
N6    O36   1.300758 A    
C52   C53   1.521737 S    
C86   H59   1.105931 S    
