data_mof_unit_21833.cif
_audit_creation_date              2013-03-05T16:33:13-0500
_audit_creation_method            fapswitch 2.2
_symmetry_space_group_name_H-M    P1
_symmetry_Int_Tables_number       1
_space_group_crystal_system       triclinic
_cell_length_a                    27.769882
_cell_length_b                    10.82194
_cell_length_c                    9.637481
_cell_angle_alpha                 89.531839
_cell_angle_beta                  89.801807
_cell_angle_gamma                 90.023702
_cell_volume                      2896.18001504

loop_
_atom_site_label
_atom_site_type_symbol
_atom_site_description
_atom_site_fract_x
_atom_site_fract_y
_atom_site_fract_z
_atom_type_partial_charge
O1    O     O_R   0.500000 0.319640 0.618810 -0.537494
O2    O     O_R   0.500010 0.319680 0.381230 -0.599897
C1    C     C_R   0.500506 0.262900 0.500147 0.813170
O3    O     O_R   0.430260 0.500000 0.618780 -0.519473
O4    O     O_R   0.430270 0.500040 0.381190 -0.527649
C2    C     C_R   0.407615 0.500658 0.500176 0.809083
Cu1   Cu    Cu3+1 0.500000 0.499980 0.640670 0.988896
Cu2   Cu    Cu3+1 0.500000 0.500020 0.359330 0.984622
O5    O     O_R   0.499990 0.680320 0.618770 -0.588856
O6    O     O_R   0.500000 0.680360 0.381190 -0.540580
O7    O     O_R   0.569730 0.499960 0.618810 -0.594499
O8    O     O_R   0.569740 0.500000 0.381220 -0.550784
C3    C     C_R   0.499954 0.737453 0.498923 0.794796
C4    C     C_R   0.592208 0.501652 0.500069 0.852246
C5    C     C_R   0.178523 0.396335 0.493790 0.569625
O9    O     O_2   0.204487 0.291620 0.481541 -0.484834
N1    N     N_R   0.201982 0.507170 0.502190 -0.461589
C6    C     C_R   0.177394 0.615822 0.514128 0.570933
C7    C     C_R   0.279147 0.549925 0.383254 0.283235
C8    C     C_R   0.329586 0.546722 0.383683 -0.283230
C9    C     C_R   0.328772 0.462637 0.617486 -0.208103
C10   C     C_R   0.278660 0.465921 0.617966 -0.175670
C11   C     C_R   0.253647 0.508911 0.501310 0.328955
C12   C     C_R   0.101750 0.503741 0.503133 -0.114766
C13   C     C_R   0.127723 0.391623 0.496536 -0.122842
C14   C     C_R   0.102342 0.278732 0.495418 0.498492
C15   C     C_R   0.126957 0.616451 0.512799 0.003869
C16   C     C_R   0.354667 0.503358 0.500542 -0.082671
H1    H     H_    0.347142 0.426339 0.707793 0.211195
H2    H     H_    0.259087 0.433614 0.708632 0.156226
C17   C     C_R   0.644918 0.505957 0.501235 -0.211194
C18   C     C_R   0.974443 0.391479 0.469700 0.008986
C19   C     C_R   0.974171 0.613164 0.529958 0.058824
C20   C     C_R   0.949007 0.502114 0.500483 0.029343
C21   C     C_R   0.947814 0.287974 0.419520 0.239189
C22   C     C_R   0.897433 0.292555 0.416089 -0.193510
C23   C     C_R   0.872310 0.396791 0.460271 -0.084941
C24   C     C_R   0.897926 0.502368 0.500873 -0.052983
C25   C     C_R   0.872323 0.608848 0.540597 -0.020446
C26   C     C_R   0.821816 0.606387 0.542559 0.601461
N2    N     N_R   0.797605 0.502955 0.501363 -0.417623
C27   C     C_R   0.821743 0.399387 0.459773 0.601591
C28   C     C_R   0.720511 0.429173 0.596559 0.515840
C29   C     C_R   0.669892 0.432228 0.596738 -0.437841
C30   C     C_R   0.670364 0.584910 0.410159 0.390953
C31   C     C_R   0.720916 0.579434 0.405436 0.143318
C32   C     C_R   0.745837 0.503508 0.500683 0.182770
O10   O     O_2   0.796839 0.299595 0.417138 -0.558004
C33   C     C_R   0.025419 0.390507 0.486740 -0.018323
C34   C     C_R   0.050596 0.503435 0.501710 0.063451
C35   C     C_R   0.025068 0.615865 0.518318 0.064882
C36   C     C_R   0.051945 0.279959 0.497104 -0.267105
H3    H     H_    0.649707 0.377294 0.671088 0.174836
H4    H     H_    0.877819 0.214567 0.375113 0.195280
H5    H     H_    0.034211 0.192907 0.515160 0.199316
O11   O     O_2   0.201754 0.722828 0.528653 -0.552087
C37   C     C_R   0.101432 0.727413 0.521039 -0.150761
H6    H     H_    0.349040 0.578768 0.292940 0.205441
H7    H     H_    0.120014 0.815297 0.525954 0.184784
C38   C     C_R   0.947462 0.717908 0.571336 -0.210868
C39   C     C_R   0.897527 0.715270 0.577428 -0.151137
O12   O     O_2   0.797042 0.706457 0.585348 -0.551378
C40   C     C_R   0.051466 0.727405 0.523580 -0.215866
H8    H     H_    0.964266 0.802622 0.603898 0.138624
H9    H     H_    0.878721 0.797845 0.610052 0.182989
H10   H     H_    0.034436 0.816874 0.526385 0.134486
C41   C     C_R   0.518494 0.062303 0.612719 -0.023044
C42   C     C_R   0.503787 0.130064 0.497200 -0.115838
C43   C     C_R   0.495168 0.067732 0.372623 -0.264407
H11   H     H_    0.486138 0.118276 0.278696 0.160946
C44   C     C_R   0.493815 0.938895 0.369966 0.242100
C45   C     C_R   0.502887 0.871180 0.494178 -0.086816
C46   C     C_R   0.518566 0.935308 0.610918 -0.093385
C47   C     C_3   0.504594 0.924527 0.760569 -0.534813
C48   C     C_3   0.503802 0.066117 0.763469 0.964685
H12   H     H_    0.468604 0.881393 0.773615 0.181840
H13   H     H_    0.533509 0.882310 0.824691 0.174498
C49   C     C_R   0.541962 0.491302 0.072660 0.130175
N3    N     N_R   0.500300 0.500930 0.147930 -0.247829
C50   C     C_R   0.458185 0.493961 0.073633 0.456624
C51   C     C_R   0.458176 0.505598 0.927182 0.473905
N4    N     N_R   0.500310 0.500890 0.852020 -0.245071
C52   C     C_R   0.541958 0.489685 0.925957 0.181283
C53   C     C_3   0.583627 0.576509 0.918661 -0.492816
C54   C     C_3   0.583610 0.577793 0.075945 -0.380745
H14   H     H_    0.616266 0.532222 0.874209 0.211865
H15   H     H_    0.573999 0.667110 0.871095 0.203761
H16   H     H_    0.616122 0.532972 0.120418 0.233014
H17   H     H_    0.574060 0.669178 0.120260 0.229010
N5    N     N_2   0.253838 0.586801 0.261832 -0.427930
H18   H     H_    0.259117 0.526729 0.180667 0.252757
C55   C     C_3   0.260861 0.714262 0.219844 -0.643024
H19   H     H_    0.235582 0.737371 0.134511 0.230402
H20   H     H_    0.298251 0.729156 0.181790 0.202086
H21   H     H_    0.253536 0.777263 0.307762 0.274145
O13   O     O_3   0.646087 0.664726 0.322156 -0.591428
C56   C     C_3   0.634454 0.773004 0.395691 -0.319119
H22   H     H_    0.667422 0.820905 0.432708 0.165455
H23   H     H_    0.609952 0.753235 0.484689 0.149065
H24   H     H_    0.615272 0.837211 0.324587 0.189576
N6    N     N_2   0.747074 0.651140 0.306122 -0.397522
H25   H     H_    0.732064 0.736085 0.283867 0.286190
C57   C     C_3   0.759895 0.584584 0.181868 -0.622409
H26   H     H_    0.782145 0.644814 0.113324 0.228572
H27   H     H_    0.726893 0.557058 0.124876 0.232855
H28   H     H_    0.781247 0.500942 0.208056 0.240256
N7    N     N_2   0.480493 0.879926 0.244273 -0.408199
H29   H     H_    0.494755 0.921742 0.156732 0.243534
C58   C     C_3   0.429347 0.857592 0.231189 -0.662130
H30   H     H_    0.409476 0.946658 0.226135 0.205559
H31   H     H_    0.415774 0.801653 0.320288 0.238293
H32   H     H_    0.422476 0.805694 0.134512 0.209204
O14   O     O_3   0.456628 0.114766 0.777355 -0.579237
C59   C     C_3   0.440770 0.106555 0.916474 -0.293795
H33   H     H_    0.460176 0.174171 0.981981 0.183747
H34   H     H_    0.444737 0.011800 0.960246 0.141274
H35   H     H_    0.401899 0.129665 0.919910 0.170769
O15   O     O_3   0.537007 0.119901 0.859290 -0.595812
C60   C     C_3   0.585216 0.123850 0.811861 -0.393632
H36   H     H_    0.589252 0.191491 0.725189 0.169980
H37   H     H_    0.598315 0.031034 0.780823 0.160769
H38   H     H_    0.608348 0.155911 0.897986 0.197386
O16   O     O_3   0.414303 0.483604 0.139076 -0.562991
C61   C     C_3   0.399024 0.359418 0.133117 -0.293860
H39   H     H_    0.365577 0.349302 0.195383 0.185491
H40   H     H_    0.426236 0.295491 0.178659 0.151447
H41   H     H_    0.390225 0.332649 0.025107 0.170124
O17   O     O_3   0.414399 0.518091 0.862161 -0.556095
C62   C     C_3   0.398434 0.641295 0.875206 -0.283676
H42   H     H_    0.368341 0.656874 0.801798 0.187139
H43   H     H_    0.427131 0.709106 0.848398 0.139689
H44   H     H_    0.384298 0.658499 0.981180 0.170759
O18   O     O_3   0.126703 0.167382 0.507950 -0.533518
C63   C     C_3   0.118192 0.094501 0.389660 -0.238110
H45   H     H_    0.123095 0.148129 0.291366 0.157301
H46   H     H_    0.081756 0.052114 0.393765 0.139461
H47   H     H_    0.144754 0.017973 0.388620 0.199732
O19   O     O_3   0.746706 0.362545 0.694552 -0.559709
C64   C     C_3   0.728629 0.241317 0.711339 -0.252179
H48   H     H_    0.718058 0.198980 0.610881 0.170602
H49   H     H_    0.698021 0.240099 0.785810 0.137928
H50   H     H_    0.757484 0.182763 0.756373 0.196620
N8    N     N_2   0.971209 0.187558 0.352336 -0.444721
H51   H     H_    0.970228 0.194265 0.245601 0.262458
C65   C     C_3   0.959510 0.064838 0.403731 -0.736528
H52   H     H_    0.986263 0.997897 0.363205 0.229173
H53   H     H_    0.923249 0.036064 0.368147 0.236962
H54   H     H_    0.960836 0.061844 0.518965 0.235217

loop_
_geom_bond_atom_site_label_1
_geom_bond_atom_site_label_2
_geom_bond_distance
_ccdc_geom_bond_type
N6    H25   1.030786 S    
C44   N7    1.423753 S    
N2    C27   1.368307 A    
C7    C8    1.401140 A    
C12   C15   1.409978 A    
C4    C17   1.464540 S    
O17   C62   1.411704 S    
C56   H24   1.109576 S    
C63   H47   1.109349 S    
C51   N4    1.375174 A    
O16   C61   1.410835 S    
C30   C31   1.405679 A    
Cu1   O7    1.947096 S    
N1    C11   1.434839 S    
C47   H12   1.109215 S    
C22   C23   1.395328 A    
C1    C42   1.440977 S    
C53   H14   1.111653 S    
C62   H42   1.108843 S    
C58   H31   1.111288 S    
C65   H52   1.110109 S    
O4    C2    1.306122 A    
O7    C4    1.301637 A    
C37   H7    1.083303 S    
C5    O9    1.349176 S    
C56   H22   1.113125 S    
C26   O12   1.349850 S    
C28   O19   1.391049 S    
N8    C65   1.449977 S    
C46   C47   1.495869 S    
C23   C27   1.404565 A    
C43   C44   1.395202 A    
O5    C3    1.305643 A    
O15   C60   1.413667 S    
C65   H53   1.110138 S    
C29   H3    1.082152 S    
C2    C16   1.470641 S    
C21   C22   1.400488 A    
C42   C43   1.403169 A    
C47   H13   1.111083 S    
Cu2   N3    2.037296 S    
N7    H29   1.031869 S    
C53   H15   1.112059 S    
C48   O14   1.418348 S    
C36   H5    1.075462 S    
C6    O11   1.349394 S    
C62   H44   1.110066 S    
C40   H10   1.078226 S    
N6    C57   1.445995 S    
O1    Cu1   1.964677 S    
C9    C10   1.392057 A    
N7    C58   1.446737 S    
C48   O15   1.433909 S    
O3    Cu1   1.948856 S    
C49   C52   1.414103 A    
C56   H23   1.112317 S    
C37   C40   1.387701 A    
C60   H37   1.111386 S    
C12   C34   1.420674 A    
C25   C39   1.396424 A    
C31   N6    1.424281 S    
C17   C29   1.399156 A    
C41   C42   1.390708 A    
C18   C21   1.430395 A    
Cu1   Cu2   2.711404 S    
C35   C40   1.413333 A    
C12   C13   1.413550 A    
O3    C2    1.306484 A    
C47   C48   1.532924 S    
C58   H32   1.108896 S    
C25   C26   1.402858 A    
C54   H17   1.112268 S    
C49   N3    1.367885 A    
C50   C51   1.416002 A    
C63   H46   1.111216 S    
C8    C16   1.403854 A    
C34   C35   1.418326 A    
C13   C14   1.410325 A    
C9    H1    1.081517 S    
C55   H21   1.110180 S    
C38   C39   1.388020 A    
O1    C1    1.302480 A    
C18   C20   1.423203 A    
C7    C11   1.406728 A    
C28   C29   1.406079 A    
C23   C24   1.404682 A    
C14   C36   1.399626 A    
N5    C55   1.447265 S    
C52   C53   1.491406 S    
Cu2   O8    1.948850 S    
C33   C36   1.408225 A    
O13   C56   1.411380 S    
C55   H20   1.111243 S    
N1    C6    1.365407 A    
N2    C32   1.437666 S    
C57   H27   1.111869 S    
C27   O10   1.349800 S    
C53   C54   1.516005 S    
C61   H41   1.110777 S    
C41   C46   1.374585 A    
C49   C54   1.488158 S    
C26   N2    1.367866 A    
C9    C16   1.402695 A    
O8    C4    1.306465 A    
N4    C52   1.365455 A    
C19   C38   1.414247 A    
C51   O17   1.375821 S    
C15   C37   1.397354 A    
O18   C63   1.412082 S    
C41   C48   1.508588 S    
C8    H6    1.081012 S    
C65   H54   1.111512 S    
C64   H48   1.114699 S    
C61   H40   1.113589 S    
O14   C59   1.411876 S    
C54   H16   1.110739 S    
Cu1   O5    1.961292 S    
C31   C32   1.410403 A    
C10   H2    1.082941 S    
C20   C24   1.418498 A    
O2    Cu2   1.961294 S    
C6    C15   1.400751 A    
C45   C46   1.397462 A    
O6    C3    1.296386 A    
O4    Cu2   1.947099 S    
C59   H34   1.111285 S    
C60   H36   1.111489 S    
C59   H33   1.110860 S    
C63   H45   1.114810 S    
C3    C45   1.449785 S    
C19   C35   1.417726 A    
C38   H8    1.077989 S    
O2    C1    1.296078 A    
C44   C45   1.421754 A    
C7    N5    1.421582 S    
C58   H30   1.111647 S    
C64   H49   1.110582 S    
N5    H18   1.031310 S    
C24   C25   1.409229 A    
C64   H50   1.109204 S    
C55   H19   1.110149 S    
C60   H38   1.109128 S    
C19   C20   1.421115 A    
C57   H28   1.110106 S    
C43   H11   1.084011 S    
C18   C33   1.425695 A    
C59   H35   1.108573 S    
C22   H4    1.082346 S    
O19   C64   1.412348 S    
N3    C50   1.375799 A    
C39   H9    1.083504 S    
Cu1   N4    2.037035 S    
C5    C13   1.411751 A    
Cu2   O6    1.964676 S    
C33   C34   1.416341 A    
C17   C30   1.408112 A    
C57   H26   1.110312 S    
C14   O18   1.386800 S    
C10   C11   1.400010 A    
C5    N1    1.367816 A    
C30   O13   1.382881 S    
C28   C32   1.406563 A    
N8    H51   1.031073 S    
C21   N8    1.425253 S    
C61   H39   1.108949 S    
C62   H43   1.111475 S    
C50   O16   1.374305 S    
