data_mof_unit_15268.cif
_audit_creation_date              2012-12-10T18:09:51-0500
_audit_creation_method            fapswitch 2.2
_symmetry_space_group_name_H-M    P1
_symmetry_Int_Tables_number       1
_space_group_crystal_system       triclinic
_cell_length_a                    10.678319
_cell_length_b                    12.605961
_cell_length_c                    13.178338
_cell_angle_alpha                 81.481287
_cell_angle_beta                  90.748499
_cell_angle_gamma                 103.296325
_cell_volume                      1706.93635909

loop_
_atom_site_label
_atom_site_type_symbol
_atom_type_description
_atom_site_fract_x
_atom_site_fract_y
_atom_site_fract_z
_atom_type_partial_charge
C1    C     C_R   0.481626 0.438520 0.691871 0.858953
C2    C     C_R   0.564403 0.485206 0.955240 0.051577
C3    C     C_R   0.484464 0.480941 0.869429 -0.036020
C4    C     C_R   0.741945 0.500383 0.502866 0.944175
C5    C     C_R   0.552919 0.557434 0.025187 -0.012162
C6    C     C_R   0.496441 0.647919 0.991921 -0.011372
C7    C     C_R   0.427137 0.649797 0.900460 0.370159
C8    C     C_R   0.411371 0.561091 0.846208 -0.207015
C9    C     C_R   0.573210 0.529607 0.131075 0.456468
C10   C     C_R   0.526121 0.704151 0.159223 -0.268685
C11   C     C_R   0.490597 0.404093 0.802472 -0.098722
C12   C     C_3   0.120133 0.494378 0.501992 -0.034065
C13   C     C_R   0.354419 0.098993 0.326109 -0.325079
C14   C     C_R   0.662092 0.801433 0.621941 0.057715
C15   C     C_R   0.716370 0.910449 0.631377 -0.236062
C16   C     C_R   0.523368 0.561441 0.308719 0.888912
C17   C     C_R   0.666081 0.993207 0.575832 -0.126908
C18   C     C_R   0.555556 0.967006 0.516007 0.057613
C19   C     C_R   0.514979 0.856447 0.498916 0.247926
C20   C     C_R   0.489875 0.046329 0.466558 -0.092337
C21   C     C_R   0.408871 0.019237 0.383520 0.144030
C22   C     C_R   0.380548 0.912083 0.360406 -0.258737
C23   C     C_3   0.092363 0.576442 0.407837 0.319940
C24   C     C_R   0.428205 0.830838 0.420538 -0.219247
C25   C     C_R   0.493641 0.148856 0.499217 0.443563
C26   C     C_R   0.371467 0.202047 0.356635 -0.026095
C27   C     C_R   0.257615 0.497511 0.501798 0.854419
C28   C     C_3   0.896149 0.388040 0.481985 -0.468626
C29   C     C_3   0.033592 0.375345 0.500670 0.416723
C30   C     C_3   0.956971 0.596832 0.423288 0.171187
C31   C     C_3   0.936278 0.519903 0.610414 -0.487478
C32   C     C_3   0.879208 0.501847 0.503933 -0.034743
C33   C     C_3   0.692912 0.412491 0.217003 0.179872
C34   C     C_3   0.083508 0.532265 0.603423 -0.580508
C35   C     C_3   0.715245 0.297533 0.216399 -0.794295
C36   C     C_3   0.993959 0.206971 0.438038 0.098460
C37   C     C_3   0.059093 0.132610 0.387928 -0.794868
C38   C     C_3   0.179671 0.603095 0.241605 0.130702
C39   C     C_3   0.178983 0.549224 0.145682 -0.677327
C40   C     C_R   0.498261 0.727123 0.056364 -0.150422
C41   C     C_R   0.547457 0.600515 0.198803 -0.126330
C42   C     C_R   0.555158 0.320240 0.833731 -0.208355
C43   C     C_R   0.644600 0.332775 0.910966 -0.214979
C44   C     C_R   0.659788 0.423325 0.962610 0.434325
Cl1   Cl    Cl    0.345063 0.753977 0.857357 -0.613773
Cl2   Cl    Cl    0.818825 0.484098 0.992010 -0.664797
Cl3   Cl    Cl    0.558305 0.179912 0.616538 -0.674705
Cl4   Cl    Cl    0.878227 0.623819 0.304626 -0.682857
H1    H     H_    0.870794 0.380897 0.400802 0.224232
H2    H     H_    0.346198 0.558115 0.782430 0.183322
H3    H     H_    0.332128 0.265307 0.311796 0.194401
H4    H     H_    0.317013 0.889867 0.298242 0.151968
H5    H     H_    0.297563 0.081285 0.259347 0.175178
H6    H     H_    0.702999 0.736532 0.662094 0.144046
H7    H     H_    0.719883 0.076795 0.575690 0.172141
H8    H     H_    0.799728 0.930971 0.678483 0.163319
H9    H     H_    0.398913 0.749438 0.401705 0.198564
H10   H     H_    0.038814 0.328403 0.578920 0.066097
H11   H     H_    0.915594 0.595064 0.634867 0.215334
H12   H     H_    0.132711 0.620057 0.604884 0.237415
H13   H     H_    0.892594 0.448560 0.669391 0.219898
H14   H     H_    0.114989 0.482618 0.671856 0.204182
H15   H     H_    0.688655 0.424315 0.297604 0.190831
H16   H     H_    0.777301 0.474471 0.181749 0.234881
H17   H     H_    0.811736 0.293641 0.246698 0.219606
H18   H     H_    0.640983 0.235499 0.265194 0.241983
H19   H     H_    0.710418 0.277006 0.137271 0.275469
H20   H     H_    0.900497 0.206167 0.399851 0.140002
H21   H     H_    0.974181 0.169365 0.519970 0.117465
H22   H     H_    0.138798 0.113752 0.436652 0.254929
H23   H     H_    0.969264 0.675367 0.455577 0.115836
H24   H     H_    0.989248 0.053614 0.382009 0.214850
H25   H     H_    0.095187 0.172580 0.309685 0.260301
H26   H     H_    0.279835 0.623135 0.269405 0.096162
H27   H     H_    0.145554 0.680475 0.221285 0.178309
H28   H     H_    0.078646 0.521860 0.120321 0.299298
H29   H     H_    0.234736 0.609170 0.083008 0.219651
H30   H     H_    0.222902 0.476847 0.161764 0.237821
H31   H     H_    0.162486 0.657721 0.406697 0.016227
H32   H     H_    0.513118 0.761362 0.209762 0.177202
H33   H     H_    0.465511 0.801597 0.030931 0.207710
H34   H     H_    0.556227 0.257385 0.787355 0.242319
H35   H     H_    0.714014 0.281681 0.919718 0.181485
H36   H     H_    0.831449 0.318825 0.532353 0.175911
N1    N     N_R   0.433240 0.222190 0.444680 -0.125023
N2    N     N_R   0.566070 0.776970 0.554790 -0.129946
O1    O     O_R   0.468120 0.366740 0.627160 -0.551747
O2    O     O_3   0.071529 0.316626 0.426405 -0.539744
O3    O     O_3   0.097947 0.529215 0.316944 -0.541491
O4    O     O_R   0.510770 0.544830 0.662520 -0.620009
O5    O     O_R   0.663880 0.410950 0.482330 -0.617712
O6    O     O_R   0.706530 0.589040 0.517700 -0.616678
O7    O     O_R   0.489230 0.455170 0.337480 -0.596199
O8    O     O_R   0.531880 0.633260 0.372840 -0.628175
O9    O     O_R   0.293470 0.410960 0.482300 -0.553192
O10   O     O_R   0.336120 0.589050 0.517670 -0.661438
O11   O     O_3   0.576601 0.420496 0.167011 -0.631393
Zn1   Zn    Zn3+2 0.471520 0.381090 0.476390 1.013888
Zn2   Zn    Zn3+2 0.528480 0.618910 0.523610 0.950364

loop_
_geom_bond_atom_site_label_1
_geom_bond_atom_site_label_2
_ccdc_geom_bond_type
C1    O1    A    
C1    O4    A    
C12   C29   S    
C28   H36   S    
C43   H35   S    
C31   H13   S    
C27   O9    A    
C42   H34   S    
C19   N2    A    
C30   H23   S    
O9    Zn1   S    
C7    C8    A    
C36   O2    S    
C38   O3    S    
C16   O7    A    
C7    Cl1   S    
C30   Cl4   S    
C36   C37   S    
C33   H16   S    
C38   C39   S    
C20   C25   A    
C35   H17   S    
O10   Zn2   S    
C34   H14   S    
C11   C42   A    
C10   C40   A    
C18   C19   A    
C31   H11   S    
C29   O2    S    
N1    Zn1   S    
C2    C44   A    
C24   H9    S    
C1    C11   S    
C23   O3    S    
C17   H7    S    
C18   C20   A    
C4    O5    A    
C37   H22   S    
C10   C41   A    
C34   H12   S    
C27   O10   A    
C44   Cl2   S    
C13   H5    S    
C38   H27   S    
C12   C27   S    
C23   C30   S    
C28   C32   S    
C6    C40   A    
C14   N2    A    
C3    C8    A    
C10   H32   S    
C35   H18   S    
C43   C44   A    
C39   H30   S    
C5    C9    A    
C28   H1    S    
C31   C32   S    
C12   C23   S    
C35   H19   S    
C33   H15   S    
C25   N1    A    
C17   C18   A    
C31   C34   S    
C13   C21   A    
C39   H28   S    
C20   C21   A    
N2    Zn2   S    
C4    C32   S    
C14   H6    S    
C22   C24   A    
C13   C26   A    
C2    C5    A    
C42   C43   A    
C12   C34   S    
C8    H2    S    
O4    Zn2   S    
C36   H21   S    
C22   H4    S    
C38   H26   S    
C15   C17   A    
C37   H25   S    
C25   Cl3   S    
C28   C29   S    
C9    O11   S    
C16   O8    A    
C40   H33   S    
C36   H20   S    
C6    C7    A    
C9    C41   A    
C15   H8    S    
O1    Zn1   S    
C2    C3    A    
C26   H3    S    
C30   C32   S    
C5    C6    A    
O8    Zn2   S    
C26   N1    A    
C16   C41   S    
C33   C35   S    
C19   C24   A    
C33   O11   S    
O5    Zn1   S    
C3    C11   A    
C29   H10   S    
C39   H29   S    
C37   H24   S    
C14   C15   A    
C23   H31   S    
C21   C22   A    
O7    Zn1   S    
O6    Zn2   S    
C4    O6    A    
