data_mof_unit_68122.cif
_audit_creation_date              2013-03-05T15:58:26-0500
_audit_creation_method            fapswitch 2.2
_symmetry_space_group_name_H-M    P1
_symmetry_Int_Tables_number       1
_space_group_crystal_system       triclinic
_cell_length_a                    7.501428
_cell_length_b                    15.906756
_cell_length_c                    14.693295
_cell_angle_alpha                 89.89131
_cell_angle_beta                  90.411656
_cell_angle_gamma                 89.959606
_cell_volume                      1753.20483481

loop_
_atom_site_label
_atom_site_type_symbol
_atom_site_description
_atom_site_fract_x
_atom_site_fract_y
_atom_site_fract_z
_atom_type_partial_charge
O1    O     O_R   0.388780 0.834790 0.412340 -0.570914
O2    O     O_R   0.111220 0.165210 0.912340 -0.571217
O3    O     O_R   0.888780 0.665210 0.587660 -0.583919
O4    O     O_R   0.611220 0.334790 0.087660 -0.591302
O5    O     O_R   0.059040 0.845930 0.587040 -0.553012
O6    O     O_R   0.440960 0.154070 0.087040 -0.554821
O7    O     O_R   0.559040 0.654070 0.412960 -0.560841
O8    O     O_R   0.940960 0.345930 0.912960 -0.557885
C1    C     C_R   0.226927 0.864690 0.617130 0.904064
C2    C     C_R   0.273494 0.134783 0.116554 0.868240
C3    C     C_R   0.726757 0.634133 0.383352 0.852763
C4    C     C_R   0.771905 0.365959 0.883371 0.840137
O9    O     O_R   0.059070 0.845930 0.412970 -0.547491
O10   O     O_R   0.440930 0.154070 0.912970 -0.548575
O11   O     O_R   0.559070 0.654070 0.587030 -0.578814
O12   O     O_R   0.940930 0.345930 0.087030 -0.556687
O13   O     O_R   0.888760 0.665210 0.412340 -0.594586
O14   O     O_R   0.611240 0.334790 0.912340 -0.587852
O15   O     O_R   0.388760 0.834790 0.587660 -0.590107
O16   O     O_R   0.111240 0.165210 0.087660 -0.600631
C5    C     C_R   0.226315 0.867997 0.386050 0.850292
C6    C     C_R   0.273372 0.132051 0.886054 0.848088
C7    C     C_R   0.726564 0.637019 0.618983 0.905805
C8    C     C_R   0.774398 0.365348 0.116316 0.910077
O17   O     O_3   0.222280 0.690700 0.500000 -0.306408
O18   O     O_3   0.277720 0.309300 0.000000 -0.281372
O19   O     O_3   0.722280 0.809300 0.500000 -0.259711
O20   O     O_3   0.777720 0.190700 0.000000 -0.262806
V1    V     V_3+5 0.947430 0.761000 0.500000 1.243884
V2    V     V_3+5 0.552570 0.239000 0.000000 1.242896
V3    V     V_3+5 0.447430 0.739000 0.500000 1.229524
V4    V     V_3+5 0.052570 0.261000 0.000000 1.233640
C9    C     C_3   0.902250 0.574620 0.756862 -0.218835
C10   C     C_3   0.605970 0.425989 0.252142 -0.164627
C11   C     C_3   0.397488 0.931569 0.252527 -0.156033
C12   C     C_3   0.105106 0.069672 0.750350 -0.156469
H1    H     H_    0.018875 0.560130 0.714527 0.171384
H2    H     H_    0.496071 0.440096 0.205082 0.195964
H3    H     H_    0.504881 0.951346 0.297660 0.194488
H4    H     H_    0.996818 0.052176 0.794567 0.194923
C13   C     C_3   0.896549 0.508144 0.835083 -0.339950
C14   C     C_3   0.612123 0.489025 0.334032 -0.337331
C15   C     C_3   0.386080 0.990085 0.166967 -0.411615
C16   C     C_3   0.115050 0.009655 0.666112 -0.414987
H5    H     H_    0.858754 0.537338 0.901158 0.136444
H6    H     H_    0.662905 0.456252 0.396285 0.118299
H7    H     H_    0.328775 0.954506 0.108281 0.156029
H8    H     H_    0.173129 0.044122 0.607151 0.159577
H9    H     H_    0.032990 0.481987 0.844760 0.216441
H10   H     H_    0.481159 0.511913 0.355761 0.235162
H11   H     H_    0.514480 0.010843 0.139783 0.220678
H12   H     H_    0.985846 0.989340 0.638751 0.211022
H13   H     H_    0.828167 0.489084 0.584028 0.124170
H14   H     H_    0.650605 0.512139 0.083485 0.144964
H15   H     H_    0.338829 0.022480 0.423093 0.152361
H16   H     H_    0.159471 0.977444 0.922935 0.155104
C17   C     C_3   0.741967 0.482261 0.643996 -0.511041
C18   C     C_3   0.746799 0.521412 0.139439 -0.542721
C19   C     C_3   0.252060 0.028273 0.362500 -0.588721
C20   C     C_3   0.246694 0.971800 0.863115 -0.598074
C21   C     C_3   0.568450 0.564432 0.759803 -0.210189
C22   C     C_3   0.939193 0.444880 0.250114 -0.158021
C23   C     C_3   0.067297 0.947015 0.250343 -0.168490
C24   C     C_3   0.431711 0.052681 0.751088 -0.169564
C25   C     C_3   0.732690 0.567880 0.693402 -0.075306
C26   C     C_3   0.770223 0.436072 0.188112 -0.121757
C27   C     C_3   0.232270 0.940774 0.315484 -0.106017
C28   C     C_3   0.267656 0.059273 0.815560 -0.100749
H17   H     H_    0.584854 0.616199 0.809793 0.141858
H18   H     H_    0.950963 0.387053 0.292191 0.133414
H19   H     H_    0.066177 0.890528 0.205950 0.137933
H20   H     H_    0.429150 0.107703 0.704557 0.146912
C29   C     C_3   0.760065 0.438085 0.812076 -0.021826
C30   C     C_3   0.735856 0.562927 0.311004 -0.061873
C31   C     C_3   0.265497 0.065460 0.189694 -0.019089
C32   C     C_3   0.234801 0.933731 0.690613 -0.025980
C33   C     C_3   0.798571 0.409696 0.710649 0.505712
C34   C     C_3   0.699077 0.593294 0.209058 0.534697
C35   C     C_3   0.304848 0.098511 0.289863 0.509018
C36   C     C_3   0.194653 0.901085 0.790773 0.502710
C37   C     C_3   0.571374 0.480368 0.814709 -0.523660
C38   C     C_3   0.921028 0.523103 0.314690 -0.488438
C39   C     C_3   0.079648 0.027492 0.189264 -0.507283
C40   C     C_3   0.421599 0.970732 0.692668 -0.524262
H21   H     H_    0.532871 0.493932 0.886273 0.179335
H22   H     H_    0.957000 0.503693 0.385469 0.189761
H23   H     H_    0.039239 0.010899 0.118752 0.198826
H24   H     H_    0.465062 0.985132 0.622455 0.196259
H25   H     H_    0.471442 0.435296 0.786951 0.210537
H26   H     H_    0.013340 0.575259 0.296400 0.184904
H27   H     H_    0.989086 0.078839 0.212179 0.167715
H28   H     H_    0.511162 0.920127 0.719253 0.161071
H29   H     H_    0.611113 0.466003 0.613518 0.190793
H30   H     H_    0.869061 0.540111 0.102851 0.176359
H31   H     H_    0.123366 0.047045 0.393174 0.184135
H32   H     H_    0.376027 0.953672 0.894811 0.184281
H33   H     H_    0.715033 0.353596 0.695642 -0.002984
H34   H     H_    0.790720 0.646649 0.195192 -0.014120
H35   H     H_    0.212082 0.151886 0.301541 0.017039
H36   H     H_    0.288450 0.848113 0.803888 0.049188
C41   C     C_2   0.936955 0.659472 0.797860 1.051115
O21   O     O_2   0.840194 0.719301 0.781028 -0.666404
O22   O     O_R   0.083090 0.667949 0.856510 -0.806251
H37   H     H_    0.119084 0.728160 0.867125 0.339875
C42   C     C_2   0.562871 0.340250 0.287325 1.023263
O23   O     O_2   0.672252 0.283448 0.285663 -0.682565
O24   O     O_R   0.392150 0.327935 0.322417 -0.796633
H38   H     H_    0.367423 0.268885 0.342966 0.327316
C43   C     C_2   0.446403 0.844360 0.226698 1.049267
O25   O     O_2   0.343815 0.801027 0.182577 -0.707986
O26   O     O_R   0.610136 0.813563 0.257606 -0.779080
H39   H     H_    0.630420 0.753273 0.242538 0.317589
C44   C     C_2   0.063267 0.157868 0.723060 1.032201
O27   O     O_2   0.168567 0.199318 0.678824 -0.710837
O28   O     O_R   0.904737 0.192590 0.754697 -0.776716
H40   H     H_    0.903592 0.255221 0.751166 0.319939
O29   O     O_3   0.983414 0.388827 0.702770 -0.673657
C45   C     C_3   0.046906 0.372562 0.613093 0.298364
H41   H     H_    0.179739 0.342732 0.620750 0.197010
H42   H     H_    0.076756 0.431380 0.576324 0.094668
C46   C     C_3   0.928130 0.315970 0.553267 -0.415966
H43   H     H_    0.886458 0.260501 0.592601 0.245491
H44   H     H_    0.806474 0.350016 0.530678 0.188979
C47   C     C_3   0.027955 0.287196 0.468661 -0.949345
H45   H     H_    0.083149 0.342255 0.431941 0.285456
H46   H     H_    0.936041 0.253070 0.422210 0.279374
H47   H     H_    0.138745 0.244414 0.488160 0.274143
O30   O     O_3   0.519656 0.622345 0.201615 -0.691110
C48   C     C_3   0.449715 0.633942 0.111885 0.235408
H48   H     H_    0.318651 0.665193 0.118904 0.191165
H49   H     H_    0.410098 0.573614 0.080152 0.113812
C49   C     C_3   0.567655 0.687219 0.048563 -0.372749
H50   H     H_    0.618598 0.742540 0.085689 0.237408
H51   H     H_    0.683683 0.650372 0.024618 0.182842
C50   C     C_3   0.463043 0.717139 0.965323 -0.951460
H52   H     H_    0.402266 0.662483 0.930179 0.292661
H53   H     H_    0.553287 0.749791 0.917291 0.272746
H54   H     H_    0.356649 0.761605 0.985966 0.272676
O31   O     O_3   0.481053 0.133217 0.293087 -0.657662
C51   C     C_3   0.590839 0.114816 0.369788 0.267834
H55   H     H_    0.729293 0.132134 0.351110 0.147838
H56   H     H_    0.599060 0.047383 0.384444 0.130914
C52   C     C_3   0.545672 0.164096 0.456173 -0.433631
H57   H     H_    0.573867 0.231889 0.446738 0.239356
H58   H     H_    0.403335 0.156419 0.474210 0.204527
C53   C     C_3   0.662167 0.132922 0.534672 -0.886278
H59   H     H_    0.640633 0.065100 0.545915 0.276434
H60   H     H_    0.630560 0.168220 0.597571 0.280779
H61   H     H_    0.805247 0.140867 0.518327 0.267297
O32   O     O_3   0.020587 0.864099 0.793923 -0.646201
C54   C     C_3   0.902510 0.889170 0.864093 0.289431
H62   H     H_    0.765217 0.873970 0.840588 0.138738
H63   H     H_    0.901301 0.956811 0.874856 0.129890
C55   C     C_3   0.930467 0.844092 0.955426 -0.438122
H64   H     H_    0.893335 0.776945 0.949493 0.240741
H65   H     H_    0.071519 0.848467 0.978171 0.203862
C56   C     C_3   0.810065 0.882922 0.027450 -0.900105
H66   H     H_    0.832795 0.951517 0.032515 0.283913
H67   H     H_    0.837298 0.853193 0.094446 0.282253
H68   H     H_    0.667701 0.873389 0.009134 0.266905
C57   C     C_2   0.390241 0.578204 0.714570 1.077246
O33   O     O_2   0.313524 0.645168 0.725235 -0.646988
O34   O     O_R   0.324914 0.520328 0.651514 -0.837573
H69   H     H_    0.231671 0.546269 0.609921 0.316180
C58   C     C_2   0.115054 0.457867 0.205499 1.039697
O35   O     O_2   0.137681 0.464658 0.123564 -0.644916
O36   O     O_R   0.246686 0.481862 0.264724 -0.823028
H70   H     H_    0.291197 0.538743 0.245836 0.327424
C59   C     C_2   0.887352 0.952739 0.289820 1.062887
O37   O     O_2   0.857651 0.961078 0.370838 -0.647486
O38   O     O_R   0.757088 0.968741 0.226241 -0.837127
H71   H     H_    0.718251 0.029135 0.233209 0.295000
C60   C     C_2   0.612875 0.051543 0.789531 1.058893
O39   O     O_2   0.646870 0.042221 0.870223 -0.644185
O40   O     O_R   0.741620 0.040961 0.724890 -0.829372
H72   H     H_    0.775580 0.979561 0.724917 0.282710

loop_
_geom_bond_atom_site_label_1
_geom_bond_atom_site_label_2
_geom_bond_distance
_ccdc_geom_bond_type
O17   V3    1.855977 S    
C52   C53   1.524027 S    
C39   H23   1.109776 S    
O38   H71   1.009289 S    
O1    C5    1.380239 A    
C58   O35   1.221598 D    
H15   C19   1.102768 S    
O19   V1    1.854990 S    
O13   V1    2.043188 S    
C59   O37   1.220133 D    
O3    C7    1.379009 A    
O34   H69   1.012667 S    
C10   C14   1.568175 S    
C51   C52   1.532941 S    
O4    V2    2.043154 S    
C34   O30   1.426114 S    
O30   C48   1.427080 S    
C10   C26   1.563771 S    
C57   O33   1.221231 D    
C9    C25   1.575541 S    
C50   H52   1.108709 S    
C60   O39   1.219700 D    
C36   O32   1.433564 S    
C42   O24   1.397768 S    
O5    C1    1.365147 A    
C56   H66   1.107037 S    
C9    C41   1.501238 S    
C24   C28   1.562000 S    
O9    V1    2.042568 S    
C51   H56   1.095259 S    
C44   O27   1.219679 D    
C33   O29   1.431090 S    
C43   O26   1.394662 S    
H14   C18   1.100208 S    
O4    C8    1.380622 A    
C23   C59   1.475837 S    
C21   H17   1.110792 S    
O28   H40   0.997527 S    
O1    V3    2.039044 S    
C22   H18   1.110443 S    
O2    V4    2.046676 S    
C14   H6    1.116450 S    
C54   C55   1.533358 S    
C13   H9    1.112654 S    
O3    V1    2.043496 S    
C45   H41   1.108248 S    
C24   C40   1.563721 S    
C46   C47   1.526648 S    
C19   C27   1.561696 S    
C18   C26   1.542479 S    
C20   C36   1.595826 S    
O26   H39   0.996486 S    
C2    O16   1.373639 A    
C49   H50   1.103298 S    
C34   H34   1.112025 S    
O24   H38   1.003891 S    
C33   H33   1.112279 S    
O14   V2    2.043529 S    
C1    C32   1.542404 S    
C11   C15   1.564618 S    
C55   H65   1.109594 S    
C11   C43   1.485361 S    
O8    C4    1.374666 A    
C48   C49   1.541585 S    
C37   H25   1.113461 S    
C16   H12   1.095794 S    
O11   C7    1.364997 A    
C22   C38   1.572626 S    
O15   V3    2.046707 S    
O12   C8    1.359715 A    
C17   H29   1.106996 S    
C4    C29   1.554199 S    
C36   H36   1.113018 S    
C54   H63   1.087843 S    
C59   O38   1.370388 S    
C32   C40   1.520350 S    
C19   H31   1.109341 S    
C30   C38   1.526840 S    
C12   C44   1.490935 S    
C29   C37   1.567453 S    
C57   O34   1.394073 S    
C1    O15   1.376577 A    
O7    C3    1.371317 A    
C53   H60   1.109286 S    
C60   O40   1.369926 S    
C15   C31   1.539986 S    
C23   C27   1.562013 S    
C14   C30   1.537022 S    
O7    V3    2.044995 S    
C22   C26   1.562154 S    
O8    V4    2.034236 S    
C41   O21   1.220359 D    
C17   C33   1.568691 S    
C12   H4    1.080107 S    
C51   H55   1.110902 S    
C55   C56   1.527288 S    
C35   O31   1.433310 S    
C19   C35   1.595720 S    
O36   H70   1.003962 S    
H13   C17   1.101919 S    
O18   V4    1.855976 S    
C38   H22   1.115487 S    
C9    H1    1.101600 S    
H16   C20   1.103279 S    
C23   C39   1.565163 S    
C45   C46   1.539422 S    
C56   H67   1.108868 S    
C11   H3    1.086838 S    
O2    C6    1.383313 A    
C53   H61   1.108796 S    
C2    C31   1.539813 S    
O40   H72   1.009175 S    
C11   C27   1.558819 S    
C54   H62   1.110836 S    
C46   H43   1.100595 S    
O9    C5    1.364131 A    
C6    C28   1.555261 S    
C55   H64   1.107430 S    
C50   H54   1.110295 S    
C14   H10   1.097300 S    
C47   H47   1.109479 S    
C20   H32   1.110810 S    
C49   H51   1.108762 S    
O6    V2    2.042567 S    
C23   H19   1.111320 S    
C56   H68   1.110026 S    
C50   H53   1.109990 S    
C21   C57   1.504356 S    
C12   C16   1.566752 S    
C32   C36   1.590569 S    
O5    V1    2.038238 S    
C31   C39   1.519693 S    
C47   H46   1.109541 S    
C53   H59   1.103275 S    
O16   V4    2.039076 S    
C35   H35   1.111745 S    
C52   H58   1.108747 S    
C3    O13   1.377257 A    
C13   H5    1.115379 S    
C10   H2    1.095027 S    
C10   C42   1.494033 S    
C40   H24   1.107750 S    
C17   C25   1.546281 S    
C3    C30   1.556636 S    
O6    C2    1.366808 A    
O31   C51   1.420948 S    
C12   C28   1.553887 S    
O11   V3    2.034236 S    
C5    C27   1.553504 S    
C8    C26   1.544136 S    
O12   V4    2.044993 S    
C39   H27   1.116036 S    
C42   O23   1.220472 D    
C38   H26   1.114753 S    
C41   O22   1.396277 S    
C9    C13   1.561098 S    
C7    C25   1.549805 S    
O20   V2    1.854991 S    
C48   H48   1.106945 S    
O10   V2    2.038240 S    
C16   H8    1.115741 S    
C21   C37   1.560461 S    
C43   O25   1.217730 D    
O10   C6    1.361231 A    
C31   C35   1.589544 S    
C15   H11   1.096256 S    
C49   C50   1.523712 S    
C48   H49   1.107570 S    
C24   H20   1.109655 S    
C18   H30   1.107017 S    
C45   H42   1.103393 S    
C46   H44   1.109299 S    
C18   C34   1.578305 S    
C13   C29   1.549989 S    
C21   C25   1.577968 S    
C22   C58   1.491652 S    
C20   C28   1.564353 S    
C58   O36   1.366531 S    
C30   C34   1.595097 S    
C4    O14   1.373665 A    
O22   H37   1.007399 S    
C29   C33   1.586475 S    
O32   C54   1.421546 S    
C40   H28   1.116337 S    
C16   C32   1.545074 S    
C24   C60   1.468039 S    
O29   C45   1.428333 S    
C15   H7    1.116015 S    
C37   H21   1.113905 S    
C52   H57   1.107713 S    
C47   H45   1.109735 S    
C44   O28   1.394033 S    
