data_mof_unit_44423.cif
_audit_creation_date              2013-03-05T16:00:51-0500
_audit_creation_method            fapswitch 2.2
_symmetry_space_group_name_H-M    P1
_symmetry_Int_Tables_number       1
_space_group_crystal_system       triclinic
_cell_length_a                    8.359572
_cell_length_b                    12.970611
_cell_length_c                    18.632106
_cell_angle_alpha                 99.649529
_cell_angle_beta                  90.332025
_cell_angle_gamma                 99.12252
_cell_volume                      1965.39325656

loop_
_atom_site_label
_atom_site_type_symbol
_atom_site_description
_atom_site_fract_x
_atom_site_fract_y
_atom_site_fract_z
_atom_type_partial_charge
P1    P     P_3+3 0.041040 0.394770 0.336330 0.466627
O1    O     O_2   0.873090 0.425890 0.325140 -0.344616
O2    O     O_3   0.122420 0.434370 0.414380 -0.406215
O3    O     O_3   0.659500 0.627100 0.368810 -0.376253
O4    O     O_2   0.754088 0.520064 0.243465 -0.413794
O5    O     O_3   0.995521 0.256615 0.323767 -0.568062
O6    O     O_3   0.696115 0.702308 0.229108 -0.550093
H1    H     H_    0.694694 0.824738 0.313095 0.137674
C1    C     C_3   0.668122 0.874721 0.207342 -0.075714
H2    H     H_    0.798924 0.907705 0.210020 0.178995
P2    P     P_3+3 0.672880 0.754030 0.556100 0.499586
P3    P     P_3+3 0.138859 0.819091 0.398351 0.428561
O7    O     O_2   0.848200 0.768190 0.534530 -0.418539
O8    O     O_3   0.081160 0.685950 0.404810 -0.401080
O9    O     O_2   0.010242 0.877578 0.439581 -0.363973
O10   O     O_3   0.659666 0.797747 0.651269 -0.595837
O11   O     O_3   0.112931 0.833016 0.306784 -0.543608
C2    C     C_3   0.074638 0.731148 0.264099 0.366046
H3    H     H_    0.961561 0.689467 0.282954 0.189014
H4    H     H_    0.169887 0.682116 0.269083 0.035203
C3    C     C_3   0.048373 0.737463 0.183394 -0.560108
H5    H     H_    0.995255 0.657570 0.153697 0.206373
H6    H     H_    0.961273 0.791237 0.177567 0.261549
C4    C     C_3   0.227089 0.774930 0.608864 0.456345
H7    H     H_    0.326088 0.737032 0.582420 0.087913
H8    H     H_    0.116853 0.752331 0.573098 0.123744
C5    C     C_3   0.273673 0.894690 0.619256 -0.985005
H9    H     H_    0.204214 0.933559 0.662971 0.299180
H10   H     H_    0.405245 0.917543 0.632478 0.241016
H11   H     H_    0.244058 0.924088 0.569228 0.242074
Ba1   Ba    Ba6+2 0.852780 0.548340 0.465070 1.601105
C6    C     C_3   0.993329 0.223827 0.391791 0.312733
H12   H     H_    0.879919 0.239155 0.418568 0.119430
H13   H     H_    0.095337 0.264350 0.428422 0.134029
C7    C     C_3   0.006865 0.107713 0.381096 -0.177805
H14   H     H_    0.098154 0.088284 0.339984 0.178835
H15   H     H_    0.041295 0.085057 0.433015 0.169325
C8    C     C_3   0.799468 0.804124 0.695792 0.682482
H16   H     H_    0.893001 0.761768 0.668471 0.062056
C9    C     C_3   0.875025 0.919386 0.723186 -0.228062
H17   H     H_    0.782099 0.963142 0.749760 0.183073
H18   H     H_    0.924119 0.957896 0.677912 0.124087
P4    P     P_3+3 0.148670 0.605320 0.663680 0.534829
O12   O     O_2   0.316610 0.574140 0.674900 -0.321553
O13   O     O_3   0.067290 0.565720 0.585630 -0.363614
O14   O     O_3   0.530210 0.372990 0.631200 -0.284384
O15   O     O_3   0.198373 0.743641 0.676615 -0.523448
P5    P     P_3+3 0.061321 0.176348 0.598049 0.452194
O16   O     O_3   0.611340 0.366290 0.463630 -0.312198
O17   O     O_3   0.108550 0.314140 0.595200 -0.350950
O18   O     O_2   0.195629 0.123199 0.557230 -0.400140
O19   O     O_3   0.087954 0.158007 0.688212 -0.539824
Ba2   Ba    Ba6+2 0.337060 0.451750 0.534940 1.647064
P6    P     P_3+3 0.632947 0.593538 0.272370 0.416620
C10   C     C_3   0.632514 0.793343 0.259409 0.353574
H19   H     H_    0.601240 0.942167 0.222853 0.152699
O20   O     O_3   0.578370 0.633800 0.536380 -0.317302
C11   C     C_3   0.463546 0.255305 0.311856 0.401455
H20   H     H_    0.334273 0.260294 0.322925 0.051777
H21   H     H_    0.538746 0.335115 0.326334 0.108670
C12   C     C_3   0.480763 0.214863 0.230865 -0.618911
H22   H     H_    0.419731 0.130952 0.216637 0.227543
H23   H     H_    0.611738 0.217659 0.219509 0.231760
P7    P     P_3+3 0.522533 0.229645 0.444165 0.488999
O21   O     O_2   0.341510 0.231850 0.465510 -0.421888
O22   O     O_3   0.516843 0.182524 0.350419 -0.555806
C13   C     C_3   0.087874 0.255217 0.734907 0.365542
H24   H     H_    0.188328 0.315019 0.721928 0.172037
H25   H     H_    0.972005 0.285367 0.729174 0.002003
C14   C     C_3   0.116016 0.242045 0.814035 -0.533729
H26   H     H_    0.163941 0.320422 0.847190 0.178916
H27   H     H_    0.208601 0.190206 0.816993 0.288461
P8    P     P_3+3 0.548339 0.393512 0.727072 0.502470
C15   C     C_3   0.563164 0.196825 0.722255 0.245026
H28   H     H_    0.695033 0.220505 0.735333 0.036171
O23   O     O_2   0.423231 0.464229 0.755908 -0.394496
O24   O     O_3   0.475554 0.274127 0.755821 -0.539311
H29   H     H_    0.541004 0.182293 0.662219 0.083255
C16   C     C_3   0.504379 0.094088 0.749839 -0.081652
H30   H     H_    0.566316 0.030841 0.720920 0.088827
H31   H     H_    0.371964 0.071209 0.738971 0.202817
C17   C     C_R   0.993581 0.434876 0.046953 0.040107
C18   C     C_R   0.899252 0.380905 0.096121 -0.179158
C19   C     C_R   0.767464 0.407707 0.954974 -0.182130
C20   C     C_R   0.931773 0.443455 0.976899 0.058493
C21   C     C_R   0.709547 0.413458 0.885933 -0.109522
C22   C     C_R   0.811914 0.455688 0.835202 -0.081310
C23   C     C_R   0.974876 0.499671 0.856976 0.020570
C24   C     C_R   0.035359 0.492928 0.927919 0.054050
C25   C     C_R   0.753912 0.459674 0.764466 0.123666
C26   C     C_R   0.854617 0.514222 0.718819 0.075991
C27   C     C_R   0.018707 0.552920 0.736444 0.107999
C28   C     C_R   0.077109 0.550901 0.808150 -0.105217
C29   C     C_R   0.156919 0.478472 0.068197 0.041631
C30   C     C_R   0.215694 0.477445 0.140325 -0.015137
C31   C     C_R   0.111264 0.434054 0.191069 -0.063864
C32   C     C_R   0.957763 0.379466 0.165969 -0.051100
H32   H     H_    0.581970 0.386070 0.873693 0.190027
H33   H     H_    0.879550 0.335375 0.199997 0.166898
C33   C     C_R   0.231183 0.603362 0.834173 0.045593
C34   C     C_R   0.292060 0.594345 0.902226 -0.156328
C35   C     C_R   0.198980 0.535708 0.949246 0.009520
C36   C     C_R   0.261968 0.523540 0.018176 0.051333
C37   C     C_R   0.428391 0.551957 0.038263 -0.163002
C38   C     C_R   0.379323 0.519001 0.161670 -0.035108
C39   C     C_R   0.485653 0.548848 0.108185 -0.094908
C40   C     C_R   0.430718 0.528113 0.235662 0.237498
C41   C     C_R   0.322285 0.494200 0.285964 -0.520571
C42   C     C_R   0.165519 0.445224 0.264811 0.223470
H34   H     H_    0.307205 0.652844 0.802510 0.192711
H35   H     H_    0.614547 0.570415 0.119457 0.200982
H36   H     H_    0.362717 0.503373 0.342331 0.175743
H37   H     H_    0.678405 0.376165 0.990492 0.141128
H38   H     H_    0.779267 0.337468 0.082166 0.132178
H39   H     H_    0.411781 0.637534 0.917715 0.169740
H40   H     H_    0.518334 0.575558 0.000351 0.159331
C43   C     C_R   0.751272 0.178769 0.537501 -0.087481
C44   C     C_R   0.439060 0.806051 0.464295 -0.485720
C45   C     C_R   0.404093 0.981812 0.446619 -0.160715
C46   C     C_R   0.345952 0.873180 0.437820 0.183884
C47   C     C_R   0.584451 0.846211 0.504743 0.296525
C48   C     C_R   0.645429 0.957984 0.513724 -0.023595
C49   C     C_R   0.551849 0.026316 0.485017 -0.030149
C50   C     C_R   0.609229 0.137624 0.495489 0.247383
C51   C     C_R   0.853611 0.113718 0.558814 0.147111
C52   C     C_R   0.799311 0.003681 0.547729 -0.264910
H41   H     H_    0.329372 0.031083 0.425313 0.166995
H42   H     H_    0.881177 0.955006 0.563302 0.184786
H43   H     H_    0.391877 0.722226 0.457531 0.157976
Br1   Br    Br    0.798869 0.031308 0.350029 -0.603305
Br2   Br    Br    0.721921 0.745977 0.781958 -0.431341
Br3   Br    Br    0.051784 0.930892 0.794418 -0.419383
N1    N     N_3   0.457963 0.772087 0.269362 -0.215361
H44   H     H_    0.418069 0.844823 0.284292 0.105247
H45   H     H_    0.437134 0.736001 0.315185 0.081751
N2    N     N_3   0.410626 0.279727 0.186426 -0.214194
H46   H     H_    0.284569 0.258388 0.185874 0.147421
H47   H     H_    0.445508 0.259025 0.132810 0.162514
Br4   Br    Br    0.609119 0.815265 0.106323 -0.503856
N3    N     N_3   0.198069 0.774466 0.149112 -0.155511
H48   H     H_    0.251384 0.848025 0.178272 0.195168
H49   H     H_    0.277358 0.720245 0.150701 0.182257
N4    N     N_3   0.967228 0.196922 0.845600 -0.143099
H50   H     H_    0.913511 0.129016 0.810291 0.214786
H51   H     H_    0.886439 0.250937 0.848797 0.158571
Br5   Br    Br    0.547096 0.108967 0.853776 -0.464121
Br6   Br    Br    0.754364 0.557799 0.640065 -0.311479
Br7   Br    Br    0.809080 0.326459 0.565039 -0.431249

loop_
_geom_bond_atom_site_label_1
_geom_bond_atom_site_label_2
_geom_bond_distance
_ccdc_geom_bond_type
O5    C6    1.402155 S    
C22   C23   1.419666 A    
C33   H34   1.079724 S    
C34   C35   1.412457 A    
C17   C29   1.419413 A    
C24   C35   1.419794 A    
C5    H10   1.107838 S    
C2    C3    1.535971 S    
C1    Br4   1.939769 S    
C30   C31   1.415949 A    
C4    C5    1.519403 S    
O6    C10   1.405244 S    
O8    Ba1   2.776231 S    
C37   C39   1.394464 A    
C49   C50   1.427382 A    
C35   C36   1.427622 A    
C38   C40   1.421817 A    
C14   N4    1.458938 S    
C19   H37   1.076791 S    
P6    C40   1.839293 S    
C43   Br7   1.881626 S    
C7    H15   1.106284 S    
C43   C50   1.398475 A    
C4    H8    1.104972 S    
P8    C25   1.869007 S    
C2    H3    1.102137 S    
C8    H16   1.104263 S    
P2    O7    1.513093 D    
C11   H21   1.112492 S    
N4    H50   1.042657 S    
P1    Ba1   3.410887 S    
C41   C42   1.386501 A    
O14   Ba2   2.823321 S    
P1    O1    1.543408 D    
C12   H23   1.112445 S    
C33   C34   1.393375 A    
C30   C38   1.416972 A    
P1    C42   1.838273 S    
P5    C51   1.883667 S    
P3    C46   1.859368 S    
O12   Ba2   2.837790 S    
C11   O22   1.401068 S    
P5    O18   1.547197 D    
C7    H14   1.111617 S    
C15   O24   1.400269 S    
P3    O11   1.761181 S    
C52   H42   1.071104 S    
C40   C41   1.383902 A    
C14   H26   1.110426 S    
C1    C10   1.546235 S    
Ba2   O21   2.933831 S    
C1    H2    1.106809 S    
C15   H29   1.112187 S    
C11   C12   1.527791 S    
P5    O17   1.777989 S    
C9    Br3   1.951423 S    
P2    Ba1   3.470019 S    
O16   P7    1.785535 S    
C37   H40   1.078750 S    
C3    H5    1.111841 S    
C5    H11   1.105423 S    
C18   H38   1.076925 S    
P2    C47   1.883414 S    
Ba1   O16   2.849042 S    
H1    C10   1.107644 S    
C26   Br6   1.894471 S    
C32   H33   1.079033 S    
P4    Ba2   3.411494 S    
C16   Br5   1.939056 S    
C39   H35   1.079567 S    
N3    H48   1.045338 S    
O17   Ba2   2.776871 S    
C15   H28   1.110570 S    
C13   H24   1.106357 S    
C6    C7    1.508128 S    
O4    P6    1.537561 D    
C19   C20   1.412997 A    
N2    H47   1.045651 S    
C26   C27   1.400926 A    
C16   H31   1.107913 S    
Ba2   O20   2.848414 S    
C21   C22   1.400030 A    
C11   H20   1.111237 S    
P7    C50   1.874359 S    
Ba1   Ba2   4.663435 S    
C41   H36   1.082881 S    
O1    Ba1   2.837471 S    
P1    O2    1.571227 S    
C44   C47   1.404827 A    
C6    H13   1.095504 S    
C48   C52   1.424927 A    
P4    O12   1.543760 D    
P2    O10   1.778498 S    
C7    Br1   1.894756 S    
P3    O9    1.547406 D    
C31   C32   1.400208 A    
O11   C2    1.411180 S    
C29   C30   1.431106 A    
C1    H19   1.110696 S    
C4    H7    1.105356 S    
O2    Ba1   2.961643 S    
P4    O13   1.571227 S    
C28   C33   1.400463 A    
C47   C48   1.439793 A    
O19   C13   1.406868 S    
C9    H17   1.104878 S    
P3    O8    1.742305 S    
C29   C36   1.418046 A    
C15   C16   1.518622 S    
C3    H6    1.101786 S    
Ba1   O13   2.822696 S    
C51   C52   1.407267 A    
C34   H39   1.078615 S    
P8    O23   1.539251 D    
C5    H9    1.102435 S    
C38   C39   1.401268 A    
N4    H51   1.042609 S    
C23   C28   1.425173 A    
C20   C24   1.422581 A    
P1    O5    1.747230 S    
O3    P6    1.780459 S    
C4    O15   1.400081 S    
O7    Ba1   2.933586 S    
N3    H49   1.043722 S    
N2    H46   1.045753 S    
C45   C46   1.397474 A    
C45   C49   1.412770 A    
C17   C20   1.429036 A    
C31   C42   1.421165 A    
P4    C27   1.890022 S    
O6    P6    1.751835 S    
C13   C14   1.533392 S    
C8    Br2   1.956911 S    
Ba1   O20   2.933277 S    
C44   H43   1.082170 S    
C10   N1    1.460242 S    
C6    H12   1.104203 S    
C8    C9    1.528264 S    
O2    Ba2   2.823368 S    
C25   C26   1.397778 A    
N1    H44   1.044756 S    
P4    O15   1.751297 S    
O16   Ba2   2.932359 S    
P7    O21   1.570310 D    
C9    H18   1.099897 S    
C27   C28   1.425566 A    
C2    H4    1.107522 S    
C12   H22   1.113896 S    
C21   H32   1.079578 S    
C44   C46   1.400617 A    
O3    Ba1   2.823999 S    
O13   Ba2   2.962558 S    
C16   H30   1.105038 S    
P5    O19   1.753492 S    
C23   C24   1.433710 A    
C17   C18   1.414011 A    
C18   C32   1.391738 A    
C22   C25   1.413566 A    
O10   C8    1.412764 S    
C36   C37   1.412993 A    
N1    H45   1.043153 S    
P8    O24   1.743007 S    
C19   C21   1.389673 A    
C14   H27   1.109553 S    
C3    N3    1.458061 S    
C13   H25   1.111527 S    
C48   C49   1.434407 A    
P2    O20   1.613994 S    
C43   C51   1.392408 A    
O14   P8    1.763333 S    
C12   N2    1.456523 S    
P7    O22   1.748897 S    
C45   H41   1.079324 S    
