data_mof_unit_41653.cif
_audit_creation_date              2012-12-10T16:48:45-0500
_audit_creation_method            fapswitch 2.2
_symmetry_space_group_name_H-M    P1
_symmetry_Int_Tables_number       1
_space_group_crystal_system       triclinic
_cell_length_a                    7.843133
_cell_length_b                    8.581299
_cell_length_c                    10.126572
_cell_angle_alpha                 88.340636
_cell_angle_beta                  98.905649
_cell_angle_gamma                 93.50009
_cell_volume                      671.957543328

loop_
_atom_site_label
_atom_site_type_symbol
_atom_type_description
_atom_site_fract_x
_atom_site_fract_y
_atom_site_fract_z
_atom_type_partial_charge
C1    C     C_R   0.544058 0.794574 0.495399 0.972900
C2    C     C_2   0.431762 0.041907 0.503065 -0.318330
C3    C     C_2   0.598418 0.354604 0.052722 0.500672
C4    C     C_2   0.615268 0.780422 0.046550 0.627969
C5    C     C_2   0.976605 0.301099 0.456045 0.704012
C6    C     C_2   0.027115 0.700866 0.536400 0.759087
C7    C     C_R   0.455401 0.205489 0.502843 0.966877
C8    C     C_R   0.576410 0.514875 0.738968 0.876629
C9    C     C_R   0.426199 0.502583 0.258489 0.788245
C10   C     C_2   0.637818 0.628524 0.846529 0.256781
C11   C     C_2   0.381944 0.523640 0.111421 0.149222
C12   C     C_2   0.576092 0.637191 0.963928 -0.053592
C13   C     C_2   0.499976 0.498430 0.031118 -0.255052
C14   C     C_2   0.567272 0.958195 0.493400 -0.302124
Cl1   Cl    Cl    0.214112 0.648953 0.054292 -0.473728
Cl2   Cl    Cl    0.795039 0.771996 0.806266 -0.451929
H1    H     H_    0.695638 0.009177 0.484965 0.190841
H2    H     H_    0.303374 0.990956 0.511215 0.197443
H3    H     H_    0.550504 0.256473 0.109378 0.097558
H4    H     H_    0.635230 0.769834 0.154851 0.022063
H5    H     H_    0.029811 0.234409 0.543908 0.037698
H6    H     H_    0.961192 0.759811 0.448645 0.003139
N1    N     N_2   0.940600 0.458860 0.467170 -0.185100
N2    N     N_2   0.059400 0.541140 0.532830 -0.180600
O1    O     O_R   0.391630 0.738350 0.508060 -0.612241
O2    O     O_2   0.616445 0.910924 0.995155 -0.490233
O3    O     O_2   0.937104 0.236324 0.349107 -0.577184
O4    O     O_2   0.088121 0.776842 0.634156 -0.523023
O5    O     O_R   0.608370 0.261650 0.491940 -0.614351
O6    O     O_R   0.674540 0.711990 0.487010 -0.649404
O7    O     O_R   0.325460 0.288010 0.512990 -0.646889
O8    O     O_R   0.411370 0.508250 0.688780 -0.584182
O9    O     O_R   0.588630 0.491750 0.311220 -0.627464
O10   O     O_R   0.694270 0.481880 0.667740 -0.570260
O11   O     O_R   0.305730 0.518120 0.332260 -0.564699
O12   O     O_2   0.733387 0.344373 0.008369 -0.494868
Zn1   Zn    Zn3+2 0.311100 0.517600 0.514050 1.023330
Zn2   Zn    Zn3+2 0.688900 0.482400 0.485950 1.000786

loop_
_geom_bond_atom_site_label_1
_geom_bond_atom_site_label_2
_ccdc_geom_bond_type
O5    Zn2   S    
C4    O2    D    
N1    N2    D    
C1    O1    A    
C3    H3    S    
C7    O5    A    
C2    H2    S    
N1    Zn2   S    
C9    C11   S    
C2    C7    S    
C5    N1    S    
C6    N2    S    
C6    H6    S    
N2    Zn1   S    
C10   Cl2   S    
O8    Zn1   S    
C9    O9    A    
C11   C13   D    
C14   H1    S    
C10   C12   D    
C3    O12   D    
C1    O6    A    
O11   Zn1   S    
C7    O7    A    
C2    C14   D    
C4    C12   S    
C4    H4    S    
C5    H5    S    
C12   C13   S    
O6    Zn2   S    
C8    C10   S    
C9    O11   A    
C3    C13   S    
O10   Zn2   S    
O9    Zn2   S    
C8    O10   A    
C1    C14   S    
O1    Zn1   S    
C5    O3    D    
C11   Cl1   S    
C6    O4    D    
O7    Zn1   S    
C8    O8    A    
