data_mof_unit_47628.cif
_audit_creation_date              2012-12-11T15:19:55-0500
_audit_creation_method            fapswitch 2.2
_symmetry_space_group_name_H-M    P1
_symmetry_Int_Tables_number       1
_space_group_crystal_system       triclinic
_cell_length_a                    16.773571
_cell_length_b                    16.773583
_cell_length_c                    42.533219
_cell_angle_alpha                 89.998768
_cell_angle_beta                  89.997499
_cell_angle_gamma                 120.76413
_cell_volume                      10282.8730986

loop_
_atom_site_label
_atom_site_type_symbol
_atom_type_description
_atom_site_fract_x
_atom_site_fract_y
_atom_site_fract_z
_atom_type_partial_charge
C1    C     C_R   0.584149 0.426948 0.794686 0.552507
C2    C     C_R   0.426958 0.584154 0.205314 0.552491
C3    C     C_R   0.018076 0.616854 0.429993 0.473250
C4    C     C_R   0.566170 0.955458 0.061774 0.456487
C5    C     C_R   0.368426 0.392183 0.433417 0.456069
C6    C     C_R   0.616874 0.018147 0.569989 0.473250
C7    C     C_R   0.955447 0.566306 0.938215 0.456503
C8    C     C_R   0.392250 0.368358 0.566581 0.456137
C9    C     C_R   0.616725 0.017935 0.929974 0.473083
C10   C     C_R   0.955638 0.566204 0.561793 0.456545
C11   C     C_R   0.392051 0.368448 0.933410 0.456090
C12   C     C_R   0.896990 0.459015 0.077701 0.433327
C13   C     C_R   0.415619 0.841597 0.294727 0.572632
C14   C     C_R   0.402006 0.870397 0.447443 0.399644
C15   C     C_R   0.528015 0.512920 0.065297 0.427760
C16   C     C_R   0.896891 0.459034 0.422297 0.433288
C17   C     C_R   0.401988 0.870383 0.052559 0.399729
C18   C     C_R   0.528109 0.512996 0.434693 0.427835
C19   C     C_R   0.459064 0.896948 0.577701 0.433266
C20   C     C_R   0.870644 0.402126 0.947435 0.399721
C21   C     C_R   0.513007 0.528065 0.565299 0.427802
C22   C     C_R   0.458882 0.896797 0.922289 0.433371
C23   C     C_R   0.870437 0.402031 0.552560 0.399682
C24   C     C_R   0.158118 0.573668 0.205155 0.550652
C25   C     C_R   0.513029 0.528063 0.934691 0.427797
C26   C     C_R   0.884045 0.446201 0.045173 0.041813
C27   C     C_R   0.417262 0.872360 0.479875 0.030479
C28   C     C_R   0.526063 0.515368 0.032631 0.037408
C29   C     C_R   0.883927 0.446207 0.454825 0.041911
C30   C     C_R   0.417188 0.872311 0.020123 0.030559
C31   C     C_R   0.526136 0.515432 0.467359 0.037470
C32   C     C_R   0.446229 0.883961 0.545175 0.041875
C33   C     C_R   0.872540 0.417318 0.979870 0.030491
C34   C     C_R   0.515454 0.526094 0.532632 0.037451
C35   C     C_R   0.066013 0.501383 0.121653 0.308177
C36   C     C_R   0.446069 0.883852 0.954817 0.042155
C37   C     C_R   0.872374 0.417267 0.520127 0.030489
C38   C     C_R   0.515453 0.526080 0.967357 0.037431
C39   C     C_R   0.936140 0.522285 0.024761 -0.057417
C40   C     C_R   0.508399 0.926786 0.491810 -0.072102
C41   C     C_R   0.447066 0.446459 0.016559 -0.062709
C42   C     C_R   0.936114 0.522251 0.475240 -0.057365
C43   C     C_R   0.508318 0.926645 0.008170 -0.072089
C44   C     C_R   0.447198 0.446422 0.483431 -0.062665
C45   C     C_R   0.522261 0.936150 0.524752 -0.057389
C46   C     C_R   0.500432 0.973223 0.371969 0.332421
C47   C     C_R   0.926789 0.508456 0.991819 -0.072093
C48   C     C_R   0.446474 0.447138 0.516563 -0.062678
C49   C     C_R   0.522140 0.935998 0.975226 -0.057267
C50   C     C_R   0.926762 0.508401 0.508182 -0.072102
C51   C     C_R   0.446362 0.447188 0.983427 -0.062681
C52   C     C_R   0.040414 0.688777 0.016655 0.107618
C53   C     C_R   0.675355 0.029952 0.483595 0.096612
C54   C     C_R   0.297187 0.301870 0.016687 0.102250
C55   C     C_R   0.040546 0.688710 0.483348 0.107624
C56   C     C_R   0.675297 0.029690 0.016356 0.096532
C57   C     C_R   0.468047 0.584489 0.118201 0.327062
C58   C     C_R   0.297498 0.301639 0.483299 0.102246
C59   C     C_R   0.688713 0.040595 0.516630 0.107569
C60   C     C_R   0.029748 0.675439 0.983619 0.096521
C61   C     C_R   0.301754 0.297380 0.516698 0.102248
C62   C     C_R   0.688620 0.040341 0.983319 0.107559
C63   C     C_R   0.029903 0.675360 0.516384 0.096587
C64   C     C_R   0.301443 0.297612 0.983288 0.102261
C65   C     C_R   0.824209 0.357797 0.032694 -0.127197
C66   C     C_R   0.342979 0.820471 0.500533 -0.107309
C67   C     C_R   0.598172 0.589414 0.016020 -0.146524
C68   C     C_R   0.065886 0.501245 0.378334 0.308236
C69   C     C_R   0.823968 0.357824 0.467300 -0.126918
C70   C     C_R   0.342857 0.820486 0.999479 -0.107171
C71   C     C_R   0.598156 0.589548 0.483970 -0.146553
C72   C     C_R   0.357848 0.823973 0.532708 -0.126976
C73   C     C_R   0.820772 0.342972 0.000517 -0.107459
C74   C     C_R   0.589556 0.598135 0.516020 -0.146550
C75   C     C_R   0.357682 0.823951 0.967300 -0.126907
C76   C     C_R   0.820496 0.342968 0.499477 -0.107279
C77   C     C_R   0.589623 0.598033 0.983970 -0.146526
C78   C     C_3   0.035835 0.371845 0.093913 0.004182
C79   C     C_R   0.500690 0.973135 0.128018 0.332356
C80   C     C_3   0.051816 0.339103 0.062461 -0.310599
C81   C     C_3   0.501680 0.097900 0.393541 0.000567
C82   C     C_3   0.563983 0.193847 0.407505 -0.324530
C83   C     C_3   0.525754 0.704510 0.081100 0.001501
C84   C     C_3   0.504076 0.714760 0.047102 -0.359554
C85   C     C_3   0.035578 0.371591 0.406024 0.004043
C86   C     C_3   0.052148 0.338687 0.437346 -0.310466
C87   C     C_3   0.502482 0.098090 0.106443 0.000497
C88   C     C_3   0.565026 0.193684 0.092264 -0.324610
C89   C     C_3   0.525673 0.704505 0.418883 0.001415
C90   C     C_R   0.468062 0.584455 0.381796 0.327115
C91   C     C_3   0.503982 0.714779 0.452878 -0.359624
C92   C     C_3   0.371678 0.035666 0.593955 0.004104
C93   C     C_3   0.338827 0.052006 0.562584 -0.310507
C94   C     C_3   0.098467 0.503393 0.893492 0.000408
C95   C     C_3   0.193705 0.566174 0.907874 -0.324705
C96   C     C_3   0.704518 0.525653 0.581105 0.001446
C97   C     C_3   0.714775 0.503946 0.547111 -0.359602
C98   C     C_3   0.371218 0.035309 0.905916 0.003954
C99   C     C_3   0.338111 0.052416 0.937106 -0.310333
C100  C     C_3   0.098050 0.502149 0.606457 0.000537
C101  C     C_R   0.501299 0.065963 0.621660 0.308214
C102  C     C_3   0.193800 0.564588 0.592371 -0.324588
C103  C     C_3   0.704329 0.525219 0.918920 0.001526
C104  C     C_3   0.714478 0.503393 0.952910 -0.359590
C105  C     C_R   0.841602 0.415623 0.705272 0.572616
C106  C     C_R   0.973195 0.501036 0.871953 0.332348
C107  C     C_R   0.584481 0.468037 0.618201 0.327091
C108  C     C_R   0.501026 0.065704 0.878308 0.308223
C109  C     C_R   0.973210 0.500594 0.628028 0.332392
C110  C     C_R   0.584367 0.467859 0.881807 0.327103
C111  C     C_R   0.115070 0.511797 0.149694 0.074150
C112  C     C_R   0.489274 0.956757 0.339255 0.083815
C113  C     C_R   0.481706 0.618137 0.149263 0.074084
C114  C     C_R   0.114983 0.511698 0.350296 0.074195
C115  C     C_R   0.489504 0.956694 0.160734 0.083793
C116  C     C_R   0.573664 0.158120 0.794847 0.550655
C117  C     C_R   0.481705 0.618115 0.350735 0.073990
C118  C     C_R   0.511724 0.115025 0.649702 0.074199
C119  C     C_R   0.956717 0.489802 0.839240 0.083786
C120  C     C_R   0.618134 0.481691 0.649262 0.074028
C121  C     C_R   0.511562 0.114871 0.850279 0.074129
C122  C     C_R   0.956744 0.489417 0.660743 0.083806
C123  C     C_R   0.618068 0.481532 0.850751 0.074127
C124  C     C_R   0.041665 0.589657 0.173697 -0.167012
C125  C     C_R   0.387107 0.792309 0.349405 -0.142462
C126  C     C_R   0.412306 0.460193 0.168997 -0.156699
C127  C     C_R   0.584154 0.426956 0.705314 0.552463
C128  C     C_R   0.041694 0.589693 0.326309 -0.167014
C129  C     C_R   0.386952 0.792306 0.150598 -0.142457
C130  C     C_R   0.412308 0.460178 0.331000 -0.156681
C131  C     C_R   0.589716 0.041724 0.673682 -0.167022
C132  C     C_R   0.792428 0.386775 0.849410 -0.142447
C133  C     C_R   0.460196 0.412322 0.668999 -0.156693
C134  C     C_R   0.589723 0.041720 0.826313 -0.167050
C135  C     C_R   0.792335 0.387027 0.650597 -0.142461
C136  C     C_R   0.460180 0.412354 0.830992 -0.156728
C137  C     C_R   0.995026 0.581681 0.145562 -0.094912
C138  C     C_R   0.841606 0.415626 0.794726 0.572609
C139  C     C_R   0.401745 0.807507 0.381471 -0.093705
C140  C     C_R   0.416804 0.429944 0.138757 -0.090480
C141  C     C_R   0.995044 0.581705 0.354444 -0.094917
C142  C     C_R   0.401621 0.807464 0.118530 -0.093543
C143  C     C_R   0.416851 0.429929 0.361236 -0.090516
C144  C     C_R   0.581735 0.995091 0.645546 -0.094929
C145  C     C_R   0.807603 0.401494 0.881474 -0.093655
C146  C     C_R   0.429952 0.416846 0.638761 -0.090494
C147  C     C_R   0.581687 0.995034 0.854442 -0.094936
C148  C     C_R   0.807522 0.401686 0.618531 -0.093643
C149  C     C_R   0.573670 0.158122 0.705153 0.550663
C150  C     C_R   0.429914 0.416885 0.861227 -0.090461
C151  C     C_R   0.008043 0.539001 0.119417 0.225770
C152  C     C_R   0.459024 0.897352 0.393274 0.188235
C153  C     C_R   0.442203 0.491027 0.113178 0.246942
C154  C     C_R   0.007988 0.538942 0.380579 0.225776
C155  C     C_R   0.459081 0.897267 0.106718 0.188188
C156  C     C_R   0.442264 0.491003 0.386815 0.246919
C157  C     C_R   0.538986 0.008057 0.619412 0.225776
C158  C     C_R   0.897374 0.459208 0.893270 0.188073
C159  C     C_R   0.491031 0.442237 0.613181 0.246929
C160  C     C_R   0.426953 0.584151 0.294686 0.552463
C161  C     C_R   0.538801 0.007874 0.880564 0.225809
C162  C     C_R   0.897348 0.459074 0.606724 0.188188
C163  C     C_R   0.490946 0.442187 0.886815 0.246891
C164  C     C_R   0.865766 0.432684 0.828097 -0.003665
C165  C     C_R   0.555600 0.102535 0.676111 -0.022824
C166  C     C_R   0.554200 0.443977 0.825425 -0.001687
C167  C     C_R   0.865738 0.432673 0.671899 -0.003643
C168  C     C_R   0.555559 0.102490 0.823882 -0.022900
C169  C     C_R   0.554225 0.444019 0.674578 -0.001717
C170  C     C_R   0.432663 0.865730 0.328100 -0.003632
C171  C     C_R   0.415622 0.841597 0.205271 0.572628
C172  C     C_R   0.102527 0.555601 0.176114 -0.022808
C173  C     C_R   0.444012 0.554209 0.325421 -0.001711
C174  C     C_R   0.432663 0.865712 0.171896 -0.003660
C175  C     C_R   0.102510 0.555583 0.323885 -0.022801
C176  C     C_R   0.444025 0.554225 0.174578 -0.001730
C177  C     C_R   0.997708 0.611110 0.037327 0.008785
C178  C     C_R   0.584461 0.972366 0.470949 -0.008919
C179  C     C_R   0.370043 0.377811 0.033549 0.001800
C180  C     C_R   0.997772 0.611057 0.462677 0.008812
C181  C     C_R   0.584415 0.972145 0.029016 -0.009019
C182  C     C_R   0.158119 0.573666 0.294846 0.550673
C183  C     C_R   0.370254 0.377682 0.466440 0.001802
C184  C     C_R   0.611067 0.997827 0.537307 0.008801
C185  C     C_R   0.972208 0.584554 0.970969 -0.009053
C186  C     C_R   0.377760 0.370171 0.533556 0.001801
C187  C     C_R   0.610946 0.997616 0.962655 0.008785
C188  C     C_R   0.972316 0.584474 0.529036 -0.008969
C189  C     C_R   0.377555 0.370299 0.966432 0.001831
C190  C     C_R   0.018009 0.616912 0.070011 0.473235
C191  C     C_R   0.566175 0.955717 0.438192 0.456584
C192  C     C_R   0.368248 0.392305 0.066574 0.456218
Cr1   Cr    Cr6+3 0.530290 0.262330 0.750000 1.074038
Cr2   Cr    Cr6+3 0.732040 0.469710 0.750000 1.114396
Cr3   Cr    Cr6+3 0.737670 0.267960 0.750000 1.050702
Cr4   Cr    Cr6+3 0.262330 0.530290 0.250000 1.074008
Cr5   Cr    Cr6+3 0.469710 0.732040 0.250000 1.114357
Cr6   Cr    Cr6+3 0.267960 0.737670 0.250000 1.050756
H1    H     H_    0.776634 0.272987 0.991814 0.186588
H2    H     H_    0.272881 0.776289 0.008184 0.186467
H3    H     H_    0.782966 0.298880 0.452098 0.176398
H4    H     H_    0.658149 0.644165 0.028095 0.169735
H5    H     H_    0.722097 0.341940 0.841041 0.150043
H6    H     H_    0.624620 0.031982 0.693438 0.144351
H7    H     H_    0.410572 0.384994 0.811883 0.143418
H8    H     H_    0.721962 0.342438 0.658975 0.150049
H9    H     H_    0.624717 0.032061 0.806566 0.144388
H10   H     H_    0.410558 0.384883 0.688101 0.143456
H11   H     H_    0.342604 0.721922 0.341028 0.150072
H12   H     H_    0.298912 0.782968 0.547916 0.176298
H13   H     H_    0.031884 0.624509 0.193461 0.144329
H14   H     H_    0.384856 0.410544 0.311900 0.143468
H15   H     H_    0.342305 0.721951 0.158981 0.150052
H16   H     H_    0.031967 0.624605 0.306552 0.144342
H17   H     H_    0.384858 0.410552 0.188097 0.143462
H18   H     H_    0.748553 0.369129 0.897186 0.200599
H19   H     H_    0.611169 0.950937 0.643766 0.159424
H20   H     H_    0.358130 0.396611 0.864969 0.161698
H21   H     H_    0.748453 0.369532 0.602824 0.200740
H22   H     H_    0.611185 0.950937 0.856227 0.159461
H23   H     H_    0.644506 0.657921 0.971896 0.169723
H24   H     H_    0.358149 0.396482 0.635009 0.161606
H25   H     H_    0.369661 0.748434 0.397179 0.200709
H26   H     H_    0.950822 0.611061 0.143792 0.159438
H27   H     H_    0.396489 0.358125 0.364986 0.161615
H28   H     H_    0.369412 0.748387 0.102827 0.200791
H29   H     H_    0.950894 0.611145 0.356221 0.159431
H30   H     H_    0.396409 0.358134 0.135002 0.161583
H31   H     H_    0.960277 0.343673 0.096640 0.182897
H32   H     H_    0.058242 0.342040 0.112846 0.180515
H33   H     H_    0.127043 0.366109 0.059005 0.210348
H34   H     H_    0.776250 0.272993 0.508176 0.186555
H35   H     H_    0.014254 0.262140 0.061871 0.167001
H36   H     H_    0.025987 0.364275 0.043054 0.166319
H37   H     H_    0.452364 0.053104 0.412172 0.154012
H38   H     H_    0.461899 0.104062 0.373670 0.150019
H39   H     H_    0.613378 0.241121 0.389433 0.205152
H40   H     H_    0.521155 0.222673 0.415926 0.111426
H41   H     H_    0.603728 0.189401 0.427644 0.171461
H42   H     H_    0.588883 0.698943 0.081940 0.188078
H43   H     H_    0.540586 0.769180 0.093094 0.187720
H44   H     H_    0.447712 0.730840 0.046366 0.164309
H45   H     H_    0.298715 0.782994 0.952102 0.175898
H46   H     H_    0.566700 0.771704 0.035488 0.123686
H47   H     H_    0.480005 0.649380 0.033986 0.174880
H48   H     H_    0.057527 0.341799 0.386944 0.180055
H49   H     H_    0.959986 0.343526 0.403506 0.183095
H50   H     H_    0.026736 0.363810 0.456896 0.166486
H51   H     H_    0.014542 0.261719 0.437895 0.166935
H52   H     H_    0.127432 0.365628 0.440601 0.210789
H53   H     H_    0.463236 0.104914 0.126356 0.150196
H54   H     H_    0.452708 0.053175 0.087935 0.153798
H55   H     H_    0.604195 0.188542 0.072070 0.171206
H56   H     H_    0.644359 0.658077 0.528093 0.169699
H57   H     H_    0.522446 0.222816 0.083870 0.111410
H58   H     H_    0.614929 0.241070 0.110200 0.205591
H59   H     H_    0.540425 0.769129 0.406874 0.187484
H60   H     H_    0.588850 0.699022 0.418048 0.188151
H61   H     H_    0.479995 0.649437 0.466010 0.174926
H62   H     H_    0.566575 0.771795 0.464479 0.123608
H63   H     H_    0.447552 0.730765 0.453608 0.164381
H64   H     H_    0.341855 0.057756 0.612981 0.180230
H65   H     H_    0.343609 0.960091 0.596549 0.183012
H66   H     H_    0.363986 0.026457 0.543087 0.166413
H67   H     H_    0.273002 0.776202 0.491840 0.186535
H68   H     H_    0.261860 0.014398 0.562021 0.166972
H69   H     H_    0.365768 0.127266 0.559254 0.210626
H70   H     H_    0.105946 0.464704 0.873536 0.150402
H71   H     H_    0.053464 0.453153 0.911883 0.153608
H72   H     H_    0.187869 0.604728 0.928128 0.170846
H73   H     H_    0.223171 0.523851 0.916225 0.111426
H74   H     H_    0.241169 0.616606 0.890071 0.206139
H75   H     H_    0.769157 0.540434 0.593108 0.187574
H76   H     H_    0.699013 0.588817 0.581937 0.188119
H77   H     H_    0.649423 0.479939 0.533986 0.174901
H78   H     H_    0.783290 0.298818 0.047895 0.176311
H79   H     H_    0.771775 0.566537 0.535502 0.123621
H80   H     H_    0.730774 0.447524 0.546385 0.164380
H81   H     H_    0.343205 0.959687 0.903581 0.183339
H82   H     H_    0.341512 0.056884 0.886694 0.179617
H83   H     H_    0.365009 0.127751 0.940182 0.211254
H84   H     H_    0.261138 0.014792 0.937598 0.166898
H85   H     H_    0.363131 0.027366 0.956796 0.166677
H86   H     H_    0.053187 0.452574 0.587897 0.153889
H87   H     H_    0.104582 0.462668 0.626353 0.150113
H88   H     H_    0.241136 0.614272 0.610365 0.205404
H89   H     H_    0.658085 0.644372 0.471895 0.169688
H90   H     H_    0.222800 0.521900 0.583967 0.111420
H91   H     H_    0.188963 0.604006 0.572200 0.171278
H92   H     H_    0.698948 0.588455 0.918102 0.188112
H93   H     H_    0.768952 0.539925 0.906921 0.187615
H94   H     H_    0.730369 0.446894 0.953627 0.164435
H95   H     H_    0.771512 0.565916 0.964536 0.123578
H96   H     H_    0.649116 0.479452 0.966026 0.174890
I1    I     I_    0.111552 0.794432 0.953843 -0.251444
I2    I     I_    0.794340 0.111452 0.046111 -0.250966
I3    I     I_    0.112289 0.828937 0.465399 -0.145424
I4    I     I_    0.184625 0.186333 0.041059 -0.183025
I5    I     I_    0.218188 0.474423 0.148699 -0.275220
I6    I     I_    0.557896 0.069361 0.307333 -0.214073
I7    I     I_    0.574321 0.763403 0.157043 -0.275392
I8    I     I_    0.218070 0.474271 0.351294 -0.275283
I9    I     I_    0.558445 0.069261 0.192647 -0.213939
I10   I     I_    0.574404 0.763369 0.342949 -0.275585
I11   I     I_    0.474244 0.218072 0.648717 -0.275176
I12   I     I_    0.828943 0.112309 0.534573 -0.145461
I13   I     I_    0.069175 0.559099 0.807301 -0.213892
I14   I     I_    0.763393 0.574349 0.657042 -0.275485
I15   I     I_    0.474113 0.217950 0.851281 -0.275270
I16   I     I_    0.069314 0.558221 0.692663 -0.214049
I17   I     I_    0.763352 0.574091 0.842995 -0.275273
I18   I     I_    0.185665 0.185375 0.958902 -0.183114
I19   I     I_    0.111726 0.794366 0.546149 -0.251144
I20   I     I_    0.828829 0.112009 0.965353 -0.144951
I21   I     I_    0.186127 0.184936 0.541076 -0.183196
I22   I     I_    0.794377 0.111736 0.453825 -0.251125
I23   I     I_    0.112115 0.829003 0.034598 -0.145248
I24   I     I_    0.185134 0.185960 0.458919 -0.183277
N1    N     N_R   0.969583 0.540429 0.089258 -0.366844
N2    N     N_R   0.540254 0.969452 0.910729 -0.366788
N3    N     N_R   0.910190 0.476135 0.573125 -0.399326
N4    N     N_R   0.461093 0.446608 0.918328 -0.368329
N5    N     N_R   0.476098 0.910205 0.426871 -0.399336
N6    N     N_R   0.446518 0.461162 0.081659 -0.368373
N7    N     N_R   0.969563 0.540402 0.410743 -0.366893
N8    N     N_R   0.476113 0.910081 0.073116 -0.399307
N9    N     N_R   0.446635 0.461144 0.418332 -0.368359
N10   N     N_R   0.540434 0.969632 0.589247 -0.366883
N11   N     N_R   0.910201 0.476252 0.926872 -0.399273
N12   N     N_R   0.461176 0.446587 0.581663 -0.368365
O1    O     O_R   0.509640 0.171340 0.784000 -0.469827
O2    O     O_R   0.171340 0.509640 0.216000 -0.469829
O3    O     O_R   0.490360 0.661700 0.284000 -0.471491
O4    O     O_R   0.338300 0.828660 0.216000 -0.490183
O5    O     O_R   0.539230 0.345420 0.781810 -0.483435
O6    O     O_R   0.806190 0.460770 0.718190 -0.462570
O7    O     O_R   0.654580 0.193810 0.781810 -0.500070
O8    O     O_R   0.539230 0.345420 0.718190 -0.483456
O9    O     O_R   0.806190 0.460770 0.781810 -0.462509
O10   O     O_R   0.654580 0.193810 0.718190 -0.500038
O11   O     O_R   0.345420 0.539230 0.281810 -0.483457
O12   O     O_R   0.661700 0.490360 0.716000 -0.471507
O13   O     O_R   0.460770 0.806190 0.218190 -0.462561
O14   O     O_R   0.193810 0.654580 0.281810 -0.500026
O15   O     O_R   0.345420 0.539230 0.218190 -0.483445
O16   O     O_R   0.460770 0.806190 0.281810 -0.462603
O17   O     O_R   0.193810 0.654580 0.218190 -0.500044
O18   O     O_3   0.666667 0.333333 0.750000 -0.270535
O19   O     O_3   0.333333 0.666667 0.250000 -0.270547
O20   O     O_2   0.081839 0.687887 0.081208 -0.436278
O21   O     O_2   0.629679 0.978374 0.419690 -0.418875
O22   O     O_2   0.297007 0.347345 0.081624 -0.469210
O23   O     O_R   0.828660 0.338300 0.784000 -0.490249
O24   O     O_2   0.081983 0.687788 0.418800 -0.436236
O25   O     O_2   0.629685 0.977945 0.080254 -0.418922
O26   O     O_2   0.297200 0.347135 0.418369 -0.469488
O27   O     O_2   0.687806 0.082072 0.581174 -0.436217
O28   O     O_2   0.977730 0.629806 0.919742 -0.418863
O29   O     O_2   0.347222 0.297132 0.581632 -0.469368
O30   O     O_2   0.687663 0.081830 0.918777 -0.436440
O31   O     O_2   0.978198 0.629711 0.580284 -0.418876
O32   O     O_2   0.346923 0.297241 0.918360 -0.469732
O33   O     O_2   0.846768 0.396554 0.095773 -0.523570
O34   O     O_R   0.509640 0.171340 0.716000 -0.469832
O35   O     O_2   0.322581 0.832628 0.437396 -0.471373
O36   O     O_2   0.601081 0.559977 0.079409 -0.526583
O37   O     O_2   0.846612 0.396617 0.404222 -0.523272
O38   O     O_2   0.322582 0.832747 0.062620 -0.471424
O39   O     O_2   0.601164 0.560139 0.420582 -0.526574
O40   O     O_2   0.396653 0.846679 0.595782 -0.523433
O41   O     O_2   0.833158 0.322725 0.937380 -0.471504
O42   O     O_2   0.560123 0.601125 0.579407 -0.526570
O43   O     O_2   0.396457 0.846512 0.904217 -0.524041
O44   O     O_2   0.832739 0.322613 0.562612 -0.471345
O45   O     O_R   0.661700 0.490360 0.784000 -0.471497
O46   O     O_2   0.560256 0.601104 0.920582 -0.526520
O47   O     O_3   0.087013 0.469920 0.094574 -0.533906
O48   O     O_3   0.557352 0.062704 0.382820 -0.490650
O49   O     O_3   0.446680 0.627871 0.094548 -0.553444
O50   O     O_3   0.086799 0.469667 0.405403 -0.533927
O51   O     O_3   0.557868 0.062560 0.117158 -0.490545
O52   O     O_3   0.446642 0.627786 0.405453 -0.553459
O53   O     O_3   0.469753 0.086911 0.594591 -0.533905
O54   O     O_3   0.062580 0.558484 0.882796 -0.490465
O55   O     O_3   0.627824 0.446618 0.594548 -0.553445
O56   O     O_R   0.828660 0.338300 0.716000 -0.490202
O57   O     O_3   0.469299 0.086507 0.905365 -0.534013
O58   O     O_3   0.062664 0.557660 0.617174 -0.490582
O59   O     O_3   0.627585 0.446282 0.905458 -0.553362
O60   O     O_R   0.171340 0.509640 0.284000 -0.469849
O61   O     O_R   0.490360 0.661700 0.216000 -0.471497
O62   O     O_R   0.338300 0.828660 0.284000 -0.490163

loop_
_geom_bond_atom_site_label_1
_geom_bond_atom_site_label_2
_ccdc_geom_bond_type
C141  H29   S    
C2    O15   A    
C104  H94   S    
C46   C112  A    
C29   C42   A    
C55   C180  A    
Cr4   O19   S    
Cr1   O1    S    
C171  O13   A    
C11   O32   D    
C182  O14   A    
C150  C163  A    
C161  N2    S    
C115  C174  A    
C98   H81   S    
C136  H7    S    
C141  C154  A    
C139  H25   S    
C25   O46   D    
C139  C152  A    
C114  I8    S    
C111  C172  A    
C32   C45   A    
C91   H62   S    
C66   C72   A    
C42   C180  A    
C132  H5    S    
C20   O41   D    
C105  O56   A    
C94   O54   S    
Cr5   O3    S    
Cr6   O17   S    
C23   N3    Am   
C58   C61   A    
C134  H9    S    
C65   H78   S    
C17   C30   A    
C9    O30   D    
C19   C32   A    
C29   C69   A    
C8    O29   D    
Cr3   O56   S    
C90   C117  A    
C80   H36   S    
C124  C137  A    
C116  O1    A    
Cr5   O61   S    
C4    O25   D    
C93   H68   S    
C104  H95   S    
C23   C37   A    
C94   H71   S    
C6    C184  A    
C58   C183  A    
C127  O12   A    
C110  C123  A    
Cr1   O34   S    
C103  H93   S    
C124  C172  A    
C62   I20   S    
C68   O50   S    
C4    N8    Am   
C84   H46   S    
C6    N10   Am   
C131  H6    S    
C97   H77   S    
C74   H56   S    
C135  H8    S    
C20   C33   A    
C99   H83   S    
C33   C73   A    
C3    N7    Am   
C33   C47   A    
C56   C62   A    
C30   C43   A    
C34   C48   A    
C106  O54   S    
C107  C120  A    
C85   O50   S    
C39   C47   A    
C117  C173  A    
C121  C168  A    
C128  C175  A    
C70   H2    S    
C122  C167  A    
C43   C49   A    
C10   O31   D    
C138  O23   A    
C88   H55   S    
C124  H13   S    
C22   C36   A    
C83   O49   S    
C148  C162  A    
C17   N8    Am   
C27   C66   A    
C37   C50   A    
C15   O36   D    
C19   N10   Am   
C1    O5    A    
C89   O52   S    
C148  H21   S    
C79   C155  A    
C182  O60   A    
C105  O6    A    
C98   C99   S    
C116  C168  S    
C18   C31   A    
C41   C51   A    
C44   C48   A    
C45   C184  A    
C128  H16   S    
C118  I11   S    
C79   C115  A    
C96   H76   S    
C160  C173  S    
C67   C77   A    
C50   C188  A    
C95   H74   S    
C85   C86   S    
C78   H31   S    
C87   H53   S    
C137  H26   S    
Cr1   O8    S    
C119  I13   S    
C101  C118  A    
Cr3   O18   S    
C78   C80   S    
C120  C169  A    
C149  O34   A    
C145  H18   S    
C24   O17   A    
C69   C76   A    
C10   N3    Am   
C102  H90   S    
C154  N7    S    
C97   H79   S    
C52   C177  A    
C52   C60   A    
C16   N7    Am   
C55   C63   A    
C76   H34   S    
C12   O33   D    
C10   C188  A    
C81   H37   S    
Cr1   O5    S    
C4    C181  A    
C89   C91   S    
C84   H44   S    
C54   I4    S    
C91   H63   S    
C81   O48   S    
C56   I2    S    
C86   H51   S    
C31   C71   A    
C103  O59   S    
C5    N9    Am   
C143  H27   S    
C192  N6    Am   
C88   H57   S    
C150  H20   S    
C140  H30   S    
C22   N2    Am   
C191  O21   D    
C138  O9    A    
C149  C165  S    
C125  H11   S    
C110  O59   S    
C57   C113  A    
C38   C51   A    
C152  N5    S    
C8    C186  A    
C43   C181  A    
C12   C26   A    
C63   I19   S    
C22   O43   D    
C3    C180  A    
C36   C75   A    
C25   C38   A    
C9    N2    Am   
C83   C84   S    
Cr5   O13   S    
C27   C40   A    
C82   H41   S    
Cr4   O11   S    
C44   C183  A    
C66   H67   S    
C42   C50   A    
C102  H91   S    
C52   I23   S    
C84   H47   S    
C134  C168  A    
Cr6   O4    S    
C90   C156  A    
C192  O22   D    
C95   H72   S    
C6    O27   D    
C83   H42   S    
C159  N12   S    
Cr2   O18   S    
C177  C190  A    
C7    C185  A    
C89   H60   S    
C119  C164  A    
C129  C142  A    
C127  C169  S    
C108  C161  A    
C118  C165  A    
C149  O10   A    
C102  H88   S    
C98   H82   S    
C54   C64   A    
C1    C166  S    
C117  I10   S    
Cr3   O7    S    
Cr2   O45   S    
C190  O20   D    
C129  H15   S    
C24   C172  S    
C91   H61   S    
C131  C144  A    
C131  C165  A    
C121  I15   S    
C70   C75   A    
C85   H49   S    
C12   N1    Am   
C135  C167  A    
C24   O2    A    
C123  I17   S    
C144  C157  A    
C21   N12   Am   
Cr2   O12   S    
C87   C88   S    
C60   C185  A    
C106  C119  A    
Cr4   O2    S    
Cr2   O6    S    
C108  C121  A    
C109  O58   S    
C8    N12   Am   
C64   C189  A    
C126  C176  A    
C32   C72   A    
C133  H10   S    
Cr6   O62   S    
C134  C147  A    
C112  I6    S    
C109  C162  A    
C146  H24   S    
C13   O62   A    
C26   C39   A    
C60   I1    S    
C56   C181  A    
C104  H96   S    
C82   H39   S    
C28   C41   A    
C87   O51   S    
C54   C179  A    
C18   N9    Am   
C133  C169  A    
C147  H22   S    
C39   C177  A    
C123  C166  A    
C55   I3    S    
C112  C170  A    
C100  O58   S    
C116  O7    A    
C14   C27   A    
C47   C185  A    
C128  C141  A    
C51   C189  A    
C140  C153  A    
C93   H66   S    
Cr6   O14   S    
C101  C157  A    
C171  O4    A    
C3    O24   D    
C35   C151  A    
C15   N6    Am   
C30   C70   A    
C41   C179  A    
C142  H28   S    
C130  C173  A    
C53   C59   A    
C40   C45   A    
C171  C174  S    
C147  C161  A    
C21   C34   A    
C160  O3    A    
C57   C153  A    
C16   O37   D    
C11   C189  A    
C14   O35   D    
C132  C164  A    
C107  C159  A    
C49   C187  A    
C107  O55   S    
C157  N10   S    
C23   O44   D    
C151  N1    S    
C7    N11   Am   
C125  C170  A    
C190  N1    Am   
C153  N6    S    
C34   C74   A    
C113  C176  A    
C114  C175  A    
C37   C76   A    
C111  I5    S    
C191  N5    Am   
C129  C174  A    
C132  C145  A    
C158  N11   S    
C108  O57   S    
C86   H50   S    
C80   H35   S    
C7    O28   D    
C98   O57   S    
C71   C74   A    
C110  C163  A    
C95   H73   S    
C93   H69   S    
C38   C77   A    
C78   H32   S    
C94   H70   S    
C83   H43   S    
Cr4   O15   S    
Cr2   O9    S    
C144  H19   S    
C145  C158  A    
C15   C28   A    
C155  N8    S    
C136  C166  A    
C21   O42   D    
C18   O39   D    
C92   C93   S    
C53   I22   S    
C94   C95   S    
C92   H65   S    
Cr5   O16   S    
C99   H84   S    
C61   I21   S    
C113  I7    S    
C103  C104  S    
C115  I9    S    
C133  C146  A    
C5    C183  A    
C36   C49   A    
C62   C187  A    
C86   H52   S    
C46   C152  A    
C17   O38   D    
C69   H3    S    
C57   O49   S    
C71   H89   S    
C130  H14   S    
C5    O26   D    
C53   C178  A    
C81   C82   S    
C90   O52   S    
C88   H58   S    
C125  C139  A    
C126  C140  A    
C160  O11   A    
C68   C154  A    
C13   O16   A    
C109  C122  A    
Cr3   O23   S    
C92   O53   S    
C73   H1    S    
C122  I16   S    
C65   C73   A    
C2    C176  S    
C72   H12   S    
C179  C192  A    
Cr1   O18   S    
C142  C155  A    
C127  O8    A    
C2    O61   A    
C96   H75   S    
C100  H86   S    
Cr4   O60   S    
C101  O53   S    
C20   N11   Am   
Cr5   O19   S    
C87   H54   S    
C31   C44   A    
C25   N4    Am   
C28   C67   A    
C89   H59   S    
C46   O48   S    
C103  H92   S    
C146  C159  A    
C16   C29   A    
C106  C158  A    
C100  H87   S    
C105  C167  S    
C96   O55   S    
C58   I24   S    
C97   H80   S    
C48   C186  A    
C96   C97   S    
C100  C102  S    
C120  I14   S    
C81   H38   S    
Cr3   O10   S    
C130  C143  A    
C175  C182  S    
C40   C178  A    
C162  N3    S    
C77   H23   S    
C13   C170  S    
C135  C148  A    
C85   H48   S    
C80   H33   S    
C64   I18   S    
Cr6   O19   S    
C35   C111  A    
C1    O45   A    
C78   O47   S    
C163  N4    S    
C26   C65   A    
C9    C187  A    
C136  C150  A    
C14   N5    Am   
C11   N4    Am   
C79   O51   S    
C67   H4    S    
C178  C191  A    
C143  C156  A    
C82   H40   S    
C61   C186  A    
C59   C184  A    
C156  N9    S    
C75   H45   S    
C126  H17   S    
C35   O47   S    
C63   C188  A    
C137  C151  A    
C138  C164  S    
C19   O40   D    
C59   I12   S    
C92   H64   S    
C68   C114  A    
C99   H85   S    
