data_mof_unit_55160.cif
_audit_creation_date              2012-12-10T18:33:54-0500
_audit_creation_method            fapswitch 2.2
_symmetry_space_group_name_H-M    P1
_symmetry_Int_Tables_number       1
_space_group_crystal_system       triclinic
_cell_length_a                    15.129794
_cell_length_b                    13.845445
_cell_length_c                    10.896059
_cell_angle_alpha                 87.92735
_cell_angle_beta                  91.514743
_cell_angle_gamma                 89.811168
_cell_volume                      2280.18160473

loop_
_atom_site_label
_atom_site_type_symbol
_atom_type_description
_atom_site_fract_x
_atom_site_fract_y
_atom_site_fract_z
_atom_type_partial_charge
C1    C     C_R   0.329623 0.500241 0.500869 0.874198
C2    C     C_R   0.670094 0.499766 0.502746 0.882562
C3    C     C_R   0.047811 0.492387 0.508158 -0.103627
C4    C     C_R   0.951213 0.489333 0.516308 -0.091833
C5    C     C_R   0.570682 0.106023 0.553784 -0.285750
C6    C     C_R   0.430452 0.109385 0.444493 -0.283069
C7    C     C_R   0.568855 0.207625 0.553745 0.080948
C8    C     C_R   0.431680 0.210883 0.445490 0.118014
C9    C     C_R   0.500628 0.054606 0.499084 0.123906
C10   C     C_R   0.460128 0.895014 0.402636 -0.273659
C11   C     C_R   0.541010 0.889533 0.595901 -0.297515
C12   C     C_R   0.460498 0.793349 0.404995 0.124266
C13   C     C_R   0.540307 0.788035 0.594242 0.081226
C14   C     C_R   0.500591 0.945370 0.499177 0.135848
C15   C     C_R   0.490832 0.502030 0.265300 0.769040
C16   C     C_R   0.502428 0.497673 0.735178 0.783908
C17   C     C_2   0.459815 0.428001 0.932475 0.266324
C18   C     C_2   0.449643 0.431223 0.068948 0.278709
C19   C     C_2   0.513486 0.489595 0.868792 0.208668
C20   C     C_2   0.472296 0.509814 0.132794 0.230263
C21   C     C_R   0.089501 0.577930 0.465326 0.396131
C22   C     C_R   0.906952 0.555937 0.588870 0.411229
C23   C     C_R   0.182309 0.582709 0.466605 0.400714
C24   C     C_R   0.814789 0.565266 0.576906 0.361911
C25   C     C_R   0.232603 0.500035 0.503200 -0.274879
C26   C     C_R   0.766599 0.498451 0.507619 -0.274388
C27   C     C_R   0.190055 0.414822 0.541268 -0.393313
C28   C     C_R   0.810709 0.427884 0.443703 -0.394302
C29   C     C_R   0.098109 0.411501 0.549080 0.514017
C30   C     C_R   0.902944 0.425983 0.442183 0.513916
Cu1   Cu    Cu3+1 0.500000 0.596430 0.500000 0.972481
Cu2   Cu    Cu3+1 0.500000 0.403570 0.500000 0.947947
H1    H     H_    0.429621 0.756053 0.329921 0.105820
H2    H     H_    0.572297 0.746768 0.669047 0.147154
H3    H     H_    0.228515 0.350915 0.567312 0.200806
H4    H     H_    0.773278 0.375807 0.391972 0.196011
H5    H     H_    0.627264 0.068408 0.595537 0.136847
H6    H     H_    0.374034 0.074391 0.402541 0.134622
H7    H     H_    0.623103 0.245488 0.596785 0.123484
H8    H     H_    0.377436 0.251198 0.402630 0.124378
H9    H     H_    0.429449 0.933559 0.324456 0.125051
H10   H     H_    0.572103 0.923640 0.673616 0.133733
N1    N     N_R   0.500000 0.258690 0.500000 -0.172790
N2    N     N_R   0.500000 0.741330 0.500000 -0.174022
O1    O     O_R   0.371460 0.581430 0.500010 -0.535169
O2    O     O_R   0.628540 0.581430 0.499990 -0.559027
O3    O     O_R   0.371470 0.418560 0.500010 -0.606291
O4    O     O_R   0.628530 0.418560 0.499990 -0.605502
O5    O     O_R   0.500000 0.581410 0.321940 -0.583548
O6    O     O_R   0.500000 0.581410 0.678060 -0.587443
O7    O     O_R   0.500010 0.418540 0.321940 -0.552875
O8    O     O_R   0.499990 0.418540 0.678060 -0.576839
O9    O     O_3   0.408553 0.363526 0.865934 -0.644351
C31   C     C_3   0.434937 0.265266 0.887014 0.118414
H11   H     H_    0.404918 0.224236 0.810800 0.161494
H12   H     H_    0.406080 0.234130 0.971763 0.164020
C32   C     C_3   0.535516 0.245995 0.889531 -0.386389
H13   H     H_    0.566065 0.280554 0.807824 0.225667
H14   H     H_    0.566100 0.276081 0.973517 0.209376
C33   C     C_3   0.555429 0.137789 0.891923 -0.917459
H15   H     H_    0.529119 0.102230 0.976299 0.261822
H16   H     H_    0.628051 0.126058 0.891416 0.256504
H17   H     H_    0.525095 0.104095 0.810123 0.258443
O10   O     O_3   0.409755 0.354175 0.131168 -0.621063
C34   C     C_3   0.316561 0.357942 0.109531 0.037318
H18   H     H_    0.292633 0.282825 0.099438 0.150266
H19   H     H_    0.295768 0.398581 0.023247 0.163724
C35   C     C_3   0.269347 0.400272 0.217864 -0.340366
H20   H     H_    0.276924 0.350461 0.299350 0.228672
H21   H     H_    0.298820 0.470650 0.240623 0.184393
C36   C     C_3   0.170910 0.414873 0.188195 -0.936268
H22   H     H_    0.161171 0.468600 0.110773 0.240726
H23   H     H_    0.137392 0.441996 0.269434 0.263801
H24   H     H_    0.140058 0.345355 0.163339 0.261716
O11   O     O_3   0.576751 0.545640 0.927457 -0.595181
C37   C     C_3   0.662523 0.530978 0.882301 0.103956
H25   H     H_    0.697054 0.601673 0.882342 0.206344
H26   H     H_    0.664007 0.506189 0.786299 0.122241
C38   C     C_3   0.713864 0.459440 0.967622 -0.384341
H27   H     H_    0.713416 0.484659 0.063353 0.228901
H28   H     H_    0.681604 0.387712 0.965711 0.200558
C39   C     C_3   0.809263 0.449097 0.928095 -0.914273
H29   H     H_    0.811183 0.425324 0.831859 0.261072
H30   H     H_    0.844108 0.394314 0.988655 0.242541
H31   H     H_    0.844123 0.519206 0.935367 0.262132
O12   O     O_3   0.472903 0.601699 0.076971 -0.567849
C40   C     C_3   0.388295 0.645243 0.081288 0.057987
H32   H     H_    0.398232 0.722587 0.101360 0.159634
H33   H     H_    0.346786 0.614518 0.155639 0.092901
C41   C     C_3   0.339375 0.639572 0.956872 -0.334608
H34   H     H_    0.380874 0.672083 0.883671 0.245469
H35   H     H_    0.326790 0.563020 0.935888 0.200238
C42   C     C_3   0.250780 0.692533 0.956427 -0.928483
H36   H     H_    0.206897 0.658402 0.025452 0.241218
H37   H     H_    0.218011 0.688566 0.864353 0.272736
H38   H     H_    0.260663 0.769719 0.977348 0.256763
O13   O     O_3   0.040935 0.660430 0.432657 -0.519480
C43   C     C_3   0.998607 0.649599 0.316714 -0.356437
H39   H     H_    0.932666 0.616114 0.327287 0.160926
H40   H     H_    0.038578 0.607784 0.252237 0.130626
H41   H     H_    0.987459 0.722492 0.273399 0.189842
O14   O     O_3   0.952541 0.618057 0.664814 -0.528078
C44   C     C_3   0.995851 0.565640 0.762766 -0.284195
H42   H     H_    0.066849 0.556593 0.742651 0.162363
H43   H     H_    0.966235 0.493601 0.784484 0.138342
H44   H     H_    0.992289 0.608396 0.846656 0.179055
O15   O     O_3   0.224333 0.669466 0.439702 -0.528043
C45   C     C_3   0.215421 0.693643 0.312969 -0.264010
H45   H     H_    0.158747 0.743659 0.295744 0.204575
H46   H     H_    0.275242 0.733391 0.284241 0.149408
H47   H     H_    0.208508 0.629746 0.254152 0.114493
O16   O     O_3   0.771152 0.632934 0.643712 -0.582375
C46   C     C_3   0.777544 0.724045 0.582253 -0.227785
H48   H     H_    0.739722 0.777448 0.633469 0.158862
H49   H     H_    0.748401 0.722945 0.487420 0.156711
H50   H     H_    0.847063 0.749574 0.579400 0.207766
O17   O     O_3   0.055531 0.328495 0.591057 -0.524146
C47   C     C_3   0.085278 0.302455 0.711717 -0.317868
H51   H     H_    0.091097 0.365913 0.771432 0.132225
H52   H     H_    0.149177 0.262834 0.710620 0.166704
H53   H     H_    0.036221 0.252773 0.753539 0.190086
O18   O     O_3   0.947005 0.359196 0.374024 -0.520785
C48   C     C_3   0.929107 0.378089 0.247664 -0.337895
H54   H     H_    0.942752 0.454682 0.220155 0.143461
H55   H     H_    0.860053 0.358788 0.221821 0.164728
H56   H     H_    0.973280 0.332157 0.194621 0.192224

loop_
_geom_bond_atom_site_label_1
_geom_bond_atom_site_label_2
_ccdc_geom_bond_type
C40   H32   S    
C42   H36   S    
C19   O11   S    
C5    H5    S    
C27   C29   A    
C24   O16   S    
C8    N1    A    
C9    C14   S    
C18   O10   S    
C6    C9    A    
O13   C43   S    
C32   H13   S    
C48   H54   S    
O9    C31   S    
C2    O2    A    
C33   H17   S    
C24   C26   A    
C35   C36   S    
C11   C14   A    
C48   H55   S    
C4    C22   A    
C45   H45   S    
C11   H10   S    
C33   H16   S    
C3    C29   A    
C47   H51   S    
Cu2   O8    S    
C30   O18   S    
C35   H20   S    
C34   H19   S    
Cu1   O2    S    
C20   O12   S    
O15   C45   S    
C6    H6    S    
C15   O7    A    
C46   H50   S    
C15   O5    A    
C42   H37   S    
C10   H9    S    
C1    C25   S    
Cu2   O4    S    
Cu1   O5    S    
O16   C46   S    
C15   C20   S    
C31   H12   S    
Cu1   N2    S    
C37   H25   S    
C44   H43   S    
C10   C14   A    
C5    C7    A    
O12   C40   S    
C1    O3    A    
C32   C33   S    
C6    C8    A    
C27   H3    S    
C29   O17   S    
C39   H29   S    
C33   H15   S    
C47   H53   S    
O11   C37   S    
Cu2   O7    S    
C5    C9    A    
C36   H24   S    
C21   O13   S    
C41   H35   S    
Cu1   Cu2   S    
C34   C35   S    
C23   O15   S    
C17   C18   S    
C2    C26   S    
C10   C12   A    
C43   H39   S    
C42   H38   S    
C39   H30   S    
C21   C23   A    
Cu2   O3    S    
C22   C24   A    
C3    C21   A    
Cu1   O6    S    
C3    C4    S    
C39   H31   S    
C17   O9    S    
C41   C42   S    
C36   H23   S    
C46   H48   S    
C7    N1    A    
C31   H11   S    
C16   O8    A    
C37   H26   S    
C48   H56   S    
C38   C39   S    
C38   H28   S    
C25   C27   A    
C43   H41   S    
C26   C28   A    
C22   O14   S    
C45   H47   S    
C2    O4    A    
O10   C34   S    
C40   H33   S    
C12   H1    S    
C36   H22   S    
C12   N2    A    
O17   C47   S    
C11   C13   A    
C1    O1    A    
C41   H34   S    
C16   C19   S    
C28   C30   A    
C17   C19   D    
Cu2   N1    S    
C45   H46   S    
C44   H44   S    
C18   C20   D    
C23   C25   A    
O14   C44   S    
C16   O6    A    
C43   H40   S    
C47   H52   S    
C32   H14   S    
C38   H27   S    
C13   H2    S    
C37   C38   S    
C28   H4    S    
C35   H21   S    
C34   H18   S    
Cu1   O1    S    
C40   C41   S    
C44   H42   S    
C7    H7    S    
C8    H8    S    
O18   C48   S    
C13   N2    A    
C4    C30   A    
C46   H49   S    
C31   C32   S    
