data_mof_unit_59791.cif
_audit_creation_date              2012-12-10T17:48:46-0500
_audit_creation_method            fapswitch 2.2
_symmetry_space_group_name_H-M    P1
_symmetry_Int_Tables_number       1
_space_group_crystal_system       triclinic
_cell_length_a                    15.672079
_cell_length_b                    10.873128
_cell_length_c                    10.03265
_cell_angle_alpha                 88.631372
_cell_angle_beta                  87.753129
_cell_angle_gamma                 92.866075
_cell_volume                      1705.58545902

loop_
_atom_site_label
_atom_site_type_symbol
_atom_type_description
_atom_site_fract_x
_atom_site_fract_y
_atom_site_fract_z
_atom_type_partial_charge
C1    C     C_R   0.506797 0.261430 0.500996 0.919516
C2    C     C_R   0.551937 0.051874 0.861442 0.489714
C3    C     C_R   0.502979 0.940951 0.871175 -0.274186
C4    C     C_R   0.339015 0.506916 0.502414 0.924699
C5    C     C_R   0.469251 0.886412 0.758096 0.443091
C6    C     C_R   0.492933 0.938397 0.628222 -0.094819
C7    C     C_R   0.521272 0.062633 0.624003 -0.014790
C8    C     C_R   0.517631 0.129734 0.503413 -0.177661
C9    C     C_R   0.521264 0.068648 0.383614 -0.313258
C10   C     C_R   0.521246 0.941903 0.384679 0.498030
C11   C     C_R   0.497999 0.874337 0.504117 -0.232228
C12   C     C_3   0.947075 0.516006 0.655100 0.182021
C13   C     C_R   0.408646 0.303995 0.146593 0.371623
C14   C     C_R   0.392917 0.192763 0.080577 0.311885
C15   C     C_R   0.390747 0.196957 0.944509 -0.344825
C16   C     C_R   0.497476 0.740095 0.500359 0.864689
C17   C     C_R   0.403637 0.309173 0.874757 0.454721
C18   C     C_R   0.452693 0.407343 0.933173 -0.056918
C19   C     C_R   0.453881 0.406087 0.077342 -0.067770
C20   C     C_R   0.548888 0.581917 0.063870 0.451432
C21   C     C_R   0.546863 0.583686 0.922740 -0.049905
C22   C     C_R   0.661819 0.505708 0.498246 0.846680
C23   C     C_3   0.919634 0.551600 0.511829 0.014855
C24   C     C_3   0.046423 0.508046 0.654115 0.124537
C25   C     C_3   0.054477 0.474061 0.401361 0.213509
C26   C     C_3   0.956273 0.456633 0.413557 0.253968
C27   C     C_1   0.751434 0.526551 0.497968 -0.202203
C28   C     C_3   0.086085 0.556805 0.516036 0.094469
C29   C     C_3   0.631860 0.211372 0.967966 0.069764
C30   C     C_3   0.723132 0.204738 0.906769 -0.416998
C31   C     C_3   0.771820 0.329639 0.910416 -0.865864
C32   C     C_3   0.330310 0.806435 0.754499 0.099868
C33   C     C_3   0.281736 0.827488 0.886601 -0.379868
C34   C     C_3   0.957828 0.684244 0.472742 0.121054
C35   C     C_3   0.185764 0.830953 0.868497 -0.886411
C36   C     C_3   0.644099 0.883105 0.281977 0.126680
C37   C     C_3   0.687887 0.906499 0.143660 -0.251498
C38   C     C_3   0.776329 0.854060 0.133311 -0.929672
C39   C     C_3   0.286479 0.270510 0.738141 0.079049
C40   C     C_3   0.286043 0.177132 0.626726 -0.359971
C41   C     C_3   0.195251 0.135033 0.593240 -0.924194
C42   C     C_3   0.127331 0.459488 0.193828 0.060238
C43   C     C_3   0.152131 0.533334 0.065640 -0.276810
C44   C     C_3   0.207188 0.460557 0.971018 -0.990030
C45   C     C_3   0.056964 0.689941 0.488939 0.186453
C46   C     C_3   0.905088 0.256949 0.366280 0.071933
C47   C     C_3   0.809119 0.269655 0.354208 -0.342608
C48   C     C_3   0.771658 0.166937 0.273457 -1.009823
C49   C     C_1   0.826984 0.542536 0.504947 0.004675
C50   C     C_1   0.177963 0.550365 0.514789 0.031316
C51   C     C_1   0.252003 0.531718 0.508902 -0.247993
C52   C     C_R   0.557759 0.114403 0.736844 -0.282645
H1    H     H_    0.917090 0.423896 0.684007 0.220987
H2    H     H_    0.090147 0.728357 0.395394 0.209136
H3    H     H_    0.928413 0.752914 0.538907 0.147028
H4    H     H_    0.953330 0.674065 0.746800 0.361077
H5    H     H_    0.879809 0.735678 0.339034 0.330742
H6    H     H_    0.636735 0.245126 0.071036 0.167809
H7    H     H_    0.595104 0.281207 0.916220 0.135368
H8    H     H_    0.758382 0.135524 0.962022 0.225386
H9    H     H_    0.722547 0.175014 0.801944 0.218160
H10   H     H_    0.740694 0.398461 0.847464 0.282681
H11   H     H_    0.838438 0.320941 0.871511 0.263057
H12   H     H_    0.073652 0.565457 0.734391 0.165485
H13   H     H_    0.773836 0.362377 0.014356 0.264608
H14   H     H_    0.323273 0.884586 0.682625 0.112637
H15   H     H_    0.301093 0.723470 0.708337 0.183793
H16   H     H_    0.293841 0.751953 0.958920 0.245554
H17   H     H_    0.305344 0.915637 0.928710 0.242495
H18   H     H_    0.172075 0.904750 0.795366 0.279971
H19   H     H_    0.152924 0.849522 0.965469 0.265976
H20   H     H_    0.160287 0.740976 0.833004 0.283342
H21   H     H_    0.659667 0.792239 0.324321 0.141522
H22   H     H_    0.672028 0.951289 0.351204 0.087708
H23   H     H_    0.531291 0.118828 0.289194 0.203345
H24   H     H_    0.648252 0.868675 0.063741 0.292511
H25   H     H_    0.694351 0.006351 0.123680 0.230339
H26   H     H_    0.818447 0.896022 0.207950 0.251223
H27   H     H_    0.805590 0.874992 0.032214 0.272488
H28   H     H_    0.771547 0.752547 0.149726 0.295387
H29   H     H_    0.607849 0.638811 0.213458 0.383418
H30   H     H_    0.054316 0.365965 0.773171 0.335247
H31   H     H_    0.314526 0.262291 0.274957 0.308966
H32   H     H_    0.378293 0.090131 0.241953 0.345441
H33   H     H_    0.245872 0.346723 0.709701 0.199522
H34   H     H_    0.594593 0.200125 0.723427 0.165456
H35   H     H_    0.255565 0.228013 0.830994 0.120981
H36   H     H_    0.319031 0.219202 0.535456 0.237786
H37   H     H_    0.321644 0.096526 0.658153 0.206618
H38   H     H_    0.158384 0.100508 0.684395 0.269725
H39   H     H_    0.197507 0.059858 0.520383 0.257207
H40   H     H_    0.162199 0.212826 0.548073 0.295008
H41   H     H_    0.089681 0.374078 0.169005 0.128182
H42   H     H_    0.186679 0.435083 0.243800 0.161612
H43   H     H_    0.093364 0.558250 0.014831 0.233492
H44   H     H_    0.188175 0.619655 0.090994 0.234894
H45   H     H_    0.490739 0.896141 0.968159 0.221685
H46   H     H_    0.266914 0.436640 0.019116 0.274396
H47   H     H_    0.224147 0.516751 0.879014 0.275781
H48   H     H_    0.171321 0.374908 0.943620 0.253349
H49   H     H_    0.917105 0.161352 0.399499 0.183097
H50   H     H_    0.940181 0.272878 0.267998 0.114472
H51   H     H_    0.777041 0.265457 0.455207 0.236108
H52   H     H_    0.796778 0.358763 0.304041 0.215761
H53   H     H_    0.701454 0.174836 0.270162 0.269646
H54   H     H_    0.785738 0.077688 0.320916 0.264888
H55   H     H_    0.801025 0.172348 0.171186 0.277844
H56   H     H_    0.368847 0.115328 0.893803 0.178456
H57   H     H_    0.073037 0.852739 0.562221 0.339005
H58   H     H_    0.586359 0.651880 0.865212 0.162827
H59   H     H_    0.082119 0.381393 0.412536 0.136139
H60   H     H_    0.929572 0.474593 0.313409 0.154444
N1    N     N_R   0.499210 0.498800 0.142780 -0.140256
N2    N     N_R   0.499180 0.498720 0.857170 -0.114965
O1    O     O_R   0.500000 0.316780 0.614690 -0.572878
O2    O     O_3   0.940689 0.714906 0.339806 -0.758135
O3    O     O_3   0.588119 0.094032 0.978076 -0.653127
O4    O     O_3   0.415893 0.781926 0.779786 -0.611478
O5    O     O_3   0.554007 0.887205 0.272147 -0.586643
O6    O     O_3   0.606974 0.660818 0.118430 -0.797565
O7    O     O_3   0.067846 0.385469 0.677258 -0.791328
O8    O     O_3   0.366462 0.318413 0.266458 -0.731167
O9    O     O_3   0.366855 0.083366 0.146055 -0.761329
O10   O     O_3   0.371248 0.320809 0.750082 -0.566292
O11   O     O_3   0.077642 0.533406 0.276375 -0.645658
O12   O     O_R   0.499990 0.316750 0.385360 -0.581385
O13   O     O_3   0.935086 0.335675 0.465087 -0.657816
O14   O     O_3   0.079642 0.766687 0.594013 -0.845243
O15   O     O_R   0.377150 0.500020 0.614720 -0.552825
O16   O     O_R   0.377140 0.499990 0.385380 -0.536024
O17   O     O_R   0.500010 0.683250 0.614640 -0.574500
O18   O     O_R   0.500000 0.683220 0.385310 -0.593876
O19   O     O_R   0.622860 0.500010 0.614620 -0.620798
O20   O     O_R   0.622850 0.499980 0.385280 -0.659090
O21   O     O_3   0.916588 0.597149 0.751475 -0.782285
Zn1   Zn    Zn3+2 0.500010 0.500020 0.653130 1.004499
Zn2   Zn    Zn3+2 0.499990 0.499980 0.346870 0.991372

loop_
_geom_bond_atom_site_label_1
_geom_bond_atom_site_label_2
_ccdc_geom_bond_type
O12   Zn2   S    
C1    C8    S    
C39   H35   S    
C18   N2    A    
O20   Zn2   S    
C21   H58   S    
C7    C8    A    
H32   O9    S    
C46   H50   S    
H29   O6    S    
C29   C30   S    
C22   O20   A    
C36   C37   S    
C7    C52   A    
C30   C31   S    
C44   H47   S    
C23   C49   S    
C48   H55   S    
O1    Zn1   S    
C19   N1    A    
C45   O14   S    
C34   O2    S    
C42   H41   S    
C31   H13   S    
C18   C19   A    
C23   C26   S    
C36   O5    S    
C16   O17   A    
C25   O11   S    
C10   O5    S    
C17   O10   S    
C42   O11   S    
C44   H46   S    
C48   H54   S    
C47   C48   S    
C35   H18   S    
C8    C9    A    
C12   O21   S    
C30   H8    S    
O19   Zn1   S    
C43   H43   S    
C47   H52   S    
C40   H37   S    
C9    C10   A    
H30   O7    S    
C12   H1    S    
C33   H17   S    
C41   H38   S    
C35   H19   S    
C34   H3    S    
C24   H12   S    
C13   C14   A    
C31   H10   S    
C28   C50   S    
C2    O3    S    
C17   C18   A    
H5    O2    S    
C46   H49   S    
C28   C45   S    
C47   H51   S    
C13   C19   A    
C4    C51   S    
C31   H11   S    
C46   O13   S    
C1    O12   A    
O17   Zn1   S    
C36   H21   S    
C6    C11   A    
C4    O16   A    
C38   H26   S    
C50   C51   T    
O18   Zn2   S    
C37   H25   S    
C39   O10   S    
C25   C28   S    
C15   H56   S    
C43   C44   S    
C37   C38   S    
O15   Zn1   S    
C11   C16   S    
C3    H45   S    
H57   O14   S    
C48   H53   S    
C12   C23   S    
C23   C34   S    
C43   H44   S    
C34   C45   S    
C29   H6    S    
C4    O15   A    
C2    C52   A    
C32   H15   S    
C40   C41   S    
C41   H39   S    
C37   H24   S    
C35   H20   S    
C22   C27   S    
N1    Zn2   S    
C42   C43   S    
C39   H33   S    
C26   H60   S    
C20   O6    S    
H4    O21   S    
C32   H14   S    
C15   C17   A    
C46   C47   S    
C36   H22   S    
N2    Zn1   S    
C14   O9    S    
C42   H42   S    
C24   C28   S    
C32   O4    S    
C21   N2    A    
C3    C5    A    
C45   H2    S    
C6    C7    A    
C1    O1    A    
C12   C24   S    
C5    O4    S    
C32   C33   S    
C40   H36   S    
C52   H34   S    
C2    C3    A    
C25   C26   S    
C13   O8    S    
C44   H48   S    
C5    C6    A    
C38   H28   S    
C29   O3    S    
C22   O19   A    
C24   O7    S    
C33   C35   S    
C26   O13   S    
H31   O8    S    
C20   N1    A    
C16   O18   A    
C10   C11   A    
C25   H59   S    
C39   C40   S    
C41   H40   S    
C20   C21   A    
C38   H27   S    
C30   H9    S    
C29   H7    S    
C14   C15   A    
C9    H23   S    
O16   Zn2   S    
C27   C49   T    
C33   H16   S    
