data_mof_unit_51025.cif
_audit_creation_date              2012-12-10T18:58:14-0500
_audit_creation_method            fapswitch 2.2
_symmetry_space_group_name_H-M    P1
_symmetry_Int_Tables_number       1
_space_group_crystal_system       triclinic
_cell_length_a                    11.06097
_cell_length_b                    10.860732
_cell_length_c                    9.553406
_cell_angle_alpha                 90.944234
_cell_angle_beta                  102.133756
_cell_angle_gamma                 90.512807
_cell_volume                      1121.77098237

loop_
_atom_site_label
_atom_site_type_symbol
_atom_type_description
_atom_site_fract_x
_atom_site_fract_y
_atom_site_fract_z
_atom_type_partial_charge
C1    C     C_R   0.496305 0.262527 0.497982 0.793917
C2    C     C_R   0.481353 0.129842 0.491903 -0.097544
C3    C     C_R   0.480183 0.062426 0.364950 -0.208312
C4    C     C_R   0.481055 0.933922 0.366914 -0.172868
C5    C     C_R   0.483894 0.871481 0.495865 -0.091968
C6    C     C_R   0.464989 0.940067 0.614465 0.154359
C7    C     C_3   0.531736 0.941862 0.767692 -0.486453
C8    C     C_3   0.529934 0.081053 0.764179 -0.446825
C9    C     C_R   0.599237 0.546845 0.098836 0.198921
C10   C     C_R   0.408509 0.442581 0.050990 -0.061873
C11   C     C_R   0.408470 0.442645 0.902238 -0.033248
C12   C     C_R   0.263165 0.503214 0.442881 0.895639
C13   C     C_R   0.599156 0.545863 0.950926 0.261681
C14   C     C_3   0.645647 0.674351 0.955842 -0.549642
C15   C     C_3   0.644468 0.677669 0.114377 -0.256704
C16   C     C_R   0.497342 0.738001 0.500057 0.832704
C17   C     C_R   0.736890 0.501207 0.557800 0.863015
C18   C     C_2   0.128792 0.499354 0.413564 -0.415550
C19   C     C_2   0.065098 0.539064 0.510501 0.307381
C20   C     C_2   0.870757 0.514137 0.590682 -0.290029
C21   C     C_2   0.933184 0.509197 0.485444 -0.179775
C22   C     C_R   0.464008 0.066893 0.612035 0.127550
Cu1   Cu    Cu3+1 0.499990 0.499980 0.640670 0.976241
Cu2   Cu    Cu3+1 0.500010 0.500020 0.359330 0.964943
H1    H     H_    0.886102 0.481009 0.377955 0.179845
H2    H     H_    0.623471 0.123649 0.776283 0.209110
H3    H     H_    0.333362 0.397705 0.087381 0.145427
H4    H     H_    0.333235 0.397904 0.827566 0.154139
H5    H     H_    0.737975 0.680808 0.927608 0.232041
H6    H     H_    0.574527 0.732882 0.893383 0.208621
H7    H     H_    0.574414 0.741385 0.141163 0.154702
H8    H     H_    0.917012 0.533479 0.700860 0.193423
H9    H     H_    0.081378 0.453389 0.315030 0.140828
H10   H     H_    0.485531 0.108231 0.266532 0.167274
H11   H     H_    0.485650 0.884588 0.269096 0.162682
H12   H     H_    0.472851 0.905380 0.838929 0.208176
H13   H     H_    0.626811 0.904629 0.782249 0.207136
H14   H     H_    0.470543 0.122763 0.832339 0.198579
N1    N     N_R   0.500780 0.500930 0.148120 -0.203770
N2    N     N_R   0.500790 0.500890 0.852210 -0.186831
O1    O     O_R   0.500000 0.319640 0.618810 -0.588996
O2    O     O_R   0.500010 0.319680 0.381230 -0.590843
O3    O     O_R   0.320680 0.500000 0.575130 -0.543298
O4    O     O_R   0.320690 0.500040 0.337550 -0.589476
O5    O     O_R   0.499990 0.680320 0.618770 -0.572194
O6    O     O_R   0.500000 0.680360 0.381190 -0.584287
O7    O     O_R   0.679310 0.499960 0.662450 -0.583636
O8    O     O_R   0.679320 0.500000 0.424870 -0.574219
C23   C     C_2   0.770838 0.694368 0.209009 0.904343
O9    O     O_2   0.783433 0.758889 0.317283 -0.582485
O10   O     O_R   0.873755 0.639549 0.171391 -0.783124
H15   H     H_    0.954099 0.665037 0.238375 0.338077
Br1   Br    Br    0.137820 0.644191 0.673500 -0.506805

loop_
_geom_bond_atom_site_label_1
_geom_bond_atom_site_label_2
_ccdc_geom_bond_type
C16   O5    A    
C2    C22   A    
C8    C22   S    
Cu1   Cu2   S    
C15   H7    S    
C6    C7    S    
Cu1   O5    S    
Cu2   O2    S    
C7    H12   S    
Cu1   O1    S    
C17   O8    A    
Cu2   O6    S    
C19   Br1   S    
C2    C3    A    
C7    H13   S    
C4    H11   S    
C10   H3    S    
C7    C8    S    
C12   O4    A    
C13   C14   S    
C11   N2    A    
C8    H14   S    
C11   H4    S    
C14   H6    S    
C1    O1    A    
C19   C21   S    
C18   C19   D    
C12   O3    A    
C15   C23   S    
C9    C15   S    
C5    C6    A    
Cu2   O4    S    
C18   H9    S    
Cu1   O7    S    
C10   C11   A    
C13   N2    A    
C14   H5    S    
C12   C18   S    
O10   H15   S    
C6    C22   A    
C17   O7    A    
C1    O2    A    
C9    N1    A    
Cu2   N1    S    
C8    H2    S    
C20   C21   D    
C1    C2    S    
C20   H8    S    
C16   O6    A    
C23   O9    D    
Cu1   N2    S    
C9    C13   A    
C14   C15   S    
C4    C5    A    
C5    C16   S    
C21   H1    S    
C3    H10   S    
Cu1   O3    S    
C17   C20   S    
C3    C4    A    
C10   N1    A    
C23   O10   S    
Cu2   O8    S    
