data_mof_unit_10341.cif
_audit_creation_date              2012-12-10T18:13:56-0500
_audit_creation_method            fapswitch 2.2
_symmetry_space_group_name_H-M    P1
_symmetry_Int_Tables_number       1
_space_group_crystal_system       triclinic
_cell_length_a                    10.921075
_cell_length_b                    9.839195
_cell_length_c                    23.443686
_cell_angle_alpha                 89.678147
_cell_angle_beta                  89.916494
_cell_angle_gamma                 88.909275
_cell_volume                      2518.63309995

loop_
_atom_site_label
_atom_site_type_symbol
_atom_type_description
_atom_site_fract_x
_atom_site_fract_y
_atom_site_fract_z
_atom_type_partial_charge
C1    C     C_R   0.259114 0.500687 0.499551 0.773791
C2    C     C_R   0.295289 0.567990 0.969791 -0.166919
C3    C     C_R   0.294715 0.567027 0.029103 -0.160774
C4    C     C_R   0.402268 0.535964 0.059649 -0.007102
C5    C     C_R   0.512239 0.505552 0.030168 -0.051235
C6    C     C_R   0.621422 0.474133 0.060714 -0.030189
C7    C     C_R   0.731101 0.444630 0.029503 0.137750
C8    C     C_R   0.728341 0.446047 0.969675 -0.153087
C9    C     C_R   0.402107 0.534438 0.119229 0.536704
C10   C     C_R   0.615085 0.473910 0.121146 0.537756
C11   C     C_R   0.491814 0.380062 0.239034 -0.088446
C12   C     C_R   0.499818 0.500333 0.391634 0.810526
C13   C     C_R   0.489831 0.379069 0.298464 -0.190614
C14   C     C_R   0.500242 0.501204 0.328848 -0.020628
C15   C     C_R   0.512060 0.624151 0.298603 -0.192430
C16   C     C_R   0.513601 0.624802 0.239197 -0.092520
C17   C     C_R   0.503845 0.502830 0.209376 0.363893
C18   C     C_R   0.441480 0.406385 0.761738 -0.095500
C19   C     C_R   0.438699 0.404509 0.702372 -0.235336
C20   C     C_R   0.505061 0.499639 0.670754 -0.024921
C21   C     C_R   0.575377 0.595737 0.699367 -0.232027
C22   C     C_R   0.577805 0.597867 0.758792 -0.097754
C23   C     C_R   0.737249 0.499133 0.501832 0.782330
C24   C     C_R   0.510500 0.503442 0.790188 0.350228
C25   C     C_3   0.060696 0.624715 0.536062 0.027404
C26   C     C_3   0.065690 0.365789 0.529064 0.037463
C27   C     C_3   0.920394 0.608964 0.543167 -0.372763
C28   C     C_3   0.925545 0.357931 0.520185 -0.375018
C29   C     C_3   0.058325 0.510285 0.437937 0.198126
C30   C     C_3   0.116847 0.500936 0.501063 0.034110
C31   C     C_3   0.872840 0.498718 0.502157 0.027143
C32   C     C_3   0.917569 0.531908 0.441881 -0.395879
C33   C     C_3   0.627772 0.078352 0.499162 -0.320410
C34   C     C_3   0.625837 0.914905 0.507915 -0.330195
C35   C     C_3   0.447622 0.085068 0.556435 0.500086
C36   C     C_3   0.418093 0.924125 0.548715 0.480335
C37   C     C_3   0.447438 0.084355 0.447284 0.101536
C38   C     C_3   0.459269 0.921240 0.444785 0.110782
C39   C     C_R   0.501025 0.499699 0.608267 0.760903
C40   C     C_R   0.617940 0.476225 0.879850 0.540423
C41   C     C_R   0.405422 0.537578 0.879941 0.530371
C42   C     C_R   0.403389 0.537726 0.939728 -0.002142
C43   C     C_R   0.512154 0.506595 0.969899 -0.018878
C44   C     C_R   0.620364 0.476300 0.939742 -0.055527
Cu1   Cu    Cu3+1 0.499860 0.642410 0.500030 0.909967
Cu2   Cu    Cu3+1 0.499860 0.357590 0.500030 0.908080
H1    H     H_    0.210630 0.592176 0.947620 0.188893
H2    H     H_    0.382763 0.330505 0.681564 0.137893
H3    H     H_    0.629792 0.667785 0.675822 0.137272
H4    H     H_    0.631717 0.672936 0.780484 0.145172
H5    H     H_    0.073365 0.716856 0.509323 0.167389
H6    H     H_    0.106331 0.277881 0.506288 0.165505
H7    H     H_    0.894366 0.580522 0.587492 0.173194
H8    H     H_    0.877664 0.320805 0.559100 0.169388
H9    H     H_    0.875774 0.709642 0.534546 0.159604
H10   H     H_    0.905984 0.281981 0.486504 0.179567
H11   H     H_    0.890391 0.639096 0.431979 0.187450
H12   H     H_    0.868811 0.469345 0.410044 0.195686
H13   H     H_    0.692436 0.124131 0.529440 0.174886
H14   H     H_    0.665869 0.884072 0.549471 0.158335
H15   H     H_    0.209497 0.590566 0.050934 0.189262
H16   H     H_    0.674781 0.101591 0.458118 0.148223
H17   H     H_    0.689481 0.868657 0.476107 0.174498
H18   H     H_    0.507210 0.118049 0.411379 0.134716
H19   H     H_    0.533908 0.898653 0.413289 0.124226
H20   H     H_    0.811715 0.423150 0.946212 0.189380
H21   H     H_    0.484138 0.285569 0.215954 0.136885
H22   H     H_    0.480340 0.282752 0.320445 0.152240
H23   H     H_    0.521263 0.719716 0.320680 0.152673
H24   H     H_    0.523199 0.719862 0.216257 0.136536
H25   H     H_    0.389468 0.332859 0.785736 0.144111
N1    N     N_R   0.511497 0.506365 0.851325 -0.467716
N2    N     N_R   0.507048 0.503607 0.148371 -0.473944
N3    N     N_3   0.500250 0.143650 0.501250 -0.149621
N4    N     N_3   0.500250 0.856350 0.501250 -0.148426
O1    O     O_R   0.317570 0.620260 0.500030 -0.596899
O2    O     O_R   0.317570 0.379740 0.500030 -0.582156
O3    O     O_R   0.499840 0.620290 0.417900 -0.590545
O4    O     O_R   0.499840 0.379710 0.417900 -0.596837
O5    O     O_R   0.682190 0.620260 0.500010 -0.595371
O6    O     O_R   0.682190 0.379740 0.500010 -0.590931
O7    O     O_R   0.499920 0.620230 0.582140 -0.582530
O8    O     O_R   0.499920 0.379770 0.582140 -0.590300
O9    O     O_2   0.720716 0.444789 0.850320 -0.542136
O10   O     O_2   0.302434 0.569073 0.850567 -0.540299
O11   O     O_2   0.297765 0.563102 0.148060 -0.513028
O12   O     O_2   0.714911 0.444814 0.152978 -0.528112
C45   C     C_3   0.118316 0.655534 0.594779 -0.883721
H26   H     H_    0.217806 0.634846 0.595290 0.243229
H27   H     H_    0.099614 0.763270 0.605694 0.227221
H28   H     H_    0.078104 0.598032 0.630528 0.249556
C46   C     C_3   0.093554 0.344873 0.593143 -0.869266
H29   H     H_    0.094041 0.234787 0.603637 0.223890
H30   H     H_    0.181774 0.389310 0.605254 0.236365
H31   H     H_    0.021462 0.390401 0.620752 0.246207
I1    I     I_    0.118430 0.666906 0.381874 -0.404127
I2    I     I_    0.087146 0.334927 0.384537 -0.414987
C47   C     C_3   0.539935 0.107937 0.608869 -0.813071
H32   H     H_    0.607334 0.024710 0.615283 0.177016
H33   H     H_    0.601717 0.193985 0.604457 0.254796
H34   H     H_    0.492383 0.121417 0.650454 0.217882
C48   C     C_3   0.429777 0.857536 0.609341 -0.729411
H35   H     H_    0.525277 0.830630 0.620813 0.217062
H36   H     H_    0.394514 0.925101 0.643465 0.184495
H37   H     H_    0.367768 0.771619 0.616004 0.247024
C49   C     C_3   0.326451 0.148909 0.425011 -0.755246
H38   H     H_    0.246464 0.139949 0.452544 0.218714
H39   H     H_    0.333697 0.256401 0.415021 0.288562
H40   H     H_    0.303419 0.106374 0.382696 0.221059
C50   C     C_3   0.349698 0.858924 0.413809 -0.764274
H41   H     H_    0.259627 0.905686 0.422989 0.237721
H42   H     H_    0.362152 0.867823 0.366854 0.210725
H43   H     H_    0.338709 0.753690 0.423604 0.311736
C51   C     C_3   0.329264 0.161179 0.576290 -0.751212
H44   H     H_    0.340071 0.261426 0.593143 0.258363
H45   H     H_    0.261182 0.170206 0.542780 0.226771
H46   H     H_    0.287318 0.109649 0.613416 0.170440
C52   C     C_3   0.277097 0.909259 0.536822 -0.868334
H47   H     H_    0.249641 0.813918 0.521761 0.285614
H48   H     H_    0.220327 0.926325 0.575399 0.203960
H49   H     H_    0.238419 0.978843 0.505919 0.204538
C53   C     C_3   0.852615 0.411430 0.057556 -0.715946
H50   H     H_    0.881528 0.497999 0.084206 0.263353
H51   H     H_    0.845396 0.317620 0.083771 0.261555
H52   H     H_    0.926637 0.392633 0.025850 0.198198

loop_
_geom_bond_atom_site_label_1
_geom_bond_atom_site_label_2
_ccdc_geom_bond_type
C34   H14   S    
C37   N3    S    
C35   N3    S    
C8    H20   S    
C1    O2    A    
C41   C42   A    
C40   O9    S    
C19   C20   A    
C32   H12   S    
C21   H3    S    
C51   H44   S    
C28   H10   S    
C7    C8    A    
Cu1   Cu2   S    
C29   C30   S    
C35   C51   S    
Cu1   O1    S    
C18   C24   A    
C1    C30   S    
C29   C32   S    
C5    C6    A    
C10   N2    A    
C27   H9    S    
C49   H38   S    
C26   C46   S    
C15   C16   A    
C12   O4    A    
C18   H25   S    
C48   H37   S    
C36   C48   S    
C18   C19   A    
C52   H47   S    
C34   H17   S    
C50   H41   S    
Cu1   O7    S    
C33   H16   S    
C12   O3    A    
C38   H19   S    
Cu1   O3    S    
C23   O5    A    
C38   C50   S    
C35   C47   S    
C36   C52   S    
C34   N4    S    
C22   H4    S    
C5    C43   A    
C33   H13   S    
C21   C22   A    
C17   N2    S    
C9    N2    A    
C32   H11   S    
C11   H21   S    
C52   H48   S    
C38   N4    S    
C3    H15   S    
C15   H23   S    
C10   O12   S    
C27   C31   S    
C16   H24   S    
C20   C39   S    
C28   H8    S    
C19   H2    S    
C16   C17   A    
C25   C45   S    
C52   H49   S    
C23   C31   S    
C43   C44   A    
C25   H5    S    
C37   C38   S    
C36   N4    S    
C26   H6    S    
C9    O11   S    
Cu2   O2    S    
Cu2   O6    S    
C31   C32   S    
C45   H28   S    
C46   H30   S    
C33   C34   S    
C45   H26   S    
C48   H36   S    
C50   H43   S    
C41   N1    A    
C12   C14   S    
C26   C30   S    
C47   H33   S    
C22   C24   A    
C42   C43   A    
C7    C53   S    
C53   H51   S    
C3    C4    A    
Cu2   N3    S    
C37   H18   S    
C24   N1    S    
C25   C30   S    
C11   C17   A    
C40   N1    A    
C1    O1    A    
C28   C31   S    
C23   O6    A    
C8    C44   A    
C39   O7    A    
C45   H27   S    
C4    C5    A    
C6    C10   A    
C29   I1    S    
C51   H45   S    
C27   H7    S    
C6    C7    A    
C2    H1    S    
C25   C27   S    
C47   H34   S    
C41   O10   S    
C26   C28   S    
C29   I2    S    
Cu1   N4    S    
C53   H52   S    
C2    C3    A    
C4    C9    A    
C39   O8    A    
C37   C49   S    
C11   C13   A    
Cu2   O4    S    
C49   H39   S    
C2    C42   A    
C46   H29   S    
Cu1   O5    S    
C46   H31   S    
C48   H35   S    
C50   H42   S    
C51   H46   S    
Cu2   O8    S    
C33   N3    S    
C40   C44   A    
C20   C21   A    
C47   H32   S    
C14   C15   A    
C35   C36   S    
C53   H50   S    
C13   C14   A    
C13   H22   S    
C49   H40   S    
