data_mof_unit_43255.cif
_audit_creation_date              2013-03-05T16:00:46-0500
_audit_creation_method            fapswitch 2.2
_symmetry_space_group_name_H-M    P1
_symmetry_Int_Tables_number       1
_space_group_crystal_system       triclinic
_cell_length_a                    20.808414
_cell_length_b                    21.44205
_cell_length_c                    14.178481
_cell_angle_alpha                 90.039124
_cell_angle_beta                  90.850172
_cell_angle_gamma                 89.967107
_cell_volume                      6325.38562606

loop_
_atom_site_label
_atom_site_type_symbol
_atom_site_description
_atom_site_fract_x
_atom_site_fract_y
_atom_site_fract_z
_atom_type_partial_charge
O1    O     O_R   0.066090 0.433930 0.580280 -0.621310
O2    O     O_R   0.933910 0.566070 0.419720 -0.628955
O3    O     O_R   0.933910 0.566070 0.580280 -0.586723
O4    O     O_R   0.066090 0.433930 0.419720 -0.597436
O5    O     O_R   0.933910 0.433930 0.419720 -0.637543
O6    O     O_R   0.066090 0.566070 0.580280 -0.661862
O7    O     O_R   0.066090 0.566070 0.419720 -0.637975
O8    O     O_R   0.933910 0.433930 0.580280 -0.656509
O9    O     O_R   0.566090 0.933930 0.580280 -0.645388
O10   O     O_R   0.433910 0.066070 0.419720 -0.622414
O11   O     O_R   0.433910 0.066070 0.580280 -0.594962
O12   O     O_R   0.566090 0.933930 0.419720 -0.604280
O13   O     O_R   0.433910 0.933930 0.419720 -0.658392
O14   O     O_R   0.566090 0.066070 0.580280 -0.645539
O15   O     O_R   0.566090 0.066070 0.419720 -0.628475
O16   O     O_R   0.433910 0.933930 0.580280 -0.643165
C1    C     C_R   0.085490 0.412871 0.500358 0.896475
C2    C     C_R   0.913221 0.587298 0.500316 0.864002
C3    C     C_R   0.914660 0.412213 0.499550 0.875643
C4    C     C_R   0.086228 0.586682 0.500687 0.858222
C5    C     C_R   0.584048 0.910525 0.500266 0.888305
C6    C     C_R   0.414282 0.086990 0.499622 0.888428
C7    C     C_R   0.414870 0.912533 0.499387 0.861090
C8    C     C_R   0.585700 0.087211 0.500312 0.869514
Zn1   Zn    Zn3+2 0.000000 0.500000 0.607200 0.943441
Zn2   Zn    Zn3+2 0.000000 0.500000 0.392800 0.952866
Zn3   Zn    Zn3+2 0.500000 0.000000 0.607200 0.943806
Zn4   Zn    Zn3+2 0.500000 0.000000 0.392800 0.952987
C9    C     C_R   0.126433 0.687779 0.557867 0.032574
C10   C     C_R   0.880487 0.307103 0.552979 0.055097
C11   C     C_R   0.849852 0.669077 0.584803 0.107820
C12   C     C_R   0.118150 0.308289 0.451912 0.051860
C13   C     C_R   0.625578 0.187716 0.440872 0.103755
C14   C     C_R   0.379599 0.808688 0.445919 0.080698
C15   C     C_R   0.380508 0.191630 0.547097 0.078106
C16   C     C_R   0.625572 0.812629 0.423967 0.038854
C17   C     C_R   0.134753 0.633952 0.503434 -0.102940
C18   C     C_R   0.870660 0.360368 0.496660 -0.136920
C19   C     C_R   0.859865 0.631603 0.503919 -0.086702
C20   C     C_R   0.131202 0.363313 0.501036 -0.030159
C21   C     C_R   0.633404 0.135346 0.499449 -0.133620
C22   C     C_R   0.368915 0.863237 0.497903 -0.117254
C23   C     C_R   0.368356 0.136395 0.498073 -0.065394
C24   C     C_R   0.621309 0.852666 0.502711 -0.083894
C25   C     C_R   0.189841 0.624021 0.452292 -0.256308
C26   C     C_R   0.821186 0.363154 0.430221 -0.235218
C27   C     C_R   0.813674 0.629525 0.432000 -0.279590
C28   C     C_R   0.188405 0.373512 0.548589 -0.243625
C29   C     C_R   0.690195 0.124321 0.548969 -0.250733
C30   C     C_R   0.315210 0.870979 0.552422 -0.252409
C31   C     C_R   0.312584 0.127069 0.446180 -0.204928
C32   C     C_R   0.648785 0.835403 0.588921 -0.248028
C33   C     C_R   0.237340 0.669280 0.450051 0.143993
C34   C     C_R   0.776888 0.315218 0.422401 0.142490
C35   C     C_R   0.758940 0.666871 0.434982 0.053328
C36   C     C_R   0.237362 0.330034 0.544340 0.097258
C37   C     C_R   0.741175 0.165764 0.542700 0.144105
C38   C     C_R   0.270479 0.823742 0.559124 0.114256
C39   C     C_R   0.264225 0.171403 0.446811 0.111660
C40   C     C_R   0.689360 0.784442 0.595816 0.098639
C41   C     C_R   0.230824 0.723246 0.506667 -0.016092
C42   C     C_R   0.784255 0.262206 0.480689 -0.035884
C43   C     C_R   0.748265 0.703163 0.516283 0.019783
C44   C     C_R   0.225840 0.272875 0.496552 0.020907
C45   C     C_R   0.735377 0.217475 0.481442 -0.034576
C46   C     C_R   0.277604 0.769733 0.502732 -0.038987
C47   C     C_R   0.275343 0.228668 0.493695 -0.013680
C48   C     C_R   0.698416 0.746881 0.515679 0.018108
C49   C     C_R   0.176923 0.730859 0.566333 0.017874
C50   C     C_R   0.839193 0.255344 0.540904 0.090173
C51   C     C_R   0.790020 0.698895 0.595933 -0.008203
C52   C     C_R   0.164744 0.259968 0.452696 0.002845
C53   C     C_R   0.679420 0.225736 0.423850 0.064947
C54   C     C_R   0.331253 0.762769 0.442051 0.079891
C55   C     C_R   0.335990 0.241194 0.538404 0.029605
C56   C     C_R   0.660411 0.755975 0.432942 -0.055357
C57   C     C_R   0.289684 0.661848 0.389660 -0.006272
C58   C     C_R   0.725917 0.319582 0.356483 0.001171
C59   C     C_R   0.713612 0.667462 0.359688 0.074150
C60   C     C_R   0.298387 0.344261 0.583350 0.029294
C61   C     C_R   0.798383 0.154810 0.594070 -0.007512
C62   C     C_R   0.220023 0.829758 0.623199 0.047543
C63   C     C_R   0.204645 0.157680 0.404159 0.073073
C64   C     C_R   0.722146 0.771798 0.681056 0.055905
C65   C     C_R   0.848990 0.198129 0.589896 -0.054042
C66   C     C_R   0.173981 0.782225 0.629642 -0.043088
C67   C     C_R   0.153988 0.200740 0.409428 -0.039191
C68   C     C_R   0.772518 0.727876 0.682194 -0.083275
C69   C     C_R   0.335395 0.709611 0.382161 -0.047989
C70   C     C_R   0.678341 0.273153 0.353874 -0.067428
C71   C     C_R   0.662723 0.710554 0.360227 -0.032113
C72   C     C_R   0.348504 0.301442 0.575649 -0.003669
H1    H     H_    0.194305 0.581246 0.412228 0.167364
H2    H     H_    0.816158 0.404562 0.386961 0.168677
H3    H     H_    0.821141 0.598658 0.373583 0.201142
H4    H     H_    0.195096 0.417753 0.584218 0.161508
H5    H     H_    0.694238 0.082678 0.591949 0.173564
H6    H     H_    0.309511 0.914114 0.591271 0.167946
H7    H     H_    0.305836 0.082774 0.410502 0.189947
H8    H     H_    0.642072 0.864625 0.649838 0.239194
C73   C     C_R   0.942848 0.501748 0.797036 0.044325
C74   C     C_R   0.056951 0.493380 0.202528 0.040050
C75   C     C_R   0.057213 0.495528 0.799573 0.046953
C76   C     C_R   0.943009 0.504725 0.199561 0.068501
C77   C     C_R   0.443111 0.007027 0.797403 0.041319
C78   C     C_R   0.557104 0.994590 0.202559 0.050265
C79   C     C_R   0.557078 0.994270 0.799984 0.052577
C80   C     C_R   0.443030 0.006588 0.200280 0.054976
N1    N     N_R   1.000000 0.500000 0.750030 -0.175925
N2    N     N_R   0.000000 0.500000 0.249970 -0.181364
N3    N     N_R   0.500000 0.000000 0.750030 -0.180785
N4    N     N_R   0.500000 0.000000 0.249970 -0.181390
C81   C     C_R   0.058410 0.496186 0.900119 0.006421
C82   C     C_R   0.941843 0.501274 0.098924 0.020529
C83   C     C_R   0.941792 0.500685 0.897333 -0.010841
C84   C     C_R   0.058244 0.495184 0.101920 0.006142
C85   C     C_R   0.558201 0.997364 0.900544 0.017911
C86   C     C_R   0.441772 0.005034 0.099680 0.013884
C87   C     C_R   0.441844 0.005275 0.897898 0.005093
C88   C     C_R   0.558166 0.997323 0.102142 0.016474
C89   C     C_R   0.000121 0.498732 0.949094 0.068745
C90   C     C_R   0.000096 0.498570 0.050095 0.051748
C91   C     C_R   0.499963 0.001008 0.949551 0.054213
C92   C     C_R   0.499936 0.000953 0.050578 0.058168
C93   C     C_R   0.116287 0.495270 0.953108 -0.162567
C94   C     C_R   0.883947 0.499317 0.045613 -0.128805
C95   C     C_R   0.883929 0.499768 0.947284 -0.194841
C96   C     C_R   0.116202 0.494609 0.051619 -0.156666
C97   C     C_R   0.616038 0.998840 0.953581 -0.148018
C98   C     C_R   0.383895 0.006500 0.046712 -0.145968
C99   C     C_R   0.383934 0.006725 0.948237 -0.158992
C100  C     C_R   0.616021 0.998610 0.051814 -0.146612
H9    H     H_    0.162496 0.495760 0.919210 0.176904
H10   H     H_    0.837638 0.496207 0.078679 0.190181
H11   H     H_    0.837835 0.498791 0.910966 0.167249
H12   H     H_    0.162357 0.494681 0.087693 0.177251
H13   H     H_    0.662316 0.001611 0.920336 0.192572
H14   H     H_    0.337666 0.006609 0.080518 0.183935
H15   H     H_    0.337753 0.007119 0.912246 0.180474
H16   H     H_    0.662251 0.000792 0.087403 0.189415
N5    N     N_3   0.064425 0.702315 0.594644 -0.459566
H17   H     H_    0.053260 0.669820 0.646688 0.197344
H18   H     H_    0.030690 0.700416 0.539330 0.182991
N6    N     N_3   0.929571 0.306832 0.625356 -0.419437
H19   H     H_    0.918341 0.340092 0.676435 0.193873
H20   H     H_    0.973892 0.317497 0.595511 0.221075
N7    N     N_3   0.901390 0.682201 0.651067 -0.416331
H21   H     H_    0.905036 0.730693 0.657434 0.197895
H22   H     H_    0.945380 0.669886 0.623426 0.186288
N8    N     N_3   0.058689 0.305269 0.399155 -0.437257
H23   H     H_    0.026432 0.275284 0.431818 0.191762
H24   H     H_    0.067189 0.293393 0.328949 0.248823
N9    N     N_3   0.562676 0.205845 0.405964 -0.380065
H25   H     H_    0.552834 0.250063 0.433381 0.200434
H26   H     H_    0.526176 0.177360 0.431280 0.189400
N10   N     N_3   0.441482 0.797561 0.405597 -0.451008
H27   H     H_    0.476938 0.802497 0.458114 0.162682
H28   H     H_    0.449252 0.830329 0.352541 0.241050
N11   N     N_3   0.434452 0.193051 0.611733 -0.427174
H29   H     H_    0.421244 0.212854 0.675990 0.201127
H30   H     H_    0.473098 0.216326 0.581826 0.209140
N12   N     N_3   0.601751 0.833915 0.333985 -0.387135
H31   H     H_    0.558504 0.811942 0.317016 0.174526
H32   H     H_    0.635854 0.825617 0.282050 0.255901
N13   N     N_3   0.294092 0.606616 0.332355 -0.472142
H33   H     H_    0.292962 0.619415 0.261207 0.202323
H34   H     H_    0.337649 0.584240 0.347676 0.184977
N14   N     N_3   0.723861 0.370861 0.291130 -0.477440
H35   H     H_    0.681043 0.395487 0.300394 0.184760
H36   H     H_    0.725053 0.353391 0.222319 0.194679
N15   N     N_3   0.718268 0.624665 0.282226 -0.375027
H37   H     H_    0.759928 0.635018 0.245253 0.263203
H38   H     H_    0.720323 0.579065 0.308187 0.194625
N16   N     N_3   0.311525 0.403582 0.627117 -0.474838
H39   H     H_    0.302890 0.439160 0.578140 0.195437
H40   H     H_    0.281485 0.409165 0.684971 0.226641
N17   N     N_3   0.805021 0.098602 0.648693 -0.464823
H41   H     H_    0.813618 0.110656 0.719204 0.185015
H42   H     H_    0.844083 0.073037 0.623844 0.205597
N18   N     N_3   0.218197 0.883207 0.684572 -0.461627
H43   H     H_    0.219244 0.868363 0.754798 0.212522
H44   H     H_    0.176059 0.908340 0.670822 0.250877
N19   N     N_3   0.195251 0.098044 0.359257 -0.439759
H45   H     H_    0.157769 0.074433 0.392109 0.200039
H46   H     H_    0.183406 0.105112 0.288185 0.262589
N20   N     N_3   0.703413 0.803893 0.765363 -0.400334
H47   H     H_    0.691415 0.771210 0.816857 0.230156
H48   H     H_    0.741615 0.831577 0.789314 0.272121
C101  C     C_2   0.912406 0.179722 0.630674 0.446001
H49   H     H_    0.915533 0.157294 0.699130 0.061860
O17   O     O_2   0.961439 0.186493 0.585527 -0.578693
C102  C     C_2   0.127972 0.783130 0.709099 0.436294
H50   H     H_    0.119392 0.740745 0.748742 0.068839
O18   O     O_2   0.098343 0.830265 0.729563 -0.556553
C103  C     C_2   0.089526 0.179278 0.377936 0.340877
H51   H     H_    0.051616 0.173916 0.428948 0.125868
O19   O     O_2   0.078680 0.166915 0.295158 -0.543987
C104  C     C_2   0.803031 0.708454 0.773371 0.422435
H52   H     H_    0.818559 0.660644 0.782814 0.163495
O20   O     O_2   0.812768 0.745398 0.837513 -0.558686
C105  C     C_2   0.382664 0.704515 0.305094 0.428841
H53   H     H_    0.411478 0.662659 0.297752 0.053736
O21   O     O_2   0.387007 0.745741 0.246161 -0.551750
C106  C     C_2   0.631979 0.272475 0.272943 0.440798
H54   H     H_    0.612503 0.315686 0.244911 0.056890
O22   O     O_2   0.617526 0.223543 0.233932 -0.529197
C107  C     C_2   0.609090 0.703255 0.290776 0.417411
H55   H     H_    0.559858 0.708444 0.313659 0.052699
O23   O     O_2   0.619176 0.691428 0.208051 -0.513818
C108  C     C_2   0.414201 0.324603 0.596912 0.390901
H56   H     H_    0.425021 0.346190 0.664550 0.091721
O24   O     O_2   0.455307 0.323544 0.536378 -0.587450
C109  C     C_2   0.882070 0.502177 0.742511 0.472426
H57   H     H_    0.864752 0.459941 0.708990 0.060737
O25   O     O_2   0.849307 0.549280 0.738516 -0.601679
C110  C     C_2   0.117071 0.482570 0.256544 0.452913
H58   H     H_    0.132629 0.514706 0.310596 0.081269
O26   O     O_2   0.149829 0.436508 0.241135 -0.566439
C111  C     C_2   0.117527 0.486967 0.747693 0.421281
H59   H     H_    0.133129 0.521066 0.697056 0.082103
O27   O     O_2   0.150848 0.440948 0.761969 -0.593918
C112  C     C_2   0.882769 0.516235 0.250033 0.391444
H60   H     H_    0.871682 0.491924 0.313986 0.106196
O28   O     O_2   0.844596 0.554923 0.220418 -0.639706
C113  C     C_2   0.383073 0.018155 0.743326 0.455512
H61   H     H_    0.367435 0.986142 0.689130 0.082428
O29   O     O_2   0.350554 0.064385 0.758683 -0.569632
C114  C     C_2   0.617841 0.985111 0.256308 0.461136
H62   H     H_    0.630941 0.014737 0.314695 0.115732
O30   O     O_2   0.654697 0.943267 0.235058 -0.587231
C115  C     C_2   0.617523 0.983587 0.748686 0.399703
H63   H     H_    0.628494 0.009452 0.686131 0.115016
O31   O     O_2   0.656084 0.944368 0.775826 -0.608898
C116  C     C_2   0.383009 0.017282 0.252093 0.434731
H64   H     H_    0.368408 0.985973 0.307263 0.094570
O32   O     O_2   0.349234 0.062378 0.233696 -0.575515

loop_
_geom_bond_atom_site_label_1
_geom_bond_atom_site_label_2
_geom_bond_distance
_ccdc_geom_bond_type
C16   N12   1.436469 S    
N15   H37   1.043757 S    
N13   H33   1.045547 S    
C83   C89   1.409624 A    
C17   C25   1.381781 A    
C79   C115  1.479879 S    
O2    C2    1.308439 A    
C59   N15   1.435066 S    
C105  H53   1.084854 S    
C62   N18   1.439333 S    
C64   N20   1.437640 S    
N7    H21   1.046310 S    
C14   C22   1.401483 A    
N19   H45   1.045535 S    
C25   H1    1.083174 S    
C87   C91   1.407485 A    
C114  O30   1.220510 D    
C106  O22   1.221397 D    
C29   C37   1.388121 A    
C91   C92   1.432418 A    
C12   C52   1.418519 A    
C78   N4    1.378649 A    
C109  H57   1.081954 S    
O10   C6    1.290067 A    
N15   H38   1.045609 S    
C10   C18   1.407121 A    
C94   C95   1.394188 A    
O7    Zn2   2.007442 S    
O14   C8    1.293135 A    
O12   Zn4   2.006697 S    
C54   C69   1.424223 A    
C27   C35   1.393027 A    
N10   H27   1.045776 S    
C75   C81   1.425495 A    
C95   H11   1.082087 S    
C53   C70   1.421010 A    
N19   H46   1.044962 S    
C82   C94   1.413312 A    
C13   N9    1.445583 S    
O6    Zn1   2.015553 S    
C81   C93   1.410104 A    
C57   N13   1.439410 S    
C46   C54   1.427188 A    
C83   C95   1.406079 A    
O13   C7    1.287464 A    
O3    C2    1.289946 A    
C20   C28   1.376772 A    
N9    H25   1.045769 S    
C68   C104  1.491271 S    
C101  O17   1.221264 D    
N16   H39   1.045612 S    
C16   C56   1.419100 A    
C39   C47   1.413424 A    
C21   C29   1.385857 A    
C33   C41   1.415448 A    
C41   C46   1.395352 A    
C38   C46   1.415780 A    
C100  H16   1.080665 S    
N11   H29   1.045290 S    
C73   C109  1.472462 S    
N17   H42   1.045478 S    
C35   C43   1.410636 A    
C93   C96   1.396844 A    
C87   C99   1.409916 A    
C36   C44   1.418821 A    
O13   Zn4   2.015556 S    
C79   C85   1.427142 A    
C104  H52   1.082477 S    
C77   C113  1.475484 S    
O14   Zn3   2.015553 S    
N9    H26   1.042914 S    
C15   C23   1.394183 A    
Zn2   N2    2.025114 S    
C59   C71   1.405073 A    
Zn1   N1    2.025112 S    
C97   C100  1.392812 A    
C11   N7    1.442938 S    
C24   C32   1.391981 A    
O16   Zn3   2.007445 S    
N14   H36   1.045469 S    
C77   N3    1.377826 A    
Zn3   N3    2.025112 S    
N13   H34   1.045308 S    
C70   C106  1.488197 S    
O1    Zn1   2.014078 S    
C8    C21   1.432600 S    
C105  O21   1.221101 D    
C42   C50   1.424223 A    
C112  H60   1.074311 S    
C116  O32   1.221097 D    
C76   C112  1.473190 S    
C114  H62   1.075139 S    
C10   C50   1.412749 A    
N18   H44   1.044876 S    
C31   C39   1.384010 A    
C9    C49   1.403095 A    
O7    C4    1.293854 A    
C109  O25   1.219099 D    
C31   H7    1.084006 S    
C104  O20   1.220387 D    
C74   C110  1.475387 S    
C80   C116  1.476092 S    
C30   H6    1.083520 S    
O8    C3    1.293577 A    
C107  H55   1.084802 S    
C30   C38   1.380259 A    
C44   C47   1.400454 A    
C80   C86   1.426568 A    
O3    Zn1   2.006697 S    
C74   C84   1.427680 A    
C110  H58   1.076629 S    
C38   C62   1.404384 A    
N6    H20   1.045855 S    
C45   C53   1.423258 A    
C37   C45   1.412933 A    
C111  H59   1.078588 S    
C34   C42   1.412752 A    
C62   C66   1.403156 A    
O5    C3    1.293366 A    
C58   N14   1.438587 S    
O12   C5    1.297541 A    
C32   H8    1.077438 S    
C58   C70   1.404467 A    
C103  H51   1.084326 S    
C88   C92   1.407977 A    
C1    C20   1.425690 S    
C102  O18   1.220629 D    
C60   C72   1.394478 A    
C33   C57   1.404344 A    
C2    C19   1.462244 S    
C86   C98   1.410170 A    
C3    C18   1.440741 S    
C111  O27   1.220946 D    
C5    C24   1.462743 S    
C35   C59   1.414070 A    
C71   C107  1.485610 S    
C6    C23   1.426273 S    
C26   H2    1.083593 S    
O11   Zn3   2.006697 S    
C63   C67   1.403666 A    
C9    N5    1.432904 S    
C26   C34   1.384307 A    
N11   H30   1.042306 S    
C113  H61   1.076864 S    
C63   N19   1.440174 S    
C115  O31   1.220489 D    
C86   C92   1.407839 A    
C48   C56   1.418506 A    
C112  O28   1.218702 D    
C51   C68   1.423567 A    
C7    C22   1.425703 S    
C40   C48   1.407147 A    
C89   C90   1.432050 A    
C84   C90   1.408135 A    
C55   C72   1.418068 A    
C22   C30   1.378109 A    
C76   C82   1.428594 A    
O4    C1    1.288737 A    
C13   C53   1.409753 A    
N14   H35   1.045336 S    
C61   N17   1.438513 S    
C96   H12   1.081400 S    
C43   C51   1.417587 A    
N17   H41   1.045305 S    
C65   C101  1.486089 S    
C108  O24   1.220862 D    
C12   C20   1.394468 A    
C84   C96   1.410223 A    
C73   C83   1.422760 A    
O10   Zn4   2.014077 S    
C16   C24   1.411714 A    
C47   C55   1.429318 A    
C72   C108  1.481457 S    
C10   N6    1.437069 S    
N20   H48   1.044909 S    
C98   H14   1.081095 S    
C52   C67   1.426354 A    
C85   C97   1.409976 A    
N18   H43   1.045467 S    
O9    Zn3   2.014078 S    
C19   C27   1.391572 A    
N12   H31   1.040952 S    
C93   H9    1.081390 S    
C28   C36   1.382450 A    
C43   C48   1.397637 A    
O15   C8    1.289709 A    
C28   H4    1.082541 S    
C42   C45   1.398544 A    
N7    H22   1.035108 S    
C88   C100  1.408832 A    
C79   N3    1.379256 A    
C78   C88   1.425503 A    
C15   C55   1.413655 A    
C39   C63   1.402592 A    
N6    H19   1.044904 S    
C12   N8    1.437758 S    
O2    Zn2   2.014077 S    
O4    Zn2   2.006697 S    
C57   C69   1.403260 A    
C14   N10   1.436391 S    
O16   C7    1.291875 A    
C81   C89   1.407535 A    
O6    C4    1.288175 A    
C69   C105  1.484915 S    
O11   C6    1.289377 A    
O1    C1    1.289813 A    
C36   C60   1.410965 A    
C75   N1    1.376631 A    
C13   C21   1.405100 A    
C102  H50   1.085186 S    
N5    H18   1.045551 S    
C98   C99   1.396244 A    
C85   C91   1.407925 A    
C60   N16   1.439441 S    
N12   H32   1.045295 S    
N5    H17   1.044008 S    
O8    Zn1   2.007445 S    
C76   N2    1.379216 A    
C4    C17   1.431184 S    
C40   C64   1.405468 A    
O9    C5    1.300042 A    
O15   Zn4   2.007442 S    
C64   C68   1.408621 A    
C23   C31   1.379453 A    
C74   N2    1.378522 A    
C25   C33   1.386284 A    
C78   C114  1.480111 S    
N10   H28   1.044108 S    
C113  O29   1.221157 D    
C11   C19   1.417700 A    
N8    H24   1.044879 S    
C41   C49   1.424100 A    
C44   C52   1.433941 A    
C101  H49   1.084574 S    
C37   C61   1.406029 A    
N16   H40   1.045421 S    
C66   C102  1.489323 S    
C18   C26   1.386364 A    
C15   N11   1.438826 S    
C99   H15   1.081369 S    
C56   C71   1.419089 A    
C29   H5    1.083907 S    
O5    Zn2   2.015556 S    
C82   C90   1.405974 A    
C80   N4    1.377228 A    
C97   H13   1.080087 S    
C106  H54   1.084418 S    
C94   H10   1.079955 S    
C32   C40   1.383131 A    
C108  H56   1.085248 S    
C116  H64   1.078355 S    
C9    C17   1.400086 A    
C115  H63   1.073875 S    
C107  O23   1.221032 D    
C27   H3    1.072920 S    
N8    H23   1.043318 S    
C77   C87   1.426012 A    
C14   C54   1.408524 A    
C67   C103  1.480870 S    
C34   C58   1.406339 A    
N20   H47   1.045373 S    
C50   C65   1.423306 A    
C73   N1    1.372345 A    
Zn4   N4    2.025114 S    
C61   C65   1.406494 A    
C49   C66   1.422235 A    
C110  O26   1.221141 D    
C75   C111  1.475404 S    
C11   C51   1.410156 A    
C103  O19   1.220855 D    
