data_mof_unit_44490.cif
_audit_creation_date              2013-03-05T16:48:40-0500
_audit_creation_method            fapswitch 2.2
_symmetry_space_group_name_H-M    P1
_symmetry_Int_Tables_number       1
_space_group_crystal_system       triclinic
_cell_length_a                    10.94695
_cell_length_b                    10.942502
_cell_length_c                    10.459776
_cell_angle_alpha                 91.715904
_cell_angle_beta                  90.950713
_cell_angle_gamma                 90.037948
_cell_volume                      1252.21033585

loop_
_atom_site_label
_atom_site_type_symbol
_atom_site_description
_atom_site_fract_x
_atom_site_fract_y
_atom_site_fract_z
_atom_type_partial_charge
O1    O     O_R   0.499990 0.319650 0.605810 -0.530150
O2    O     O_R   0.500010 0.680350 0.394190 -0.530159
O3    O     O_R   0.499990 0.319640 0.394190 -0.577468
O4    O     O_R   0.500010 0.680360 0.605810 -0.577448
C1    C     C_R   0.499010 0.261430 0.497850 0.914526
C2    C     C_R   0.500990 0.738570 0.502150 0.914486
O5    O     O_R   0.319640 0.500010 0.605810 -0.536399
O6    O     O_R   0.680360 0.499990 0.394190 -0.536442
O7    O     O_R   0.319650 0.500010 0.394190 -0.601256
O8    O     O_R   0.680350 0.499990 0.605810 -0.601250
C3    C     C_R   0.261430 0.503027 0.498040 0.874148
C4    C     C_R   0.738569 0.496977 0.501961 0.874187
Cu1   Cu    Cu3+1 0.500000 0.500000 0.625300 1.057392
Cu2   Cu    Cu3+1 0.500000 0.500000 0.374700 1.057357
H1    H     H_    0.234530 0.367699 0.919153 0.177851
H2    H     H_    0.765586 0.632440 0.080879 0.177810
C5    C     C_R   0.202358 0.502927 0.068486 -0.068936
C6    C     C_R   0.797672 0.497180 0.931556 -0.069126
H3    H     H_    0.240441 0.577666 0.017001 0.193477
H4    H     H_    0.759588 0.422462 0.983069 0.193489
C7    C     C_R   0.156094 0.525495 0.190090 -0.069174
C8    C     C_R   0.843889 0.474577 0.809937 -0.069049
H5    H     H_    0.154458 0.618403 0.228833 0.172814
H6    H     H_    0.845495 0.381662 0.771214 0.172811
C9    C     C_R   0.114699 0.428486 0.262835 0.114083
C10   C     C_R   0.885289 0.571561 0.737160 0.114154
C11   C     C_R   0.115868 0.308996 0.209776 0.057425
C12   C     C_R   0.884170 0.691059 0.790200 0.057364
H7    H     H_    0.082657 0.233226 0.263757 0.186238
H8    H     H_    0.917394 0.766808 0.736198 0.186162
C13   C     C_R   0.156280 0.287775 0.084867 -0.022837
C14   C     C_R   0.843799 0.712314 0.915119 -0.022624
H9    H     H_    0.154944 0.196011 0.043207 0.208699
H10   H     H_    0.845170 0.804085 0.956760 0.208705
C15   C     C_R   0.200574 0.384552 0.014666 -0.159010
C16   C     C_R   0.799504 0.615562 0.985355 -0.159095
C17   C     C_R   0.933073 0.441946 0.399998 0.324675
C18   C     C_R   0.066922 0.558036 0.600017 0.324713
C19   C     C_R   0.872652 0.491628 0.506749 -0.226646
C20   C     C_R   0.127344 0.508376 0.493256 -0.226671
C21   C     C_R   0.940649 0.543681 0.611165 -0.158880
C22   C     C_R   0.059343 0.456328 0.388839 -0.158867
H11   H     H_    0.601269 0.202295 0.906001 0.237281
H12   H     H_    0.398660 0.797666 0.093976 0.237230
C23   C     C_R   0.471723 0.181413 0.054891 -0.270701
C24   C     C_R   0.528222 0.818531 0.945098 -0.270670
H13   H     H_    0.396106 0.211538 0.996156 0.195065
H14   H     H_    0.603828 0.788371 0.003835 0.195070
C25   C     C_R   0.452284 0.147219 0.180615 0.655665
C26   C     C_R   0.547679 0.852740 0.819383 0.655713
C27   C     C_R   0.550186 0.107140 0.256470 0.041133
C28   C     C_R   0.449792 0.892858 0.743525 0.041118
C29   C     C_R   0.666314 0.095170 0.202237 -0.139222
C30   C     C_R   0.333663 0.904861 0.797749 -0.139239
H15   H     H_    0.740060 0.056621 0.258295 0.218947
H16   H     H_    0.259927 0.943432 0.741687 0.218912
C31   C     C_R   0.687063 0.130717 0.076276 0.370308
C32   C     C_R   0.312897 0.869302 0.923706 0.370385
C33   C     C_R   0.588483 0.174777 0.003406 -0.269709
C34   C     C_R   0.411460 0.825195 0.996575 -0.269734
C35   C     C_R   0.531392 0.930317 0.391518 0.547570
C36   C     C_R   0.468613 0.069684 0.608484 0.547559
C37   C     C_R   0.503057 0.872219 0.505350 -0.239939
C38   C     C_R   0.496945 0.127781 0.494651 -0.239923
C39   C     C_R   0.473040 0.943323 0.615964 -0.084813
C40   C     C_R   0.526959 0.056677 0.384036 -0.084787
N1    N     N_1   0.500010 0.499990 0.186410 -0.130422
N2    N     N_1   0.499990 0.500010 0.813590 -0.130411
C41   C     C_1   0.500156 0.500022 0.072049 0.072260
C42   C     C_1   0.499847 0.499978 0.927951 0.072274
N3    N     N_R   0.806858 0.120237 0.022246 0.153850
O9    O     O_R   0.898515 0.080496 0.090046 -0.313413
O10   O     O_R   0.825470 0.150277 0.904685 -0.349797
N4    N     N_R   0.193102 0.879810 0.977729 0.153856
O11   O     O_R   0.101492 0.919714 0.909979 -0.313487
O12   O     O_R   0.174449 0.849635 0.095240 -0.349887
F1    F     F_    0.563968 0.864020 0.285191 -0.677323
F2    F     F_    0.436041 0.135982 0.714813 -0.677338
N5    N     N_R   0.866767 0.366554 0.308644 0.123321
O13   O     O_R   0.860378 0.395048 0.189165 -0.386976
O14   O     O_R   0.806736 0.272499 0.347397 -0.401272
N6    N     N_R   0.133241 0.633337 0.691432 0.123312
O15   O     O_R   0.139593 0.604753 0.810881 -0.387030
O16   O     O_R   0.193277 0.727418 0.652779 -0.401300
F3    F     F_    0.337687 0.148353 0.227578 -0.682259
F4    F     F_    0.662281 0.851573 0.772429 -0.682256

loop_
_geom_bond_atom_site_label_1
_geom_bond_atom_site_label_2
_geom_bond_distance
_ccdc_geom_bond_type
C37   C39   1.418106 A    
C11   H7    1.082988 S    
C19   C21   1.416518 A    
O5    C3    1.286958 A    
C17   N5    1.431614 S    
N4    O12   1.301557 A    
O1    C1    1.279708 A    
C14   C16   1.397645 A    
C31   C33   1.404765 A    
C32   C34   1.404809 A    
C17   C22   1.398294 A    
O4    Cu1   1.990152 S    
C35   C37   1.405478 A    
C36   C38   1.405475 A    
C35   C40   1.388085 A    
C35   F1    1.362180 S    
C25   C27   1.401316 A    
C26   C28   1.401359 A    
Cu2   N1    1.969470 S    
C13   H9    1.082557 S    
H11   C33   1.082284 S    
C23   H13   1.080244 S    
Cu1   Cu2   2.621220 S    
C18   N6    1.431530 S    
O2    C2    1.279710 A    
H1    C15   1.082432 S    
C28   C30   1.405256 A    
C24   H14   1.080284 S    
C29   H15   1.083062 S    
C30   H16   1.083106 S    
N4    O11   1.301567 A    
C11   C13   1.399210 A    
C3    C20   1.469120 S    
C25   F3    1.354742 S    
C12   C14   1.399207 A    
C18   C21   1.398283 A    
O4    C2    1.274047 A    
N5    O14   1.299351 A    
C29   C31   1.406873 A    
C5    C7    1.392150 A    
C1    C38   1.461984 S    
C27   C29   1.405242 A    
C27   C40   1.484981 S    
C38   C40   1.418106 A    
C2    C37   1.461988 S    
O7    Cu2   1.988141 S    
C23   C25   1.397592 A    
O6    C4    1.286959 A    
C31   N3    1.439855 S    
O7    C3    1.268095 A    
O3    Cu2   1.990154 S    
O8    C4    1.268078 A    
N6    O16   1.299265 A    
C7    H5    1.083373 S    
C8    H6    1.083370 S    
O1    Cu1   1.977900 S    
C32   N4    1.439843 S    
N3    O10   1.301562 A    
C30   C32   1.406888 A    
C7    C9    1.403678 A    
C23   C33   1.396283 A    
O6    Cu2   1.981522 S    
C36   C39   1.388087 A    
C24   C34   1.396284 A    
C6    C8    1.392153 A    
C36   F2    1.362183 S    
O3    C1    1.274048 A    
O8    Cu1   1.988140 S    
C9    C22   1.483160 S    
C9    C11   1.405198 A    
C24   C26   1.397595 A    
C10   C12   1.405199 A    
C4    C19   1.469086 S    
C12   H8    1.082978 S    
N3    O9    1.301617 A    
C17   C19   1.403015 A    
H2    C16   1.082429 S    
C18   C20   1.403011 A    
H12   C34   1.082297 S    
C13   C15   1.397655 A    
C20   C22   1.416534 A    
C5    H3    1.079832 S    
C6    H4    1.079811 S    
C41   C42   1.507162 S    
O2    Cu2   1.977900 S    
C26   F4    1.354751 S    
N5    O13   1.297833 A    
O5    Cu1   1.981523 S    
N2    C42   1.196230 T    
N6    O15   1.297783 A    
C8    C10   1.403673 A    
C5    C15   1.396801 A    
N1    C41   1.196230 T    
C6    C16   1.396797 A    
C28   C39   1.484977 S    
C10   C21   1.483175 S    
C14   H10   1.082552 S    
Cu1   N2    1.969471 S    
