data_mof_unit_39230.cif
_audit_creation_date              2013-03-05T16:45:08-0500
_audit_creation_method            fapswitch 2.2
_symmetry_space_group_name_H-M    P1
_symmetry_Int_Tables_number       1
_space_group_crystal_system       triclinic
_cell_length_a                    15.110599
_cell_length_b                    15.048985
_cell_length_c                    9.856787
_cell_angle_alpha                 90.05449
_cell_angle_beta                  89.614977
_cell_angle_gamma                 89.953054
_cell_volume                      2241.3728725

loop_
_atom_site_label
_atom_site_type_symbol
_atom_site_description
_atom_site_fract_x
_atom_site_fract_y
_atom_site_fract_z
_atom_type_partial_charge
O1    O     O_R   0.408400 0.908380 0.614690 -0.618365
O2    O     O_R   0.408400 0.091620 0.614690 -0.617986
O3    O     O_R   0.908400 0.408380 0.614690 -0.616306
O4    O     O_R   0.908400 0.591620 0.614690 -0.619429
O5    O     O_R   0.408370 0.908370 0.385350 -0.619179
O6    O     O_R   0.408370 0.091630 0.385350 -0.622400
O7    O     O_R   0.908370 0.408370 0.385350 -0.619273
O8    O     O_R   0.908370 0.591630 0.385350 -0.622977
C1    C     C_R   0.377847 0.882259 0.500488 0.886250
C2    C     C_R   0.378726 0.118483 0.500580 0.877191
C3    C     C_R   0.878312 0.381901 0.500510 0.878038
C4    C     C_R   0.880066 0.619614 0.500175 0.876233
Zn1   Zn    Zn3+2 0.500010 1.000000 0.653130 0.937226
Zn2   Zn    Zn3+2 0.000010 0.500000 0.653130 0.938879
Zn3   Zn    Zn3+2 0.499980 1.000000 0.346870 0.930659
Zn4   Zn    Zn3+2 0.999980 0.500000 0.346870 0.931368
O9    O     O_R   0.591610 0.091610 0.614650 -0.616193
O10   O     O_R   0.591610 0.908390 0.614650 -0.621619
O11   O     O_R   0.091610 0.591610 0.614650 -0.617247
O12   O     O_R   0.091610 0.408390 0.614650 -0.615065
O13   O     O_R   0.591590 0.091600 0.385310 -0.622302
O14   O     O_R   0.591590 0.908400 0.385310 -0.625266
O15   O     O_R   0.091590 0.591600 0.385310 -0.622191
O16   O     O_R   0.091590 0.408400 0.385310 -0.620229
C5    C     C_R   0.616177 0.123707 0.499510 0.887676
C6    C     C_R   0.617484 0.877874 0.499258 0.896942
C7    C     C_R   0.115699 0.624279 0.499442 0.883216
C8    C     C_R   0.116368 0.376549 0.499521 0.889247
C9    C     C_R   0.292791 0.230514 0.615622 0.126735
C10   C     C_R   0.278410 0.784399 0.622090 0.132830
C11   C     C_R   0.825799 0.764125 0.567043 0.097841
C12   C     C_R   0.787287 0.275304 0.618683 0.130939
C13   C     C_R   0.305342 0.176249 0.503663 -0.130995
C14   C     C_R   0.301695 0.827585 0.503066 -0.136166
C15   C     C_R   0.813993 0.685058 0.497524 -0.114225
C16   C     C_R   0.803993 0.325157 0.503375 -0.134063
C17   C     C_R   0.241922 0.172472 0.401214 -0.272264
C18   C     C_R   0.246109 0.823220 0.390338 -0.273621
C19   C     C_R   0.742293 0.673276 0.410696 -0.262586
C20   C     C_R   0.743926 0.325307 0.396126 -0.270844
H1    H     H_    0.247012 0.122648 0.322113 0.157068
H2    H     H_    0.258284 0.865429 0.303120 0.159432
H3    H     H_    0.736921 0.612969 0.350867 0.149920
H4    H     H_    0.752048 0.371759 0.313099 0.154226
C21   C     C_R   0.674346 0.735538 0.409502 0.148380
C22   C     C_R   0.675429 0.263305 0.393876 0.147609
C23   C     C_R   0.173510 0.234644 0.399145 0.150307
C24   C     C_R   0.177340 0.761435 0.387810 0.148581
C25   C     C_R   0.682535 0.810748 0.495470 -0.115205
C26   C     C_R   0.671859 0.199977 0.501024 -0.143528
C27   C     C_R   0.173256 0.301392 0.501397 -0.142092
C28   C     C_R   0.169191 0.702549 0.500470 -0.147129
C29   C     C_R   0.760415 0.826562 0.565891 0.074025
C30   C     C_R   0.722365 0.212946 0.617027 0.111528
C31   C     C_R   0.227793 0.292859 0.613880 0.113547
C32   C     C_R   0.213335 0.722192 0.620522 0.108687
C33   C     C_3   0.774932 0.850978 0.711112 -0.474917
C34   C     C_3   0.775866 0.148399 0.697757 -0.487573
C35   C     C_3   0.283916 0.360554 0.683614 -0.480620
C36   C     C_3   0.261106 0.663429 0.718221 -0.483230
C37   C     C_3   0.356484 0.290883 0.685390 -0.488940
C38   C     C_3   0.333622 0.732975 0.719697 -0.479191
C39   C     C_3   0.847765 0.781465 0.712118 -0.467127
C40   C     C_3   0.848225 0.218140 0.699479 -0.480882
H5    H     H_    0.800069 0.919972 0.722385 0.191937
H6    H     H_    0.794021 0.087828 0.639058 0.192878
H7    H     H_    0.299649 0.418580 0.617937 0.189599
H8    H     H_    0.282222 0.599222 0.672246 0.194764
H9    H     H_    0.717807 0.833740 0.777787 0.215382
H10   H     H_    0.746473 0.135888 0.799614 0.199264
H11   H     H_    0.258132 0.377368 0.786390 0.204691
H12   H     H_    0.225673 0.658047 0.816995 0.197983
H13   H     H_    0.414567 0.308292 0.620864 0.197278
H14   H     H_    0.396959 0.709187 0.674735 0.199892
H15   H     H_    0.915021 0.810246 0.723780 0.198551
H16   H     H_    0.908617 0.198215 0.641933 0.196895
H17   H     H_    0.372697 0.267468 0.789218 0.202041
H18   H     H_    0.339742 0.767455 0.819005 0.202568
H19   H     H_    0.832615 0.724304 0.779372 0.205918
H20   H     H_    0.860447 0.245988 0.802171 0.204070
C41   C     C_R   0.423533 0.984383 0.071963 0.226552
C42   C     C_R   0.926242 0.474571 0.071961 0.231631
N1    N     N_R   0.499140 1.000000 0.142800 -0.106378
N2    N     N_R   0.999140 0.500000 0.142800 -0.104496
C43   C     C_R   0.576712 0.007015 0.071232 -0.152609
C44   C     C_R   0.075385 0.515947 0.071247 -0.157807
H21   H     H_    0.638424 0.014475 0.125028 0.147141
H22   H     H_    0.135894 0.530322 0.124960 0.143869
C45   C     C_R   0.576732 0.006897 0.927166 -0.135277
C46   C     C_R   0.075409 0.515790 0.927196 -0.135806
H23   H     H_    0.638471 0.013982 0.872129 0.142613
H24   H     H_    0.135967 0.529524 0.872248 0.142857
N3    N     N_R   0.499160 0.000000 0.857150 -0.106058
N4    N     N_R   0.999160 0.500000 0.857150 -0.105384
C47   C     C_R   0.423571 0.984243 0.929379 0.215732
C48   C     C_R   0.926342 0.474264 0.929435 0.218052
C49   C     C_3   0.340851 0.038069 0.924137 -0.503404
C50   C     C_3   0.837007 0.515992 0.924217 -0.507921
C51   C     C_3   0.340996 0.038634 0.078179 -0.535153
C52   C     C_3   0.837140 0.517037 0.078331 -0.528365
H25   H     H_    0.351456 0.104934 0.879093 0.219447
H26   H     H_    0.284819 0.999934 0.880589 0.200040
H27   H     H_    0.838315 0.583369 0.878766 0.212596
H28   H     H_    0.786783 0.470270 0.880948 0.201512
H29   H     H_    0.352131 0.105859 0.121699 0.221552
H30   H     H_    0.284771 0.001225 0.123624 0.189372
H31   H     H_    0.838998 0.585184 0.121941 0.221172
H32   H     H_    0.786471 0.472426 0.123677 0.188448
C53   C     C_3   0.592675 0.715384 0.325917 -0.393537
C54   C     C_3   0.514912 0.687778 0.416015 -0.863496
H33   H     H_    0.499076 0.740464 0.490842 0.243471
H34   H     H_    0.455588 0.675995 0.352539 0.248608
H35   H     H_    0.531090 0.625538 0.471181 0.254326
H36   H     H_    0.574182 0.772774 0.261707 0.229506
H37   H     H_    0.606087 0.659981 0.253880 0.194416
C55   C     C_3   0.610259 0.267402 0.277378 -0.381137
C56   C     C_3   0.518410 0.295264 0.326910 -0.835718
H38   H     H_    0.471370 0.294222 0.240860 0.245406
H39   H     H_    0.493800 0.249619 0.406573 0.250162
H40   H     H_    0.520731 0.363651 0.369281 0.245571
H41   H     H_    0.631882 0.317116 0.200628 0.185784
H42   H     H_    0.607426 0.203605 0.221489 0.228018
C57   C     C_3   0.104425 0.226946 0.288638 -0.384317
C58   C     C_3   0.014855 0.199437 0.347397 -0.841607
H43   H     H_    0.992738 0.246693 0.426787 0.246986
H44   H     H_    0.964669 0.198121 0.265633 0.246885
H45   H     H_    0.019543 0.132070 0.392817 0.247826
H46   H     H_    0.098614 0.289392 0.229998 0.228918
H47   H     H_    0.124081 0.175623 0.212942 0.191227
C59   C     C_3   0.117128 0.760985 0.264994 -0.383775
C60   C     C_3   0.023211 0.789387 0.303344 -0.814987
H48   H     H_    0.979399 0.782984 0.213803 0.243603
H49   H     H_    0.996368 0.747562 0.386289 0.254530
H50   H     H_    0.023004 0.859802 0.337449 0.243589
H51   H     H_    0.141399 0.808385 0.186677 0.184301
H52   H     H_    0.117277 0.695542 0.213663 0.224441

loop_
_geom_bond_atom_site_label_1
_geom_bond_atom_site_label_2
_geom_bond_distance
_ccdc_geom_bond_type
C31   C35   1.495797 S    
C59   H51   1.112172 S    
O10   C6    1.284584 A    
C60   H50   1.111418 S    
C57   C58   1.526279 S    
C39   H19   1.109587 S    
O7    C3    1.283614 A    
C26   C30   1.392656 A    
C55   H42   1.107454 S    
Zn1   O10   1.987246 S    
C12   C16   1.384351 A    
C3    C16   1.411507 S    
C42   C48   1.404840 A    
N2    C44   1.368293 A    
C18   H2    1.084197 S    
C56   H39   1.106442 S    
C41   C47   1.405421 A    
C8    C27   1.420279 S    
C21   C53   1.519070 S    
C36   H12   1.111007 S    
C50   H27   1.109058 S    
Zn3   N1    2.011601 S    
C9    C13   1.384162 A    
Zn4   N2    2.011601 S    
C55   C56   1.526424 S    
C36   C38   1.516020 S    
O2    Zn1   1.991424 S    
C54   H33   1.107293 S    
C49   C51   1.518396 S    
O6    Zn3   1.987559 S    
C5    C26   1.423826 S    
C46   H24   1.080404 S    
C34   H6    1.112367 S    
Zn3   O14   1.991216 S    
C37   H17   1.111518 S    
C48   C50   1.489573 S    
C33   C39   1.517862 S    
O15   C7    1.282536 A    
C17   C23   1.393974 A    
O11   C7    1.288233 A    
C18   C24   1.395302 A    
C49   H26   1.111609 S    
C19   C21   1.389544 A    
C35   H7    1.112420 S    
Zn4   O16   1.991216 S    
C57   H47   1.112209 S    
O4    Zn2   1.991424 S    
C40   H20   1.111820 S    
C24   C59   1.519247 S    
C12   C30   1.358292 A    
C41   N1    1.363387 A    
C46   N4    1.368020 A    
C43   H21   1.081690 S    
C34   C40   1.516371 S    
C51   H29   1.111850 S    
C9    C37   1.494555 S    
C52   H32   1.110640 S    
C35   C37   1.516723 S    
C55   H41   1.112173 S    
C10   C14   1.385226 A    
C11   C39   1.492954 S    
C16   C20   1.397947 A    
O1    C1    1.281105 A    
C12   C40   1.494011 S    
C44   C46   1.419877 A    
C6    C25   1.409208 S    
C43   C45   1.420018 A    
C34   H10   1.111404 S    
C19   H3    1.085240 S    
C41   C51   1.490962 S    
C27   C31   1.391847 A    
C37   H13   1.112054 S    
C10   C32   1.358390 A    
C45   N3    1.368198 A    
C13   C17   1.397979 A    
C32   C36   1.496798 S    
Zn1   N3    2.010937 S    
C15   C19   1.396501 A    
O5    C1    1.284215 A    
Zn2   O12   1.987246 S    
C23   C57   1.518182 S    
C24   C28   1.426115 A    
O8    C4    1.278103 A    
C21   C25   1.419233 A    
C40   H16   1.112058 S    
C11   C29   1.363013 A    
C4    C15   1.402231 S    
N4    C48   1.363471 A    
C54   H35   1.111353 S    
O3    Zn2   1.992495 S    
C53   H36   1.107964 S    
C58   H45   1.111040 S    
O7    Zn4   1.989633 S    
N1    C43   1.368199 A    
Zn4   O15   1.992287 S    
C42   N2    1.363041 A    
C10   C38   1.493873 S    
C1    C14   1.415255 S    
C11   C15   1.384774 A    
C56   H40   1.110971 S    
O4    C4    1.281391 A    
C20   C22   1.394365 A    
C60   H48   1.110995 S    
O2    C2    1.279415 A    
O12   C8    1.284642 A    
C7    C28   1.429158 S    
C58   H44   1.110497 S    
C30   C34   1.496371 S    
C51   H30   1.111547 S    
O13   C5    1.281973 A    
C52   H31   1.112068 S    
C29   C33   1.495139 S    
C14   C18   1.398904 A    
C42   C52   1.490792 S    
Zn2   O11   1.989318 S    
C38   H18   1.111890 S    
C59   H52   1.106779 S    
O16   C8    1.282048 A    
C33   H5    1.111598 S    
C60   H49   1.107272 S    
O6    C2    1.282960 A    
C23   C27   1.422272 A    
C47   C49   1.490112 S    
C22   C55   1.518995 S    
C9    C31   1.357922 A    
C22   C26   1.424020 A    
C50   C52   1.519145 S    
Zn1   O9    1.989318 S    
O9    C5    1.286394 A    
C59   C60   1.526778 S    
C53   C54   1.526268 S    
C57   H46   1.107472 S    
N3    C47   1.362919 A    
Zn3   O13   1.992287 S    
C39   H15   1.111681 S    
C25   C29   1.390841 A    
Zn2   N4    2.010937 S    
C2    C13   1.408602 S    
C44   H22   1.081525 S    
C17   H1    1.083505 S    
C54   H34   1.110879 S    
O5    Zn3   1.989633 S    
O3    C3    1.280011 A    
C53   H37   1.112229 S    
C20   H4    1.083222 S    
O1    Zn1   1.992496 S    
C36   H8    1.112433 S    
O8    Zn4   1.987559 S    
C45   H23   1.081411 S    
O14   C6    1.277577 A    
C38   H14   1.110839 S    
C33   H9    1.112372 S    
C56   H38   1.110401 S    
C50   H28   1.111718 S    
C49   H25   1.111536 S    
C28   C32   1.393864 A    
C35   H11   1.111797 S    
C58   H43   1.106722 S    
