data_mof_unit_63464.cif
_audit_creation_date              2012-12-10T18:20:21-0500
_audit_creation_method            fapswitch 2.2
_symmetry_space_group_name_H-M    P1
_symmetry_Int_Tables_number       1
_space_group_crystal_system       triclinic
_cell_length_a                    21.479475
_cell_length_b                    21.47948
_cell_length_c                    22.074273
_cell_angle_alpha                 119.246019
_cell_angle_beta                  119.360574
_cell_angle_gamma                 89.96363
_cell_volume                      7352.61632289

loop_
_atom_site_label
_atom_site_type_symbol
_atom_type_description
_atom_site_fract_x
_atom_site_fract_y
_atom_site_fract_z
_atom_type_partial_charge
C1    C     C_R   0.500871 0.122320 0.501910 0.827252
C2    C     C_R   0.499108 0.877660 0.498049 0.826978
C3    C     C_3   0.711105 0.206570 0.917736 0.081361
C4    C     C_3   0.288832 0.793361 0.082265 0.081346
C5    C     C_3   0.750990 0.335432 0.048129 -0.396688
C6    C     C_3   0.251148 0.665440 0.951883 -0.396311
C7    C     C_3   0.792971 0.289910 0.082458 0.160166
C8    C     C_3   0.206991 0.710047 0.917540 0.159872
C9    C     C_3   0.734477 0.219632 0.048796 -0.445860
C10   C     C_3   0.263586 0.781738 0.951194 -0.445839
C11   C     C_3   0.684351 0.171284 0.951476 1.160352
C12   C     C_3   0.313721 0.830134 0.048512 1.160265
C13   C     C_1   0.838059 0.336273 0.173915 -0.042347
C14   C     C_1   0.161922 0.663711 0.826084 -0.042246
C15   C     C_1   0.664241 0.161755 0.826052 -0.023282
C16   C     C_1   0.335736 0.838207 0.173948 -0.023359
C17   C     C_1   0.626075 0.124932 0.751006 -0.158352
C18   C     C_1   0.373920 0.875052 0.248994 -0.158397
C19   C     C_3   0.444676 0.226607 0.520996 -0.365424
C20   C     C_3   0.555037 0.773180 0.478554 -0.365624
C21   C     C_3   0.446800 0.298506 0.521958 -0.416994
C22   C     C_3   0.552927 0.701287 0.477606 -0.416768
C23   C     C_R   0.581175 0.081009 0.662058 0.898583
C24   C     C_R   0.418825 0.918991 0.337942 0.898651
C25   C     C_3   0.580968 0.248747 0.569215 -0.397182
C26   C     C_3   0.418933 0.751362 0.431038 -0.396969
C27   C     C_3   0.478092 0.169713 0.414487 -0.390610
C28   C     C_3   0.522268 0.830348 0.585611 -0.390803
C29   C     C_3   0.501023 0.190478 0.501865 0.159576
C30   C     C_3   0.498960 0.809504 0.498097 0.159785
C31   C     C_3   0.501936 0.310283 0.499944 0.166189
C32   C     C_3   0.498090 0.689718 0.500053 0.165974
C33   C     C_3   0.581990 0.318838 0.566493 -0.397331
C34   C     C_3   0.417945 0.681289 0.433798 -0.397583
C35   C     C_3   0.476705 0.240167 0.412510 -0.366755
C36   C     C_3   0.523689 0.759903 0.587605 -0.366512
C37   C     C_3   0.684354 0.523952 0.441183 -0.437926
C38   C     C_3   0.316171 0.477305 0.560002 -0.437245
C39   C     C_3   0.831820 0.557251 0.587568 -0.538496
C40   C     C_3   0.168337 0.441631 0.412670 -0.538354
C41   C     C_3   0.761505 0.557706 0.589827 -0.379946
C42   C     C_3   0.238662 0.441161 0.410427 -0.380287
C43   C     C_3   0.689874 0.501505 0.500187 0.094334
C44   C     C_3   0.310127 0.498371 0.499803 0.094521
C45   C     C_3   0.768357 0.420219 0.468213 -0.333604
C46   C     C_3   0.230854 0.579297 0.530113 -0.332918
C47   C     C_3   0.696700 0.421456 0.467747 -0.417213
C48   C     C_3   0.302577 0.578076 0.530723 -0.417674
C49   C     C_R   0.877457 0.498648 0.497322 0.885734
C50   C     C_R   0.122480 0.501290 0.502546 0.885980
C51   C     C_R   0.919210 0.418893 0.337930 0.924645
C52   C     C_R   0.080791 0.581106 0.662070 0.925336
C53   C     C_R   0.378179 0.498324 0.499678 0.862997
C54   C     C_R   0.621827 0.501547 0.500325 0.862948
C55   C     C_R   0.502046 0.378335 0.499869 0.834479
C56   C     C_R   0.497987 0.621667 0.500133 0.834878
C57   C     C_3   0.809232 0.498855 0.497300 0.061586
C58   C     C_3   0.190715 0.501081 0.502586 0.061569
C59   C     C_3   0.754340 0.520973 0.438064 0.489620
C60   C     C_3   0.246168 0.480388 0.563085 0.488737
C61   C     C_3   0.703651 0.286793 0.951115 -0.482521
C62   C     C_3   0.298491 0.714033 0.048895 -0.482472
C63   C     C_3   0.796150 0.214456 0.952380 -0.249012
C64   C     C_3   0.203506 0.783096 0.047619 -0.248985
C65   C     C_3   0.844154 0.263732 0.050406 -0.381749
C66   C     C_3   0.155505 0.733869 0.949593 -0.381819
C67   C     C_1   0.875134 0.374180 0.248967 -0.157590
C68   C     C_1   0.124858 0.625816 0.751032 -0.157319
H1    H     H_    0.632954 0.485463 0.376684 0.226074
H2    H     H_    0.367489 0.516514 0.624358 0.226335
H3    H     H_    0.876616 0.233660 0.077734 0.224535
H4    H     H_    0.121532 0.763256 0.922253 0.224407
H5    H     H_    0.698774 0.237206 0.073594 0.193169
H6    H     H_    0.299436 0.765844 0.926399 0.193181
H7    H     H_    0.643725 0.284111 0.926518 0.230592
H8    H     H_    0.358722 0.718389 0.073487 0.230811
H9    H     H_    0.713468 0.354309 0.070081 0.205897
H10   H     H_    0.288908 0.648262 0.929922 0.206154
H11   H     H_    0.764016 0.185623 0.071787 0.196098
H12   H     H_    0.232463 0.815078 0.928190 0.195968
H13   H     H_    0.459136 0.240337 0.582871 0.171688
H14   H     H_    0.540309 0.759403 0.416576 0.171449
H15   H     H_    0.386430 0.186543 0.472456 0.186068
H16   H     H_    0.613343 0.813140 0.526883 0.186025
H17   H     H_    0.389309 0.293994 0.475921 0.157464
H18   H     H_    0.610474 0.705694 0.523421 0.157322
H19   H     H_    0.753559 0.376617 0.404276 0.210945
H20   H     H_    0.245464 0.623629 0.593732 0.211421
H21   H     H_    0.464714 0.347395 0.585167 0.179060
H22   H     H_    0.534744 0.652356 0.414307 0.179304
H23   H     H_    0.597923 0.264830 0.632638 0.155699
H24   H     H_    0.401708 0.735219 0.367517 0.155585
H25   H     H_    0.602401 0.369119 0.629881 0.186986
H26   H     H_    0.397274 0.630961 0.370343 0.186883
H27   H     H_    0.518616 0.145296 0.400172 0.190181
H28   H     H_    0.481936 0.854904 0.600217 0.190230
H29   H     H_    0.421492 0.126563 0.365029 0.174778
H30   H     H_    0.578931 0.873410 0.634867 0.174306
H31   H     H_    0.418641 0.231590 0.363655 0.192738
H32   H     H_    0.581824 0.768384 0.636245 0.192510
H33   H     H_    0.514695 0.248467 0.394591 0.170039
H34   H     H_    0.485923 0.751756 0.605837 0.170362
H35   H     H_    0.623063 0.224565 0.558155 0.187334
H36   H     H_    0.377019 0.775682 0.442389 0.187439
H37   H     H_    0.622186 0.326651 0.550905 0.151442
H38   H     H_    0.377967 0.673635 0.449703 0.151479
H39   H     H_    0.679839 0.581742 0.464188 0.109921
H40   H     H_    0.321175 0.419751 0.538070 0.110033
H41   H     H_    0.646846 0.380459 0.402790 0.196153
H42   H     H_    0.352307 0.619783 0.595496 0.195670
H43   H     H_    0.872452 0.543463 0.631500 0.191799
H44   H     H_    0.127263 0.454365 0.367850 0.191246
H45   H     H_    0.860045 0.614329 0.609405 0.182691
H46   H     H_    0.140700 0.384830 0.391969 0.183261
H47   H     H_    0.805859 0.404197 0.511290 0.177311
H48   H     H_    0.192925 0.594251 0.486084 0.176811
H49   H     H_    0.756931 0.615520 0.615033 0.178773
H50   H     H_    0.243796 0.383572 0.386285 0.178037
H51   H     H_    0.767507 0.542014 0.633173 0.195868
H52   H     H_    0.232222 0.455866 0.366224 0.196376
H53   H     H_    0.698640 0.403540 0.508072 0.152527
H54   H     H_    0.300273 0.595031 0.489548 0.152818
H55   H     H_    0.782209 0.577395 0.458156 0.093766
H56   H     H_    0.218815 0.424305 0.544146 0.093725
H57   H     H_    0.792048 0.386664 0.072310 0.187077
H58   H     H_    0.211475 0.613231 0.927712 0.187280
H59   H     H_    0.722994 0.314011 0.928795 0.185240
H60   H     H_    0.280516 0.685781 0.071225 0.185280
H61   H     H_    0.814621 0.245134 0.932425 0.122126
H62   H     H_    0.186482 0.751452 0.067579 0.121987
H63   H     H_    0.886463 0.313693 0.073979 0.162385
H64   H     H_    0.114551 0.682871 0.926023 0.162463
O1    O     O_R   0.447710 0.092600 0.500010 -0.629741
O2    O     O_R   0.552290 0.907400 0.499990 -0.629899
O3    O     O_R   0.441990 0.534630 0.569310 -0.624349
O4    O     O_R   0.558010 0.465370 0.430690 -0.624354
O5    O     O_R   0.465370 0.372730 0.430660 -0.627352
O6    O     O_R   0.534630 0.627270 0.569340 -0.627221
O7    O     O_R   0.534650 0.442080 0.569370 -0.628800
O8    O     O_R   0.465350 0.557920 0.430630 -0.628703
O9    O     O_R   0.552280 0.092600 0.499960 -0.626490
O10   O     O_R   0.447720 0.907400 0.500040 -0.626477
O11   O     O_R   0.509140 0.061430 0.622880 -0.597108
O12   O     O_R   0.490860 0.938570 0.377120 -0.597608
O13   O     O_R   0.613710 0.061430 0.622840 -0.626275
O14   O     O_R   0.386290 0.938570 0.377160 -0.626059
O15   O     O_R   0.907580 0.552300 0.500030 -0.629460
O16   O     O_R   0.092420 0.447700 0.499970 -0.630143
O17   O     O_R   0.907560 0.447760 0.500050 -0.634997
O18   O     O_R   0.092440 0.552240 0.499950 -0.634692
O19   O     O_R   0.938770 0.490850 0.377130 -0.609447
O20   O     O_R   0.061230 0.509150 0.622870 -0.609779
O21   O     O_R   0.938740 0.386300 0.377150 -0.616674
O22   O     O_R   0.061260 0.613700 0.622850 -0.616448
O23   O     O_R   0.372700 0.465280 0.430600 -0.630325
O24   O     O_R   0.627300 0.534720 0.569400 -0.630340
Zn1   Zn    Zn3+2 0.430180 0.000000 0.500030 0.963578
Zn2   Zn    Zn3+2 0.569820 0.000000 0.499970 0.962942
Zn3   Zn    Zn3+2 0.000200 0.569810 0.499990 0.974816
Zn4   Zn    Zn3+2 0.999800 0.430190 0.500010 0.974002
Zn5   Zn    Zn3+2 0.453740 0.453690 0.407380 0.946762
Zn6   Zn    Zn3+2 0.546260 0.546310 0.592620 0.946911
F1    F     F_    0.610134 0.167992 0.924161 -0.663362
F2    F     F_    0.388263 0.835554 0.075835 -0.663410
F3    F     F_    0.687670 0.098494 0.921441 -0.648759
F4    F     F_    0.308381 0.902235 0.078534 -0.649078
F5    F     F_    0.733202 0.469727 0.356428 -0.673493
F6    F     F_    0.267174 0.532634 0.644447 -0.673767
C69   C     C_2   0.809255 0.138999 0.914796 0.509126
H65   H     H_    0.787424 0.105866 0.848503 0.054083
O25   O     O_2   0.843474 0.114220 0.956649 -0.535434
C70   C     C_2   0.188444 0.857393 0.085199 0.509007
H66   H     H_    0.210369 0.890171 0.151512 0.054560
O26   O     O_2   0.152522 0.881619 0.043307 -0.535670

loop_
_geom_bond_atom_site_label_1
_geom_bond_atom_site_label_2
_ccdc_geom_bond_type
C28   H28   S    
C62   H60   S    
C63   C65   S    
C8    C66   S    
C22   H18   S    
C20   H14   S    
C27   C29   S    
C9    H11   S    
C69   O25   D    
C69   H65   S    
C27   H27   S    
C53   O3    A    
C3    C11   S    
C62   H8    S    
C38   H2    S    
C49   C57   S    
C39   C41   S    
O14   Zn1   S    
C20   C30   S    
O23   Zn5   S    
C23   O13   A    
C45   C57   S    
C17   C23   S    
C22   C32   S    
C18   C24   S    
C32   C36   S    
C45   H19   S    
C37   H39   S    
C37   H1    S    
C54   O24   A    
C56   O8    A    
C1    O1    A    
O20   Zn4   S    
C47   H53   S    
C12   F2    S    
C52   O22   A    
C39   C57   S    
C4    C62   S    
C55   O7    A    
C49   O15   A    
C6    H10   S    
C36   H34   S    
O16   Zn4   S    
C45   C47   S    
C60   H56   S    
C50   O18   A    
C26   H36   S    
C44   C53   S    
C26   C34   S    
C40   H46   S    
C66   H4    S    
C39   H45   S    
C31   C33   S    
C4    C12   S    
C46   H20   S    
C52   C68   S    
C9    C11   S    
C40   C42   S    
O24   Zn6   S    
C46   C58   S    
C59   H55   S    
C41   C43   S    
C23   O11   A    
C42   C44   S    
C19   H15   S    
C1    C29   S    
C65   H63   S    
C70   O26   D    
O11   Zn1   S    
C58   C60   S    
C66   H64   S    
O4    Zn5   S    
C3    C61   S    
C25   C29   S    
C12   F4    S    
C46   C48   S    
C25   H23   S    
C40   C58   S    
O18   Zn3   S    
C50   C58   S    
C33   H37   S    
C6    H58   S    
C40   H44   S    
C5    C7    S    
C10   H12   S    
C42   H50   S    
C21   H21   S    
C27   C35   S    
O8    Zn5   S    
C65   H3    S    
C60   F6    S    
C21   H17   S    
C61   H7    S    
O19   Zn3   S    
C4    C16   S    
C38   C44   S    
C7    C65   S    
C56   O6    A    
C45   H47   S    
C43   C54   S    
C48   H54   S    
C52   O20   A    
C54   O4    A    
C21   C31   S    
C11   F1    S    
C22   H22   S    
C5    C61   S    
C36   H32   S    
C51   C67   S    
C41   H51   S    
C35   H31   S    
C50   O16   A    
C64   C66   S    
C37   C59   S    
C10   C12   S    
C38   C60   S    
C16   C18   T    
O2    Zn2   S    
C20   C22   S    
C53   O23   A    
C3    C63   S    
C20   H16   S    
C2    O10   A    
O3    Zn6   S    
C31   C35   S    
C37   C43   S    
C57   C59   S    
O10   Zn1   S    
O12   Zn2   S    
C19   C29   S    
C59   F5    S    
C70   H66   S    
O15   Zn3   S    
C13   C67   T    
C28   H30   S    
C15   C17   T    
C51   O21   A    
C8    C14   S    
C19   C21   S    
C9    H5    S    
O7    Zn6   S    
C25   H35   S    
C34   H26   S    
C64   H62   S    
C35   H33   S    
C33   H25   S    
C6    C8    S    
C2    O2    A    
C26   C30   S    
C61   H59   S    
C49   O17   A    
C4    C64   S    
C55   O5    A    
C46   H48   S    
C2    C30   S    
C31   C55   S    
C6    C62   S    
O21   Zn4   S    
C28   C30   S    
O22   Zn3   S    
O6    Zn6   S    
C47   H41   S    
O5    Zn5   S    
O13   Zn2   S    
C10   H6    S    
C32   C34   S    
C42   H52   S    
C43   C47   S    
C24   O12   A    
C39   H43   S    
C5    H9    S    
C34   H38   S    
O1    Zn1   S    
C63   H61   S    
C38   H40   S    
O17   Zn4   S    
C64   C70   S    
C1    O9    A    
C27   H29   S    
C51   O19   A    
C7    C9    S    
O9    Zn2   S    
C7    C13   S    
C28   C36   S    
C8    C10   S    
C5    H57   S    
C11   F3    S    
C14   C68   T    
C3    C15   S    
C24   O14   A    
C41   H49   S    
C48   H42   S    
C19   H13   S    
C26   H24   S    
C32   C56   S    
C44   C48   S    
C25   C33   S    
C63   C69   S    
