data_mof_unit_61686.cif
_audit_creation_date              2012-12-10T19:37:32-0500
_audit_creation_method            fapswitch 2.2
_symmetry_space_group_name_H-M    P1
_symmetry_Int_Tables_number       1
_space_group_crystal_system       triclinic
_cell_length_a                    30.52004
_cell_length_b                    30.520043
_cell_length_c                    39.795414
_cell_angle_alpha                 90.000019
_cell_angle_beta                  90.000012
_cell_angle_gamma                 90.0
_cell_volume                      37068.351005

loop_
_atom_site_label
_atom_site_type_symbol
_atom_type_description
_atom_site_fract_x
_atom_site_fract_y
_atom_site_fract_z
_atom_type_partial_charge
C1    C     C_R   0.500000 0.000000 0.159076 0.809553
C2    C     C_R   0.039272 0.494207 0.895765 -0.223703
C3    C     C_R   0.685591 0.148900 0.726626 0.395270
C4    C     C_R   0.854385 0.688876 0.269800 0.395053
C5    C     C_R   0.148842 0.314850 0.726215 0.439332
C6    C     C_R   0.689006 0.144986 0.269586 0.438946
C7    C     C_R   0.314403 0.851107 0.726630 0.394868
C8    C     C_R   0.144982 0.689009 0.730416 0.438773
C9    C     C_R   0.851103 0.314406 0.273372 0.395270
C10   C     C_R   0.311124 0.145615 0.730199 0.395053
C11   C     C_R   0.685150 0.851159 0.273784 0.439331
C12   C     C_R   0.855012 0.310995 0.730412 0.438949
C13   C     C_R   0.494203 0.039273 0.104236 -0.226573
C14   C     C_R   0.148896 0.685594 0.273373 0.394869
C15   C     C_R   0.689006 0.855015 0.730413 0.438827
C16   C     C_R   0.314407 0.148898 0.273374 0.395271
C17   C     C_R   0.644979 0.810987 0.769577 0.438704
C18   C     C_R   0.351095 0.185585 0.226615 0.395413
C19   C     C_R   0.810985 0.355023 0.769576 0.438652
C20   C     C_R   0.185583 0.648906 0.226614 0.395411
C21   C     C_R   0.354390 0.188882 0.769792 0.394961
C22   C     C_R   0.648848 0.814858 0.226204 0.439441
C23   C     C_R   0.189013 0.644980 0.769576 0.438832
C24   C     C_R   0.494201 0.960728 0.895764 -0.226623
C25   C     C_R   0.814409 0.351102 0.226620 0.395014
C26   C     C_R   0.644976 0.189016 0.230425 0.438649
C27   C     C_R   0.351097 0.814414 0.773383 0.395410
C28   C     C_R   0.811118 0.645609 0.230209 0.394961
C29   C     C_R   0.185141 0.351151 0.773796 0.439442
C30   C     C_R   0.355018 0.810989 0.230422 0.438838
C31   C     C_R   0.648900 0.185588 0.773382 0.395015
C32   C     C_R   0.189013 0.355021 0.230423 0.438708
C33   C     C_R   0.814415 0.648904 0.773385 0.395411
C34   C     C_R   0.183568 0.316437 0.250004 -0.153740
C35   C     C_R   0.039272 0.505799 0.104236 -0.226623
C36   C     C_R   0.816548 0.683457 0.750005 -0.012219
C37   C     C_R   0.316435 0.816434 0.250003 -0.154237
C38   C     C_R   0.683454 0.183455 0.750004 -0.011904
C39   C     C_R   0.816542 0.683452 0.250004 -0.011684
C40   C     C_R   0.183561 0.316432 0.750006 -0.154915
C41   C     C_R   0.683560 0.183570 0.250005 -0.154238
C42   C     C_R   0.316541 0.816551 0.750006 -0.011900
C43   C     C_R   0.183566 0.683565 0.749997 -0.154237
C44   C     C_R   0.816546 0.316546 0.249996 -0.011904
C45   C     C_R   0.316548 0.183458 0.749996 -0.011684
C46   C     C_R   0.960727 0.505797 0.895764 -0.226573
C47   C     C_R   0.683568 0.816439 0.249994 -0.154915
C48   C     C_R   0.816429 0.316440 0.749994 -0.154237
C49   C     C_R   0.183449 0.683459 0.249994 -0.011902
C50   C     C_R   0.683562 0.816432 0.749995 -0.153739
C51   C     C_R   0.316543 0.183451 0.249995 -0.012219
C52   C     C_R   0.118335 0.381669 0.250003 -0.205965
C53   C     C_R   0.881662 0.618342 0.750003 -0.091023
C54   C     C_R   0.381668 0.881666 0.250002 -0.206438
C55   C     C_R   0.618341 0.118339 0.750003 -0.090570
C56   C     C_R   0.881657 0.618339 0.250003 -0.090177
C57   C     C_R   0.505793 0.960728 0.104235 -0.223703
C58   C     C_R   0.118330 0.381665 0.750003 -0.207102
C59   C     C_R   0.618330 0.118336 0.250003 -0.206429
C60   C     C_R   0.381657 0.881663 0.750004 -0.090563
C61   C     C_R   0.118334 0.618332 0.749997 -0.206436
C62   C     C_R   0.881661 0.381659 0.249997 -0.090571
C63   C     C_R   0.381661 0.118343 0.749997 -0.090177
C64   C     C_R   0.618335 0.881670 0.249997 -0.207103
C65   C     C_R   0.881664 0.381670 0.749997 -0.206431
C66   C     C_R   0.118337 0.618343 0.249996 -0.090561
C67   C     C_R   0.618331 0.881665 0.749997 -0.205964
C68   C     C_R   0.505795 0.039273 0.895764 -0.228599
C69   C     C_R   0.381657 0.118338 0.249997 -0.091023
C70   C     C_R   0.223708 0.255985 0.221560 -0.178393
C71   C     C_R   0.776251 0.743936 0.778469 -0.099617
C72   C     C_R   0.255982 0.776295 0.221560 -0.178504
C73   C     C_R   0.743932 0.223752 0.778468 -0.099598
C74   C     C_R   0.739954 0.707639 0.261070 -0.100107
C75   C     C_R   0.260039 0.292317 0.738870 -0.178026
C76   C     C_R   0.744007 0.223716 0.221560 -0.178377
C77   C     C_R   0.256066 0.776250 0.778471 -0.100344
C78   C     C_R   0.223711 0.744012 0.778442 -0.178503
C79   C     C_R   0.460720 0.005755 0.604236 -0.228754
C80   C     C_R   0.776245 0.256071 0.221531 -0.099597
C81   C     C_R   0.292361 0.260046 0.738931 -0.100107
C82   C     C_R   0.707684 0.739961 0.261131 -0.178026
C83   C     C_R   0.776287 0.255990 0.778439 -0.178374
C84   C     C_R   0.223744 0.743940 0.221531 -0.100344
C85   C     C_R   0.744013 0.776291 0.778440 -0.178381
C86   C     C_R   0.256063 0.223747 0.221531 -0.099616
C87   C     C_R   0.723711 0.755979 0.721559 -0.178560
C88   C     C_R   0.276256 0.243932 0.278464 -0.099520
C89   C     C_R   0.755977 0.276291 0.721557 -0.178694
C90   C     C_R   0.539277 0.005760 0.395764 -0.223822
C91   C     C_R   0.243930 0.723745 0.278463 -0.099501
C92   C     C_R   0.239959 0.207636 0.761069 -0.099989
C93   C     C_R   0.760044 0.792314 0.238863 -0.178194
C94   C     C_R   0.244014 0.723718 0.721558 -0.178558
C95   C     C_R   0.756069 0.276256 0.278467 -0.100247
C96   C     C_R   0.723712 0.244020 0.278443 -0.178686
C97   C     C_R   0.276249 0.756075 0.721534 -0.099502
C98   C     C_R   0.792364 0.760041 0.238930 -0.099988
C99   C     C_R   0.207686 0.239955 0.761136 -0.178194
C100  C     C_R   0.276287 0.755981 0.278439 -0.178555
C101  C     C_R   0.005756 0.539279 0.604236 -0.226765
C102  C     C_R   0.723741 0.243934 0.721534 -0.100246
C103  C     C_R   0.244020 0.276289 0.278440 -0.178551
C104  C     C_R   0.756068 0.723743 0.721535 -0.099519
C105  C     C_R   0.282444 0.217554 0.249996 0.206884
C106  C     C_R   0.717643 0.782353 0.749998 0.051761
C107  C     C_R   0.217551 0.717558 0.249996 0.206901
C108  C     C_R   0.782350 0.282359 0.749997 0.051963
C109  C     C_R   0.717646 0.782357 0.249995 0.051474
C110  C     C_R   0.282446 0.217556 0.749998 0.206566
C111  C     C_R   0.782443 0.282448 0.249998 0.206898
C112  C     C_R   0.500000 0.000000 0.840924 0.809487
C113  C     C_R   0.005751 0.460722 0.395764 -0.226856
C114  C     C_R   0.217644 0.717646 0.749999 0.051961
C115  C     C_R   0.282442 0.782449 0.750004 0.206897
C116  C     C_R   0.717641 0.217649 0.250003 0.051963
C117  C     C_R   0.217643 0.282354 0.750005 0.051474
C118  C     C_R   0.782444 0.717554 0.250002 0.206566
C119  C     C_R   0.717552 0.217557 0.750002 0.206900
C120  C     C_R   0.282354 0.782356 0.250001 0.051957
C121  C     C_R   0.782446 0.717555 0.750003 0.206883
C122  C     C_R   0.217646 0.282356 0.250001 0.051761
C123  C     C_R   0.960514 0.494014 0.069111 0.009466
C124  C     C_R   0.539278 0.994249 0.604236 -0.226857
C125  C     C_R   0.039484 0.494016 0.930889 0.006560
C126  C     C_R   0.494009 0.039486 0.069112 0.008884
C127  C     C_R   0.494007 0.960516 0.930889 0.008115
C128  C     C_R   0.039484 0.505993 0.069111 0.008115
C129  C     C_R   0.960514 0.505991 0.930888 0.008884
C130  C     C_R   0.505984 0.960516 0.069111 0.006560
C131  C     C_R   0.505986 0.039486 0.930889 0.009466
C132  C     C_R   0.460508 0.005949 0.569112 0.009442
C133  C     C_R   0.539490 0.005954 0.430889 0.006848
C134  C     C_R   0.005948 0.539492 0.569111 0.008469
C135  C     C_R   0.460721 0.994244 0.395764 -0.226765
C136  C     C_R   0.005943 0.460509 0.430889 0.007621
C137  C     C_R   0.539490 0.994057 0.569111 0.007621
C138  C     C_R   0.460508 0.994052 0.430888 0.008469
C139  C     C_R   0.994046 0.460510 0.569111 0.006848
C140  C     C_R   0.994051 0.539492 0.430888 0.009442
C141  C     C_1   0.919369 0.487435 0.051877 0.176206
C142  C     C_1   0.080629 0.487439 0.948124 0.182660
C143  C     C_1   0.487430 0.080632 0.051877 0.178566
C144  C     C_1   0.487426 0.919371 0.948124 0.178527
C145  C     C_1   0.080629 0.512574 0.051876 0.178526
C146  C     C_R   0.994240 0.460722 0.604236 -0.223822
C147  C     C_1   0.919368 0.512570 0.948123 0.178566
C148  C     C_1   0.512561 0.919371 0.051876 0.182660
C149  C     C_1   0.512565 0.080631 0.948123 0.176205
C150  C     C_1   0.419355 0.012484 0.551879 0.176132
C151  C     C_1   0.580641 0.012495 0.448123 0.182265
C152  C     C_1   0.012487 0.580644 0.551878 0.179068
C153  C     C_1   0.012478 0.419357 0.448123 0.179086
C154  C     C_1   0.580643 0.987522 0.551877 0.179086
C155  C     C_1   0.419356 0.987513 0.448122 0.179068
C156  C     C_1   0.987504 0.419359 0.551877 0.182265
C157  C     C_R   0.994245 0.539280 0.395764 -0.228755
C158  C     C_1   0.987516 0.580645 0.448121 0.176132
C159  C     C_R   1.000000 0.500001 0.122031 -0.040543
C160  C     C_R   1.000000 0.500002 0.877969 -0.041626
C161  C     C_R   0.499998 0.000000 0.122031 -0.041626
C162  C     C_R   0.499999 0.000000 0.877969 -0.040543
C163  C     C_R   0.500000 0.000001 0.622031 -0.040911
C164  C     C_R   1.000000 0.500000 0.159076 0.809487
C165  C     C_R   0.499999 0.000001 0.377969 -0.041864
C166  C     C_R   0.999999 0.500000 0.622031 -0.041864
C167  C     C_R   0.999999 0.500000 0.377969 -0.040911
C168  C     C_R   0.999999 0.500004 0.051332 0.044673
C169  C     C_R   0.999999 0.500004 0.948668 0.044156
C170  C     C_R   0.499996 0.000001 0.051332 0.044156
C171  C     C_R   0.499996 0.000001 0.948668 0.044673
C172  C     C_R   0.499999 0.000003 0.551332 0.044645
C173  C     C_R   0.499999 0.000004 0.448668 0.044181
C174  C     C_R   0.999996 0.500001 0.551332 0.044181
C175  C     C_R   1.000000 0.500000 0.840924 0.809554
C176  C     C_R   0.999997 0.500001 0.448668 0.044645
C177  C     C_1   0.999998 0.500005 0.015099 -0.020109
C178  C     C_1   0.999998 0.500005 0.984901 -0.020404
C179  C     C_1   0.499995 0.000002 0.015098 -0.020404
C180  C     C_1   0.499995 0.000002 0.984901 -0.020109
C181  C     C_1   0.499998 0.000004 0.515099 -0.020323
C182  C     C_1   0.499998 0.000004 0.484901 -0.020505
C183  C     C_1   0.999996 0.500001 0.515099 -0.020505
C184  C     C_1   0.999996 0.500001 0.484901 -0.020323
C185  C     C_R   0.415792 0.915791 0.250001 0.851111
C186  C     C_R   1.000000 0.500000 0.659076 0.809564
C187  C     C_R   0.584210 0.084210 0.750001 0.846349
C188  C     C_R   0.915789 0.584210 0.250001 0.846442
C189  C     C_R   0.084207 0.415791 0.750001 0.851229
C190  C     C_R   0.584207 0.084209 0.250001 0.851058
C191  C     C_R   0.415789 0.915791 0.750001 0.846313
C192  C     C_R   0.084209 0.415792 0.250001 0.851345
C193  C     C_R   0.915791 0.584210 0.750001 0.846330
C194  C     C_R   0.415790 0.084211 0.749999 0.846443
C195  C     C_R   0.584209 0.915793 0.249999 0.851229
C196  C     C_R   0.915791 0.415792 0.749999 0.851059
C197  C     C_R   1.000000 0.500000 0.340924 0.809494
C198  C     C_R   0.084209 0.584211 0.249999 0.846312
C199  C     C_R   0.584208 0.915791 0.749999 0.851345
C200  C     C_R   0.415789 0.084209 0.249999 0.846329
C201  C     C_R   0.084209 0.584208 0.749999 0.851110
C202  C     C_R   0.915790 0.415789 0.249999 0.846349
C203  C     C_R   0.113288 0.343907 0.269601 -0.181137
C204  C     C_R   0.883507 0.652927 0.726852 -0.300647
C205  C     C_R   0.343908 0.886712 0.269602 -0.181213
C206  C     C_R   0.652927 0.116493 0.726853 -0.300811
C207  C     C_R   0.886711 0.656131 0.269660 -0.303433
C208  C     C_R   0.500000 0.000000 0.659076 0.809494
C209  C     C_R   0.116524 0.347143 0.726876 -0.178052
C210  C     C_R   0.656092 0.113289 0.269602 -0.179399
C211  C     C_R   0.347069 0.883512 0.726856 -0.303136
C212  C     C_R   0.113286 0.656094 0.730399 -0.181212
C213  C     C_R   0.883509 0.347071 0.273145 -0.300811
C214  C     C_R   0.343869 0.113289 0.730340 -0.303433
C215  C     C_R   0.652857 0.883477 0.273124 -0.178052
C216  C     C_R   0.886710 0.343909 0.730397 -0.179399
C217  C     C_R   0.116491 0.652928 0.273147 -0.303137
C218  C     C_R   0.656092 0.886711 0.730398 -0.181137
C219  C     C_R   0.500000 0.000000 0.340924 0.809564
C220  C     C_R   0.347073 0.116493 0.273147 -0.300647
C221  C     C_R   0.613283 0.843902 0.769594 -0.180312
C222  C     C_R   0.383502 0.152920 0.226843 -0.301325
C223  C     C_R   0.843902 0.386718 0.769594 -0.180402
C224  C     C_R   0.152919 0.616499 0.226843 -0.301500
C225  C     C_R   0.386716 0.156136 0.769652 -0.302738
C226  C     C_R   0.616529 0.847150 0.226867 -0.178854
C227  C     C_R   0.156098 0.613284 0.769594 -0.178557
C228  C     C_R   0.847075 0.383507 0.226847 -0.303798
C229  C     C_R   0.613281 0.156099 0.230407 -0.180401
C230  C     C_R   0.960727 0.494205 0.104236 -0.228598
C231  C     C_R   0.383504 0.847078 0.773154 -0.301500
C232  C     C_R   0.843863 0.613284 0.230348 -0.302738
C233  C     C_R   0.152849 0.383471 0.773134 -0.178854
C234  C     C_R   0.386715 0.843904 0.230405 -0.178557
C235  C     C_R   0.616495 0.152922 0.773155 -0.303799
C236  C     C_R   0.156098 0.386717 0.230406 -0.180310
C237  C     C_R   0.847080 0.616498 0.773157 -0.301325
C238  C     C_R   0.144984 0.310992 0.269585 0.438827
C239  C     C_R   0.851101 0.685592 0.726626 0.395271
C240  C     C_R   0.310992 0.855016 0.269586 0.438775
H1    H     H_    0.084130 0.339429 0.284752 0.199165
H2    H     H_    0.910160 0.345406 0.291078 0.174461
H3    H     H_    0.216811 0.620988 0.189707 0.344129
H4    H     H_    0.386887 0.224689 0.801712 0.342594
H5    H     H_    0.672124 0.765132 0.200697 0.356070
H6    H     H_    0.249089 0.657907 0.783807 0.356375
H7    H     H_    0.783176 0.379027 0.189718 0.342165
H8    H     H_    0.657900 0.249093 0.216195 0.355916
H9    H     H_    0.379020 0.783181 0.810285 0.344130
H10   H     H_    0.775310 0.613112 0.198289 0.342594
H11   H     H_    0.234867 0.327875 0.799304 0.356069
H12   H     H_    0.342088 0.750915 0.216186 0.356376
H13   H     H_    0.339767 0.084200 0.715063 0.172466
H14   H     H_    0.620978 0.216818 0.810287 0.342165
H15   H     H_    0.249087 0.342091 0.216187 0.356224
H16   H     H_    0.783187 0.620985 0.810292 0.343962
H17   H     H_    0.654561 0.909859 0.291298 0.201038
H18   H     H_    0.915867 0.339431 0.715245 0.200963
H19   H     H_    0.089843 0.654590 0.291082 0.172477
H20   H     H_    0.660569 0.915868 0.715246 0.199166
H21   H     H_    0.345411 0.089845 0.291083 0.174439
H22   H     H_    0.584126 0.839424 0.784746 0.199441
H23   H     H_    0.410150 0.154580 0.208908 0.174007
H24   H     H_    0.839424 0.415875 0.784745 0.199381
H25   H     H_    0.910155 0.654588 0.708917 0.174439
H26   H     H_    0.154580 0.589851 0.208908 0.174027
H27   H     H_    0.415805 0.160239 0.784929 0.172753
H28   H     H_    0.590146 0.845448 0.208693 0.200585
H29   H     H_    0.160577 0.584126 0.784744 0.201225
H30   H     H_    0.845412 0.410158 0.208914 0.172040
H31   H     H_    0.584123 0.160578 0.215257 0.199380
H32   H     H_    0.410154 0.845415 0.791087 0.174029
H33   H     H_    0.839760 0.584194 0.215072 0.172753
H34   H     H_    0.154551 0.409853 0.791308 0.200585
H35   H     H_    0.415871 0.839426 0.215253 0.201226
H36   H     H_    0.339431 0.915869 0.284754 0.199107
H37   H     H_    0.589846 0.154584 0.791089 0.172040
H38   H     H_    0.160577 0.415875 0.215255 0.199442
H39   H     H_    0.845420 0.589850 0.791092 0.174007
H40   H     H_    0.203394 0.260451 0.199504 0.163011
H41   H     H_    0.796562 0.739598 0.800542 0.155446
H42   H     H_    0.260448 0.796610 0.199505 0.162935
H43   H     H_    0.739593 0.203442 0.800542 0.155417
H44   H     H_    0.731961 0.674997 0.269826 0.155473
H45   H     H_    0.267951 0.325009 0.730183 0.163582
H46   H     H_    0.739538 0.203405 0.199502 0.162994
H47   H     H_    0.654590 0.089844 0.708918 0.174460
H48   H     H_    0.260407 0.796557 0.800547 0.155171
H49   H     H_    0.203400 0.739542 0.800500 0.162938
H50   H     H_    0.796553 0.260412 0.199456 0.155418
H51   H     H_    0.325003 0.268040 0.730175 0.155473
H52   H     H_    0.674992 0.732050 0.269819 0.163582
H53   H     H_    0.796601 0.260457 0.800495 0.162992
H54   H     H_    0.203433 0.739603 0.199458 0.155166
H55   H     H_    0.739547 0.796605 0.800496 0.163013
H56   H     H_    0.260401 0.203437 0.199457 0.155445
H57   H     H_    0.703399 0.760441 0.699501 0.162936
H58   H     H_    0.915801 0.660234 0.284936 0.172466
H59   H     H_    0.296569 0.239590 0.300536 0.155484
H60   H     H_    0.760439 0.296602 0.699499 0.162851
H61   H     H_    0.239589 0.703431 0.300535 0.155449
H62   H     H_    0.231969 0.174992 0.769822 0.155501
H63   H     H_    0.767960 0.825004 0.230173 0.163552
H64   H     H_    0.239548 0.703410 0.699499 0.162917
H65   H     H_    0.760414 0.296565 0.300540 0.155206
H66   H     H_    0.703403 0.239555 0.300503 0.162852
H67   H     H_    0.296559 0.760421 0.699461 0.155453
H68   H     H_    0.825008 0.768030 0.230176 0.155500
H69   H     H_    0.090142 0.345440 0.708701 0.201038
H70   H     H_    0.174995 0.232039 0.769826 0.163552
H71   H     H_    0.296600 0.760442 0.300497 0.162914
H72   H     H_    0.703428 0.239592 0.699462 0.155205
H73   H     H_    0.239558 0.296601 0.300498 0.162934
H74   H     H_    0.760410 0.703431 0.699463 0.155485
H75   H     H_    0.930178 0.489540 0.117679 0.169860
H76   H     H_    0.069822 0.489543 0.882322 0.173893
H77   H     H_    0.489539 0.069823 0.117680 0.171375
H78   H     H_    0.489536 0.930179 0.882321 0.171385
H79   H     H_    0.069821 0.510464 0.117679 0.171385
H80   H     H_    0.660571 0.084131 0.284752 0.200962
H81   H     H_    0.930177 0.510460 0.882320 0.171375
H82   H     H_    0.510457 0.930178 0.117678 0.173893
H83   H     H_    0.510460 0.069822 0.882320 0.169860
H84   H     H_    0.430166 0.010384 0.617680 0.170166
H85   H     H_    0.569831 0.010394 0.382321 0.173883
H86   H     H_    0.010390 0.569833 0.617679 0.172130
H87   H     H_    0.010381 0.430167 0.382321 0.172159
H88   H     H_    0.569833 0.989619 0.617678 0.172159
H89   H     H_    0.430167 0.989610 0.382321 0.172130
H90   H     H_    0.989606 0.430169 0.617679 0.173883
H91   H     H_    0.345405 0.910163 0.708923 0.172478
H92   H     H_    0.989616 0.569834 0.382320 0.170166
H93   H     H_    0.157915 0.250919 0.283822 0.356236
H94   H     H_    0.879021 0.716823 0.689721 0.344061
H95   H     H_    0.250920 0.842085 0.283825 0.355930
H96   H     H_    0.716825 0.120979 0.689723 0.344229
H97   H     H_    0.886881 0.724682 0.301722 0.342508
H98   H     H_    0.172118 0.265122 0.700710 0.356078
H99   H     H_    0.749081 0.157917 0.283821 0.356387
H100  H     H_    0.283167 0.879032 0.689730 0.342264
H101  H     H_    0.157910 0.749085 0.716181 0.355929
H102  H     H_    0.084128 0.660572 0.715249 0.199106
H103  H     H_    0.879028 0.283169 0.310271 0.344228
H104  H     H_    0.275319 0.113120 0.698277 0.342508
H105  H     H_    0.734879 0.827884 0.299289 0.356078
H106  H     H_    0.842079 0.250923 0.716173 0.356388
H107  H     H_    0.120975 0.716826 0.310277 0.342264
H108  H     H_    0.749080 0.842083 0.716175 0.356236
H109  H     H_    0.283176 0.120978 0.310278 0.344062
H110  H     H_    0.657906 0.750911 0.783810 0.356222
H111  H     H_    0.379015 0.216813 0.189708 0.343961
H112  H     H_    0.750909 0.342097 0.783808 0.355917
N1    N     N_1   0.886377 0.482112 0.038142 -0.165693
N2    N     N_1   0.613638 0.017789 0.461856 -0.160445
N3    N     N_1   0.017779 0.613642 0.538145 -0.163741
N4    N     N_1   0.017765 0.386359 0.461856 -0.161776
N5    N     N_1   0.613641 0.982235 0.538143 -0.161776
N6    N     N_1   0.386358 0.982221 0.461855 -0.163741
N7    N     N_1   0.982211 0.386362 0.538144 -0.160445
N8    N     N_1   0.982228 0.613644 0.461855 -0.165813
N9    N     N_1   0.113620 0.482117 0.961860 -0.159629
N10   N     N_1   0.482107 0.113623 0.038142 -0.164346
N11   N     N_1   0.482101 0.886381 0.961859 -0.162856
N12   N     N_1   0.113619 0.517899 0.038141 -0.162856
N13   N     N_1   0.886377 0.517893 0.961858 -0.164346
N14   N     N_1   0.517883 0.886380 0.038140 -0.159629
N15   N     N_1   0.517888 0.113623 0.961858 -0.165693
N16   N     N_1   0.386356 0.017772 0.538146 -0.165813
O1    O     O_3   0.500000 0.000000 0.250000 -0.481111
O2    O     O_R   0.500000 0.036360 0.824790 -0.644879
O3    O     O_R   0.963640 0.500000 0.175210 -0.644879
O4    O     O_R   0.036360 0.500000 0.824790 -0.642764
O5    O     O_R   1.000000 0.536360 0.675210 -0.644301
O6    O     O_R   0.000000 0.463640 0.324790 -0.643779
O7    O     O_R   0.536360 0.000000 0.675210 -0.643779
O8    O     O_R   0.463640 0.000000 0.324790 -0.644301
O9    O     O_R   0.000000 0.463640 0.675210 -0.642689
O10   O     O_R   0.000000 0.536360 0.324790 -0.644871
O11   O     O_R   0.463640 0.000000 0.675210 -0.644871
O12   O     O_3   0.500000 0.000000 0.750000 -0.478786
O13   O     O_R   0.536360 0.000000 0.324790 -0.642689
O14   O     O_R   0.448850 0.912530 0.230420 -0.642306
O15   O     O_R   0.551150 0.087470 0.769580 -0.646945
O16   O     O_R   0.912530 0.551150 0.230420 -0.645381
O17   O     O_R   0.087470 0.448850 0.769580 -0.643626
O18   O     O_R   0.551150 0.087470 0.230420 -0.643490
O19   O     O_R   0.448850 0.912530 0.769580 -0.645387
O20   O     O_R   0.087470 0.448850 0.230420 -0.643081
O21   O     O_R   0.912530 0.551150 0.769580 -0.645848
O22   O     O_R   0.448850 0.087470 0.769580 -0.645381
O23   O     O_3   0.000000 0.500000 0.250000 -0.478786
O24   O     O_R   0.551150 0.912530 0.230420 -0.643626
O25   O     O_R   0.912530 0.448850 0.769580 -0.643490
O26   O     O_R   0.087470 0.551150 0.230420 -0.645386
O27   O     O_R   0.551150 0.912530 0.769580 -0.643082
O28   O     O_R   0.448850 0.087470 0.230420 -0.645848
O29   O     O_R   0.087470 0.551150 0.769580 -0.642305
O30   O     O_R   0.912530 0.448850 0.230420 -0.646945
O31   O     O_R   0.948850 0.412530 0.730420 -0.643317
O32   O     O_R   0.051150 0.587470 0.269580 -0.646051
O33   O     O_R   0.412530 0.051150 0.730420 -0.646328
O34   O     O_3   0.000000 0.500000 0.750000 -0.481111
O35   O     O_R   0.587470 0.948850 0.269580 -0.642654
O36   O     O_R   0.051150 0.587470 0.730420 -0.644470
O37   O     O_R   0.948850 0.412530 0.269580 -0.644469
O38   O     O_R   0.587470 0.948850 0.730420 -0.644080
O39   O     O_R   0.412530 0.051150 0.269580 -0.644943
O40   O     O_R   0.948850 0.587470 0.269580 -0.646327
O41   O     O_R   0.051150 0.412530 0.730420 -0.642654
O42   O     O_R   0.412530 0.948850 0.269580 -0.644470
O43   O     O_R   0.587470 0.051150 0.730420 -0.644469
O44   O     O_R   0.051150 0.412530 0.269580 -0.644080
O45   O     O_R   0.500000 0.036360 0.175210 -0.644138
O46   O     O_R   0.948850 0.587470 0.730420 -0.644943
O47   O     O_R   0.587470 0.051150 0.269580 -0.643317
O48   O     O_R   0.412530 0.948850 0.730420 -0.646052
O49   O     O_3   0.136418 0.274234 0.288812 -0.745202
O50   O     O_3   0.852852 0.720192 0.704264 -0.757488
O51   O     O_3   0.274236 0.863582 0.288815 -0.745861
O52   O     O_3   0.720192 0.147149 0.704265 -0.757131
O53   O     O_3   0.858655 0.725995 0.289419 -0.758509
O54   O     O_3   0.145112 0.282928 0.701720 -0.742985
O55   O     O_3   0.725764 0.136420 0.288813 -0.743010
O56   O     O_R   0.500000 0.963640 0.824790 -0.643640
O57   O     O_3   0.279799 0.852862 0.704272 -0.759166
O58   O     O_3   0.136414 0.725768 0.711189 -0.745861
O59   O     O_3   0.852856 0.279803 0.295730 -0.757131
O60   O     O_3   0.274006 0.141346 0.710580 -0.758509
O61   O     O_3   0.717073 0.854889 0.298279 -0.742985
O62   O     O_3   0.863577 0.274238 0.711183 -0.743011
O63   O     O_3   0.147145 0.720194 0.295734 -0.759164
O64   O     O_3   0.725764 0.863580 0.711185 -0.745202
O65   O     O_3   0.279808 0.147148 0.295735 -0.757489
O66   O     O_3   0.636413 0.774229 0.788804 -0.745046
O67   O     O_R   0.036360 0.500000 0.175210 -0.643640
O68   O     O_3   0.352846 0.220183 0.204252 -0.757522
O69   O     O_3   0.774227 0.363590 0.788803 -0.745705
O70   O     O_3   0.220182 0.647156 0.204251 -0.757160
O71   O     O_3   0.358661 0.226001 0.789410 -0.758448
O72   O     O_3   0.645117 0.782937 0.201708 -0.743186
O73   O     O_3   0.225772 0.636413 0.788802 -0.742857
O74   O     O_3   0.779807 0.352857 0.204260 -0.759192
O75   O     O_3   0.636408 0.225775 0.211200 -0.745704
O76   O     O_3   0.352850 0.779812 0.795743 -0.757162
O77   O     O_3   0.773998 0.641338 0.210591 -0.758448
O78   O     O_R   0.963640 0.500000 0.824790 -0.644138
O79   O     O_3   0.217062 0.354882 0.798292 -0.743187
O80   O     O_3   0.363583 0.774231 0.211194 -0.742858
O81   O     O_3   0.647147 0.220188 0.795744 -0.759192
O82   O     O_3   0.225772 0.363588 0.211197 -0.745049
O83   O     O_3   0.779817 0.647153 0.795748 -0.757522
O84   O     O_R   0.500000 0.963640 0.175210 -0.642764
Zn1   Zn    Zn3+2 0.448060 0.000000 0.278050 0.977485
Zn2   Zn    Zn3+2 0.051940 0.500000 0.221950 0.978099
Zn3   Zn    Zn3+2 0.500000 0.051940 0.778050 0.973193
Zn4   Zn    Zn3+2 0.500000 0.948060 0.221950 0.982367
Zn5   Zn    Zn3+2 0.051940 0.500000 0.778050 0.982367
Zn6   Zn    Zn3+2 0.948060 0.500000 0.221950 0.973193
Zn7   Zn    Zn3+2 0.500000 0.948060 0.778050 0.978099
Zn8   Zn    Zn3+2 0.500000 0.051940 0.221950 0.977590
Zn9   Zn    Zn3+2 0.551940 0.000000 0.721950 0.977986
Zn10  Zn    Zn3+2 0.000000 0.551940 0.278050 0.973136
Zn11  Zn    Zn3+2 0.000000 0.448060 0.721950 0.982352
Zn12  Zn    Zn3+2 0.551940 0.000000 0.278050 0.982352
Zn13  Zn    Zn3+2 0.448060 0.000000 0.721950 0.973136
Zn14  Zn    Zn3+2 0.000000 0.448060 0.278050 0.977986
Zn15  Zn    Zn3+2 0.000000 0.551940 0.721950 0.977485
Zn16  Zn    Zn3+2 0.948060 0.500000 0.778050 0.977590

loop_
_geom_bond_atom_site_label_1
_geom_bond_atom_site_label_2
_ccdc_geom_bond_type
C73   C119  A    
C132  C150  S    
C75   C117  A    
C200  O28   A    
O84   Zn4   S    
O23   Zn2   S    
C222  H23   S    
O47   Zn12  S    
C5    O54   S    
H108  O64   S    
C131  C171  A    
C196  O25   A    
C61   C227  A    
C239  O50   S    
C191  O48   A    
C78   H49   S    
H104  O60   S    
H6    O73   S    
C141  N1    T    
C128  C145  S    
O3    Zn6   S    
C126  C143  S    
C33   C36   A    
C70   H40   S    
O1    Zn8   S    
C219  O8    A    
C203  C238  A    
C199  O27   A    
C227  H29   S    
C208  O11   A    
C133  C151  S    
C24   C127  A    
C91   C100  A    
C97   C115  A    
O19   Zn7   S    
C230  H75   S    
C59   C210  A    
C22   C47   A    
C135  H89   S    
C214  H13   S    
C46   C129  A    
C204  C239  A    
C223  H24   S    
C212  H102  S    
C18   C51   A    
O23   Zn6   S    
C27   O76   S    
H93   O49   S    
C25   O74   S    
O44   Zn14  S    
C87   H57   S    
H8    O75   S    
C91   C107  A    
C124  C137  A    
O5    Zn15  S    
H3    O70   S    
C33   O83   S    
C221  H22   S    
O36   Zn15  S    
O42   Zn1   S    
C94   C97   A    
C9    C213  A    
C204  H25   S    
C187  O15   A    
C32   C34   A    
C17   O66   S    
C68   C131  A    
C183  C184  T    
C82   C109  A    
C206  H47   S    
C198  O32   A    
O12   Zn3   S    
C140  C176  A    
C54   C205  A    
C46   C160  A    
C123  C141  S    
C175  O78   A    
C20   C224  A    
C208  O7    A    
H107  O63   S    
C88   H59   S    
C15   C218  A    
C29   C233  A    
C72   C84   A    
C15   O64   S    
C38   C119  S    
C173  C182  S    
O2    Zn3   S    
C147  N13   T    
C90   C165  A    
C175  O4    A    
C131  C149  S    
C12   C216  A    
C4    O53   S    
C52   C236  A    
C32   C236  A    
C176  C184  S    
C55   C206  A    
C190  O47   A    
C134  C174  A    
C166  C186  S    
C67   C218  A    
O38   Zn9   S    
H95   O51   S    
C200  O39   A    
C104  C121  A    
C39   C118  S    
C153  N4    T    
H101  O58   S    
C217  H19   S    
O56   Zn7   S    
C52   C203  A    
C201  O29   A    
C136  C153  S    
C229  H31   S    
C80   H50   S    
C56   C207  A    
C148  N14   T    
C233  H34   S    
O11   Zn13  S    
C69   C220  A    
C101  C166  A    
C34   C238  A    
C11   O61   S    
C17   C221  A    
C1    O84   A    
C57   C161  A    
C81   C110  A    
C23   O73   S    
H97   O53   S    
C96   C116  A    
C228  H30   S    
C219  O13   A    
C77   C115  A    
C133  C173  A    
C95   H65   S    
C102  C119  A    
C192  O20   A    
C136  C176  A    
C202  O37   A    
C60   C231  A    
C26   O75   S    
O10   Zn10  S    
C155  N6    T    
C220  H21   S    
C16   C51   A    
C58   C233  A    
C23   C43   A    
C63   C225  A    
C205  H36   S    
C197  O10   A    
C236  H38   S    
C207  H58   S    
C213  H2    S    
C237  H39   S    
C238  O49   S    
O29   Zn5   S    
C66   C217  A    
C7    O57   S    
C211  H91   S    
C224  H26   S    
C7    C42   A    
O12   Zn13  S    
C127  C171  A    
C163  C208  S    
C84   C107  A    
C16   O65   S    
C89   C108  A    
H15   O82   S    
C67   C221  A    
C187  O43   A    
O78   Zn16  S    
C140  C158  S    
C172  C181  S    
C54   C185  S    
C57   H82   S    
C124  C163  A    
C36   C239  A    
C1    O45   A    
C34   C122  S    
C157  H92   S    
C76   H46   S    
C143  N10   T    
C98   C118  A    
C21   C45   A    
C74   C118  A    
C129  C147  S    
H11   O79   S    
C235  H37   S    
O1    Zn12  S    
C197  O6    A    
H12   O80   S    
H10   O77   S    
C146  H90   S    
H100  O57   S    
C53   C237  A    
H105  O61   S    
C47   C109  S    
C31   C235  A    
C142  N9    T    
C234  H35   S    
C87   C104  A    
C61   C212  A    
C189  O41   A    
C205  C240  A    
C44   C111  S    
C20   C49   A    
C126  C170  A    
C99   C117  A    
C70   C122  A    
C51   C105  S    
H103  O59   S    
C231  H32   S    
C19   O69   S    
C10   C45   A    
C63   C194  S    
C66   C198  S    
O23   Zn10  S    
C123  C168  A    
O26   Zn2   S    
C149  N15   T    
H94   O50   S    
C160  C175  S    
C54   C234  A    
C85   C106  A    
C112  O56   A    
O18   Zn8   S    
C64   C195  S    
C58   C209  A    
C27   C231  A    
C101  H86   S    
O1    Zn1   S    
C71   C121  A    
C186  O5    A    
C76   C80   A    
O34   Zn11  S    
C186  O9    A    
C7    C211  A    
C22   C226  A    
C5    C209  A    
H106  O62   S    
O13   Zn12  S    
C103  H73   S    
C170  C179  S    
O6    Zn14  S    
C218  H20   S    
C215  H17   S    
C36   C121  S    
C88   C105  A    
C27   C42   A    
C92   C110  A    
C123  C230  A    
C62   C228  A    
C29   C40   A    
C73   C83   A    
C40   C117  S    
C150  N16   T    
C63   C214  A    
O24   Zn4   S    
C199  O38   A    
C165  C219  S    
C1    C161  S    
C2    C125  A    
O23   Zn14  S    
C91   H61   S    
C196  O31   A    
C32   O82   S    
O21   Zn16  S    
C159  C164  S    
C139  C174  A    
C41   C116  S    
C8    C212  A    
C225  H27   S    
C92   C99   A    
C11   C215  A    
C59   C229  A    
C138  C155  S    
C139  C146  A    
C53   C193  S    
C64   C215  A    
C11   C47   A    
C8    C43   A    
H112  O69   S    
C12   C48   A    
C157  C167  A    
O34   Zn15  S    
C202  O30   A    
C181  C182  T    
O48   Zn13  S    
C156  N7    T    
C164  O67   A    
C3    O52   S    
O40   Zn10  S    
C67   C199  S    
C43   C114  S    
O12   Zn9   S    
C9    O59   S    
C84   H54   S    
C168  C177  S    
C85   H55   S    
C151  N2    T    
C86   H56   S    
C83   C108  A    
C20   O70   S    
H110  O66   S    
C21   O71   S    
O39   Zn1   S    
C6    O55   S    
C62   C202  S    
C137  C172  A    
C210  H80   S    
C69   C200  S    
O7    Zn9   S    
C209  H69   S    
O17   Zn5   S    
C73   H43   S    
C74   H44   S    
C78   C114  A    
C74   C82   A    
C198  O26   A    
O33   Zn13  S    
C26   C229  A    
C195  O35   A    
O22   Zn3   S    
C97   H67   S    
C99   H70   S    
O12   Zn7   S    
C98   H68   S    
C71   H41   S    
C13   H77   S    
O37   Zn14  S    
C79   C163  A    
C90   C133  A    
C45   C110  S    
C10   C214  A    
C37   C240  A    
C35   H79   S    
O25   Zn16  S    
C28   C39   A    
H99   O55   S    
C30   C37   A    
C192  O44   A    
O34   Zn16  S    
C134  C152  S    
C28   O77   S    
C75   H45   S    
C138  C173  A    
O20   Zn2   S    
C195  O24   A    
C167  C197  S    
H7    O74   S    
C19   C223  A    
O45   Zn8   S    
C30   C234  A    
C81   H51   S    
H14   O81   S    
C82   H52   S    
C203  H1    S    
C13   C126  A    
C68   C162  A    
C62   C213  A    
C65   C223  A    
C112  C162  S    
C4    C207  A    
C145  N12   T    
O14   Zn4   S    
O46   Zn15  S    
C190  O18   A    
C193  O21   A    
C79   H84   S    
C55   C235  A    
O43   Zn9   S    
C174  C183  S    
C113  C167  A    
O67   Zn2   S    
O34   Zn5   S    
C144  N11   T    
C31   C38   A    
C18   O68   S    
C48   C108  S    
C130  C170  A    
C80   C111  A    
C137  C154  S    
C127  C144  S    
C35   C128  A    
C18   C222  A    
C60   C211  A    
C104  H74   S    
C33   C237  A    
C179  C180  T    
H4    O71   S    
C42   C115  S    
C46   H81   S    
C177  C178  T    
C5    C40   A    
C50   C106  S    
C59   C190  S    
C103  C122  A    
C89   H60   S    
C226  H28   S    
C135  C138  A    
C14   O63   S    
C191  O19   A    
C89   C102  A    
C95   C96   A    
C216  H18   S    
C64   C226  A    
O4    Zn5   S    
C94   C114  A    
C49   C107  S    
C101  C134  A    
C87   C106  A    
O30   Zn6   S    
C129  C169  A    
C68   H83   S    
O28   Zn8   S    
C125  C169  A    
C14   C49   A    
C201  O36   A    
C56   C232  A    
C12   O62   S    
C69   C222  A    
C52   C192  S    
C15   C50   A    
C158  N8    T    
C124  H88   S    
C189  O17   A    
H96   O52   S    
C24   H78   S    
C61   C201  S    
O41   Zn11  S    
C164  O3    A    
O31   Zn11  S    
C56   C188  S    
C3    C38   A    
C113  C136  A    
C14   C217  A    
C16   C220  A    
C100  C120  A    
C55   C187  S    
C152  N3    T    
C77   C78   A    
C96   H66   S    
C146  C166  A    
C102  H72   S    
C71   C85   A    
C100  H71   S    
C25   C44   A    
O8    Zn1   S    
O32   Zn10  S    
C154  N5    T    
C135  C165  A    
C53   C204  A    
C130  C148  S    
C159  C230  A    
C65   C216  A    
C66   C224  A    
C240  O51   S    
H109  O65   S    
C19   C48   A    
C75   C81   A    
C57   C130  A    
C6    C41   A    
C193  O46   A    
C140  C157  A    
C185  O42   A    
C4    C39   A    
C125  C142  S    
C58   C189  S    
C112  O2    A    
O27   Zn7   S    
O16   Zn6   S    
H9    O76   S    
C2    C160  A    
C72   C120  A    
C2    H76   S    
C171  C180  S    
C86   C105  A    
C72   H42   S    
O9    Zn11  S    
C77   H48   S    
C10   O60   S    
C70   C86   A    
C169  C178  S    
C188  O16   A    
C88   C103  A    
C31   O81   S    
H98   O54   S    
C185  O14   A    
C28   C232  A    
C9    C44   A    
C22   O72   S    
C92   H62   S    
C3    C206  A    
C232  H33   S    
C93   H63   S    
C24   C162  A    
C94   H64   S    
C194  O33   A    
O15   Zn3   S    
C17   C50   A    
C23   C227  A    
C29   O79   S    
C13   C161  A    
C6    C210  A    
C30   O80   S    
C21   C225  A    
C25   C228  A    
H16   O83   S    
C65   C196  S    
C113  H87   S    
H5    O72   S    
C90   H85   S    
C95   C111  A    
C83   H53   S    
C37   C120  S    
C139  C156  S    
C60   C191  S    
C79   C132  A    
C76   C116  A    
O1    Zn4   S    
C8    O58   S    
O35   Zn12  S    
C35   C159  A    
C132  C172  A    
H111  O68   S    
C188  O40   A    
C93   C109  A    
C128  C168  A    
C194  O22   A    
C93   C98   A    
C26   C41   A    
