data_mof_unit_21418.cif
_audit_creation_date              2012-12-10T17:43:21-0500
_audit_creation_method            fapswitch 2.2
_symmetry_space_group_name_H-M    P1
_symmetry_Int_Tables_number       1
_space_group_crystal_system       triclinic
_cell_length_a                    15.025862
_cell_length_b                    13.71376
_cell_length_c                    10.626419
_cell_angle_alpha                 90.139876
_cell_angle_beta                  89.813775
_cell_angle_gamma                 90.014485
_cell_volume                      2189.67306223

loop_
_atom_site_label
_atom_site_type_symbol
_atom_type_description
_atom_site_fract_x
_atom_site_fract_y
_atom_site_fract_z
_atom_type_partial_charge
C1    C     C_R   0.329007 0.499961 0.501170 0.815233
C2    C     C_R   0.670994 0.500040 0.498827 0.815214
C3    C     C_R   0.953062 0.500062 0.497691 0.032309
C4    C     C_R   0.046941 0.499953 0.502312 0.032301
C5    C     C_R   0.908220 0.486887 0.381191 0.092678
C6    C     C_R   0.091784 0.513137 0.618810 0.092705
C7    C     C_R   0.948227 0.526460 0.724268 -0.208534
C8    C     C_R   0.051776 0.473562 0.275733 -0.208525
C9    C     C_R   0.040595 0.526316 0.728989 -0.217213
C10   C     C_R   0.959410 0.473719 0.271009 -0.217279
C11   C     C_R   0.451818 0.793600 0.588724 0.009665
C12   C     C_R   0.548177 0.206399 0.411272 0.009709
C13   C     C_R   0.548555 0.793253 0.411591 0.016226
C14   C     C_R   0.451446 0.206747 0.588410 0.016220
C15   C     C_R   0.549597 0.896280 0.409360 -0.006433
C16   C     C_R   0.450401 0.103720 0.590639 -0.006434
C17   C     C_R   0.450590 0.896598 0.590779 -0.005259
C18   C     C_R   0.549405 0.103402 0.409217 -0.005260
C19   C     C_R   0.500028 0.948208 0.500014 0.087977
C20   C     C_R   0.499970 0.051791 0.499984 0.087969
C21   C     C_R   0.598811 0.948422 0.319023 -0.200384
C22   C     C_R   0.401185 0.051577 0.680974 -0.200379
C23   C     C_R   0.401311 0.949008 0.681080 -0.202621
C24   C     C_R   0.598684 0.050992 0.318915 -0.202613
C25   C     C_R   0.500082 0.499831 0.259113 0.773196
C26   C     C_R   0.499917 0.500169 0.740887 0.773199
C27   C     C_3   0.423674 0.539107 0.042763 -0.173654
C28   C     C_3   0.576325 0.460894 0.957236 -0.173620
C29   C     C_3   0.492776 0.592430 0.959670 -0.132905
C30   C     C_3   0.507223 0.407570 0.040329 -0.132848
C31   C     C_3   0.430579 0.447320 0.958492 -0.171602
C32   C     C_3   0.569421 0.552680 0.041507 -0.171562
C33   C     C_3   0.499709 0.500563 0.877684 0.030671
C34   C     C_3   0.500290 0.499437 0.122315 0.030688
C35   C     C_R   0.813770 0.487577 0.378735 0.096168
C36   C     C_R   0.186234 0.512449 0.621262 0.096126
C37   C     C_R   0.767271 0.500384 0.493578 -0.082875
C38   C     C_R   0.232731 0.499619 0.506422 -0.082898
C39   C     C_R   0.812005 0.513594 0.606784 -0.286078
C40   C     C_R   0.187997 0.486403 0.393220 -0.286084
C41   C     C_R   0.904288 0.513486 0.609866 0.118996
C42   C     C_R   0.095714 0.486523 0.390138 0.119010
Cu1   Cu    Cu3+1 0.500000 0.597420 0.500000 0.936572
Cu2   Cu    Cu3+1 0.500000 0.402580 0.500000 0.936573
H1    H     H_    0.373878 0.403984 0.921773 0.119462
H2    H     H_    0.626121 0.596018 0.078224 0.119461
H3    H     H_    0.361244 0.570942 0.081011 0.125123
H4    H     H_    0.638754 0.429059 0.918984 0.125084
H5    H     H_    0.486650 0.668136 0.923923 0.134454
H6    H     H_    0.513350 0.331865 0.076076 0.134462
H7    H     H_    0.774266 0.523487 0.693212 0.133699
H8    H     H_    0.225734 0.476502 0.306793 0.133698
H9    H     H_    0.910940 0.536805 0.810802 0.138452
H10   H     H_    0.089063 0.463219 0.189199 0.138450
H11   H     H_    0.070461 0.537032 0.820214 0.152632
H12   H     H_    0.929544 0.463019 0.179781 0.152680
H13   H     H_    0.414496 0.753059 0.658253 0.122609
H14   H     H_    0.585494 0.246939 0.341738 0.122556
H15   H     H_    0.586645 0.752391 0.342763 0.125229
H16   H     H_    0.413358 0.247609 0.657242 0.125232
H17   H     H_    0.637384 0.909900 0.248401 0.136047
H18   H     H_    0.362613 0.090099 0.751596 0.136047
H19   H     H_    0.362815 0.910685 0.751756 0.137052
H20   H     H_    0.637177 0.089314 0.248237 0.137051
N1    N     N_R   0.500000 0.743810 0.500000 -0.181738
N2    N     N_R   0.500000 0.256190 0.500000 -0.181743
O1    O     O_R   0.370260 0.582280 0.500030 -0.572289
O2    O     O_R   0.629740 0.417720 0.499970 -0.572287
O3    O     O_R   0.629740 0.582280 0.499970 -0.584427
O4    O     O_R   0.370260 0.417720 0.500030 -0.584426
O5    O     O_R   0.499980 0.582260 0.316850 -0.590653
O6    O     O_R   0.500020 0.417740 0.683150 -0.590650
O7    O     O_R   0.500020 0.582260 0.683150 -0.588532
O8    O     O_R   0.499980 0.417740 0.316850 -0.588547
C43   C     C_3   0.762310 0.475722 0.256125 -0.409882
C44   C     C_3   0.755375 0.368598 0.218011 -0.827798
H21   H     H_    0.822064 0.337303 0.198374 0.248441
H22   H     H_    0.723545 0.326023 0.294525 0.256051
H23   H     H_    0.714162 0.361801 0.131925 0.232998
H24   H     H_    0.693952 0.505357 0.264387 0.186155
H25   H     H_    0.792930 0.519240 0.179493 0.184745
C45   C     C_3   0.237703 0.524355 0.743856 -0.409840
C46   C     C_3   0.244658 0.631498 0.781872 -0.827730
H26   H     H_    0.276287 0.674075 0.705191 0.256087
H27   H     H_    0.177993 0.662743 0.801799 0.248381
H28   H     H_    0.286064 0.638359 0.867764 0.232982
H29   H     H_    0.207092 0.480881 0.820535 0.184728
H30   H     H_    0.306055 0.494705 0.735602 0.186147

loop_
_geom_bond_atom_site_label_1
_geom_bond_atom_site_label_2
_ccdc_geom_bond_type
Cu1   O7    S    
C39   H7    S    
C27   C29   S    
C26   O6    A    
Cu2   N2    S    
C19   C20   A    
C44   H23   S    
Cu1   Cu2   S    
C6    C9    A    
C39   C41   A    
C29   H5    S    
C15   C19   A    
C35   C43   S    
C17   C23   A    
C18   C24   A    
C35   C37   A    
C44   H22   S    
C29   C32   S    
C2    O2    A    
C30   C31   S    
C45   H29   S    
C29   C33   S    
C26   O7    A    
C25   O8    A    
C17   C19   A    
C11   C17   A    
C36   C45   S    
Cu1   O5    S    
C31   C33   S    
Cu2   O4    S    
C25   O5    A    
C2    O3    A    
C10   H12   S    
C43   H24   S    
C21   H17   S    
Cu1   N1    S    
C25   C34   S    
C12   H14   S    
C23   H19   S    
C30   H6    S    
C24   H20   S    
C28   H4    S    
C27   C34   S    
C30   C34   S    
C27   C31   S    
C28   C32   S    
C44   H21   S    
C4    C6    A    
C8    H10   S    
C43   H25   S    
C13   N1    A    
C40   H8    S    
C12   N2    A    
C32   C34   S    
C43   C44   S    
Cu1   O1    S    
C22   H18   S    
C26   C33   S    
C46   H26   S    
C16   C20   A    
C14   N2    A    
Cu2   O8    S    
C1    C38   S    
C9    H11   S    
C8    C10   A    
C46   H27   S    
C28   C33   S    
C13   C15   A    
C14   C16   A    
Cu2   O2    S    
C7    H9    S    
C3    C4    A    
C27   H3    S    
C7    C9    A    
C3    C41   A    
C16   C22   A    
C32   H2    S    
C8    C42   A    
C3    C5    A    
C13   H15   S    
C14   H16   S    
C1    O4    A    
C28   C30   S    
C5    C10   A    
C37   C39   A    
C36   C38   A    
C38   C40   A    
C2    C37   S    
C4    C42   A    
C45   H30   S    
C5    C35   A    
C40   C42   A    
C1    O1    A    
C6    C36   A    
Cu2   O6    S    
C18   C20   A    
C7    C41   A    
C15   C21   A    
C46   H28   S    
Cu1   O3    S    
C45   C46   S    
C31   H1    S    
C21   C24   A    
C12   C18   A    
C22   C23   A    
C11   H13   S    
C11   N1    A    
