data_mof_unit_41518.cif
_audit_creation_date              2012-12-10T19:13:31-0500
_audit_creation_method            fapswitch 2.2
_symmetry_space_group_name_H-M    P1
_symmetry_Int_Tables_number       1
_space_group_crystal_system       triclinic
_cell_length_a                    9.68799
_cell_length_b                    10.70713
_cell_length_c                    16.641916
_cell_angle_alpha                 88.989596
_cell_angle_beta                  85.258314
_cell_angle_gamma                 89.094755
_cell_volume                      1719.92157393

loop_
_atom_site_label
_atom_site_type_symbol
_atom_type_description
_atom_site_fract_x
_atom_site_fract_y
_atom_site_fract_z
_atom_type_partial_charge
C1    C     C_R   0.498896 0.742626 0.500933 1.001248
C2    C     C_R   0.530416 0.443039 0.265665 -0.172626
C3    C     C_3   0.427588 0.931763 0.425468 0.285919
C4    C     C_R   0.480868 0.498140 0.653802 0.946061
C5    C     C_3   0.435681 0.077137 0.421866 0.244232
C6    C     C_3   0.414711 0.928480 0.580096 0.183194
C7    C     C_3   0.648734 0.926953 0.500014 -0.554934
C8    C     C_3   0.496818 0.879249 0.500968 -0.142636
C9    C     C_3   0.501773 0.122592 0.499046 -0.154032
C10   C     C_3   0.411857 0.074791 0.575821 0.218924
C11   C     C_3   0.651965 0.068891 0.494698 -0.476597
C12   C     C_R   0.341076 0.448073 0.781371 -0.248741
C13   C     C_3   0.914105 0.628782 0.510240 -0.543093
C14   C     C_3   0.075934 0.628679 0.514998 -0.313801
C15   C     C_3   0.911548 0.425359 0.569951 0.612638
C16   C     C_R   0.501314 0.257989 0.498675 0.971424
C17   C     C_3   0.930662 0.451374 0.425208 0.598991
C18   C     C_3   0.074728 0.418740 0.565430 -0.302078
C19   C     C_3   0.093105 0.458266 0.423592 -0.316174
C20   C     C_R   0.519142 0.491556 0.346926 0.950106
C21   C     C_R   0.468964 0.479441 0.740971 -0.197668
C22   C     C_R   0.587905 0.481768 0.783147 -0.308365
C23   C     C_R   0.431036 0.316522 0.165819 0.444345
C24   C     C_R   0.580586 0.449849 0.864373 0.627795
C25   C     C_R   0.453822 0.412121 0.904170 -0.124708
C26   C     C_R   0.333104 0.412737 0.862475 0.436477
C27   C     C_3   0.584124 0.906706 0.305521 0.067236
C28   C     C_3   0.540034 0.964171 0.226472 -0.303778
C29   C     C_3   0.661013 0.026496 0.177745 -0.944179
C30   C     C_3   0.161171 0.927573 0.585962 0.080429
C31   C     C_3   0.101476 0.996187 0.661246 -0.369810
C32   C     C_3   0.961633 0.055825 0.646982 -0.941149
C33   C     C_3   0.561332 0.123145 0.679559 0.102799
C34   C     C_R   0.424969 0.366152 0.243136 -0.325939
C35   C     C_3   0.542546 0.122849 0.771554 -0.344279
C36   C     C_3   0.680732 0.119886 0.809129 -0.951542
C37   C     C_3   0.194682 0.250516 0.908962 0.118531
C38   C     C_3   0.082801 0.204713 0.857498 -0.339161
C39   C     C_3   0.058435 0.065292 0.871598 -0.948521
C40   C     C_3   0.193169 0.288847 0.159704 0.061761
C41   C     C_3   0.111895 0.202680 0.220132 -0.350197
C42   C     C_3   0.960472 0.244295 0.232841 -0.851243
C43   C     C_R   0.650830 0.458806 0.214453 -0.304284
C44   C     C_R   0.660450 0.406720 0.138228 0.620281
C45   C     C_R   0.548898 0.339801 0.112878 -0.083956
C46   C     C_2   0.443187 0.383723 0.990566 -0.135161
C47   C     C_2   0.543204 0.322451 0.026584 -0.060047
F1    F     F_    0.773751 0.429971 0.086830 -0.634020
F2    F     F_    0.303226 0.126732 0.416982 -0.713691
F3    F     F_    0.891315 0.329430 0.414204 -0.645954
F4    F     F_    0.857599 0.306815 0.571247 -0.674966
F5    F     F_    0.696552 0.460186 0.904196 -0.635070
H1    H     H_    0.687124 0.507713 0.753234 0.186020
H2    H     H_    0.477633 0.899728 0.630027 0.139088
H3    H     H_    0.862366 0.672361 0.565222 0.190664
H4    H     H_    0.886872 0.688573 0.458340 0.186910
H5    H     H_    0.123673 0.696740 0.470149 0.192308
H6    H     H_    0.099610 0.658206 0.575904 0.196064
H7    H     H_    0.872985 0.468537 0.628043 0.050334
H8    H     H_    0.109790 0.444169 0.624816 0.124739
H9    H     H_    0.735665 0.513483 0.232753 0.174372
H10   H     H_    0.896305 0.507439 0.373432 0.044381
H11   H     H_    0.132078 0.521758 0.373426 0.125689
H12   H     H_    0.316159 0.910508 0.437152 0.163343
H13   H     H_    0.140586 0.364922 0.410026 0.225597
H14   H     H_    0.111390 0.320972 0.554628 0.211013
H15   H     H_    0.633001 0.283572 0.991797 0.205182
H16   H     H_    0.247953 0.446226 0.749642 0.181292
H17   H     H_    0.355231 0.424170 0.026389 0.180468
H18   H     H_    0.651145 0.823678 0.290906 0.156466
H19   H     H_    0.649359 0.971958 0.335716 0.119357
H20   H     H_    0.498347 0.889741 0.189942 0.231227
H21   H     H_    0.456392 0.034984 0.239342 0.254207
H22   H     H_    0.696364 0.107377 0.211028 0.258885
H23   H     H_    0.497212 0.113823 0.367816 0.119362
H24   H     H_    0.627223 0.060844 0.119053 0.277834
H25   H     H_    0.748320 0.958996 0.166121 0.268478
H26   H     H_    0.083961 0.857480 0.574120 0.153382
H27   H     H_    0.165579 0.985881 0.530304 0.149550
H28   H     H_    0.088133 0.928562 0.712604 0.239304
H29   H     H_    0.172231 0.069733 0.678071 0.255412
H30   H     H_    0.968315 0.106422 0.588165 0.324429
H31   H     H_    0.931141 0.123150 0.695317 0.282669
H32   H     H_    0.881462 0.982903 0.646604 0.246246
H33   H     H_    0.623022 0.205821 0.658540 0.204390
H34   H     H_    0.308666 0.109228 0.563328 0.181722
H35   H     H_    0.618981 0.036925 0.661277 0.121568
H36   H     H_    0.484030 0.207953 0.791403 0.222818
H37   H     H_    0.481403 0.040145 0.793327 0.226626
H38   H     H_    0.739644 0.033509 0.791547 0.267388
H39   H     H_    0.662075 0.120489 0.875843 0.268672
H40   H     H_    0.742281 0.203249 0.789441 0.278223
H41   H     H_    0.163102 0.228088 0.973008 0.172276
H42   H     H_    0.293087 0.197147 0.893609 0.112911
H43   H     H_    0.984305 0.256770 0.873156 0.266998
H44   H     H_    0.115141 0.222580 0.792741 0.215959
H45   H     H_    0.695735 0.895058 0.555791 0.189618
H46   H     H_    0.154539 0.011054 0.853922 0.267228
H47   H     H_    0.975290 0.034474 0.834904 0.273699
H48   H     H_    0.025775 0.045769 0.936099 0.275158
H49   H     H_    0.140310 0.291914 0.103149 0.183874
H50   H     H_    0.189194 0.386851 0.181596 0.129217
H51   H     H_    0.116887 0.105644 0.197273 0.235606
H52   H     H_    0.158456 0.202585 0.278885 0.260087
H53   H     H_    0.952669 0.342218 0.253807 0.275384
H54   H     H_    0.905150 0.182917 0.278931 0.282373
H55   H     H_    0.909935 0.237776 0.175582 0.271025
H56   H     H_    0.716207 0.887338 0.449238 0.215510
H57   H     H_    0.709143 0.098523 0.436934 0.226489
H58   H     H_    0.338092 0.344516 0.285893 0.190320
H59   H     H_    0.713511 0.105257 0.542013 0.257750
N1    N     N_3   0.861190 0.500250 0.501720 -0.099478
N2    N     N_3   0.138550 0.503270 0.501080 -0.081652
O1    O     O_R   0.383960 0.685090 0.500020 -0.586651
O2    O     O_3   0.286855 0.864329 0.600069 -0.642449
O3    O     O_3   0.428881 0.134063 0.650379 -0.674821
O4    O     O_3   0.205696 0.382024 0.900806 -0.620355
O5    O     O_3   0.328608 0.239303 0.141405 -0.646116
O6    O     O_R   0.616040 0.685320 0.499960 -0.659391
O7    O     O_R   0.370240 0.499890 0.615830 -0.617779
O8    O     O_R   0.602330 0.500120 0.615770 -0.632938
O9    O     O_R   0.383960 0.314680 0.500040 -0.592922
O10   O     O_R   0.616040 0.314910 0.499980 -0.540073
O11   O     O_R   0.397670 0.499880 0.384230 -0.623109
O12   O     O_R   0.629760 0.500110 0.384170 -0.621390
O13   O     O_3   0.465197 0.865306 0.352962 -0.652997
Zn1   Zn    Zn3+2 0.345040 0.499850 0.500040 0.958662
Zn2   Zn    Zn3+2 0.654960 0.500150 0.499960 0.986311

loop_
_geom_bond_atom_site_label_1
_geom_bond_atom_site_label_2
_ccdc_geom_bond_type
C24   F5    S    
C15   C18   S    
C40   O5    S    
C23   C45   A    
C11   H57   S    
C1    C8    S    
C41   C42   S    
C35   C36   S    
C26   O4    S    
C23   O5    S    
O10   Zn2   S    
C3    O13   S    
C27   H19   S    
C7    C8    S    
C29   H24   S    
C3    H12   S    
C7    C11   S    
C12   H16   S    
C28   C29   S    
C9    C16   S    
C13   N1    S    
C30   C31   S    
C27   O13   S    
C19   N2    S    
O1    Zn1   S    
C1    O6    A    
O9    Zn1   S    
C14   H5    S    
C33   H33   S    
C46   H17   S    
C16   O9    A    
C17   C19   S    
C40   H49   S    
C19   H11   S    
C38   H43   S    
C37   H42   S    
O12   Zn2   S    
C15   F4    S    
C42   H55   S    
C13   H4    S    
O6    Zn2   S    
C36   H40   S    
C21   C22   A    
C5    F2    S    
C28   H20   S    
C6    H2    S    
C14   H6    S    
C28   H21   S    
C18   N2    S    
C47   H15   S    
C22   H1    S    
C30   O2    S    
C45   C47   S    
C32   H32   S    
O7    Zn1   S    
C20   O11   A    
C11   H59   S    
C31   H28   S    
C24   C25   A    
O8    Zn2   S    
C3    C8    S    
C39   H46   S    
C6    C8    S    
C29   H22   S    
C25   C26   A    
C2    C20   S    
C12   C21   A    
C41   H51   S    
C12   C26   A    
C5    H23   S    
C43   C44   A    
C5    C9    S    
C37   C38   S    
C17   H10   S    
C42   H54   S    
C35   H36   S    
C39   H47   S    
C31   C32   S    
C29   H25   S    
C2    C43   A    
C23   C34   A    
C37   H41   S    
C9    C11   S    
C27   H18   S    
O11   Zn1   S    
C30   H27   S    
C35   H37   S    
C36   H39   S    
C18   H8    S    
C40   C41   S    
C34   H58   S    
C22   C24   A    
C1    O1    A    
C17   N1    S    
C10   O3    S    
C44   C45   A    
C43   H9    S    
C9    C10   S    
C36   H38   S    
C32   H31   S    
C46   C47   D    
C10   H34   S    
C33   O3    S    
C7    H45   S    
C15   H7    S    
C15   N1    S    
C16   O10   A    
C3    C5    S    
C17   F3    S    
C6    C10   S    
N2    Zn1   S    
C18   H14   S    
C14   N2    S    
C32   H30   S    
C31   H29   S    
C41   H52   S    
C33   H35   S    
C20   O12   A    
C4    C21   S    
C2    C34   A    
C39   H48   S    
C38   C39   S    
C33   C35   S    
C4    O8    A    
C19   H13   S    
C42   H53   S    
C6    O2    S    
N1    Zn2   S    
C40   H50   S    
C30   H26   S    
C37   O4    S    
C38   H44   S    
C27   C28   S    
C7    H56   S    
C4    O7    A    
C13   C14   S    
C25   C46   S    
C44   F1    S    
C13   H3    S    
