data_mof_unit_29101.cif
_audit_creation_date              2012-12-10T16:39:38-0500
_audit_creation_method            fapswitch 2.2
_symmetry_space_group_name_H-M    P1
_symmetry_Int_Tables_number       1
_space_group_crystal_system       triclinic
_cell_length_a                    17.059377
_cell_length_b                    16.841314
_cell_length_c                    16.800828
_cell_angle_alpha                 65.879731
_cell_angle_beta                  67.012996
_cell_angle_gamma                 67.023169
_cell_volume                      3899.68314745

loop_
_atom_site_label
_atom_site_type_symbol
_atom_type_description
_atom_site_fract_x
_atom_site_fract_y
_atom_site_fract_z
_atom_type_partial_charge
C1    C     C_R   0.314136 0.999938 0.437129 -0.072712
C2    C     C_R   0.312051 0.431483 0.007847 -0.068321
C3    C     C_R   0.545645 0.425603 0.965746 0.007929
C4    C     C_R   0.016623 0.452205 0.585889 0.013998
C5    C     C_R   0.979608 0.548755 0.415659 0.015203
C6    C     C_1   0.278173 0.044393 0.797688 0.195915
C7    C     C_1   0.715230 0.984256 0.188656 0.194591
C8    C     C_1   0.005773 0.817519 0.280064 0.185121
C9    C     C_1   0.973087 0.191333 0.731259 0.191562
C10   C     C_1   0.822055 0.322379 0.929338 0.192207
C11   C     C_1   0.174336 0.674638 0.078957 0.193577
C12   C     C_1   0.189711 0.013988 0.703659 0.194114
C13   C     C_R   0.052984 0.673572 0.540841 -0.052412
C14   C     C_1   0.798585 0.040782 0.263893 0.186304
C15   C     C_1   0.731866 0.231712 0.898944 0.189928
C16   C     C_1   0.264816 0.765620 0.107910 0.191534
C17   C     C_1   0.927669 0.748687 0.213125 0.203011
C18   C     C_1   0.061950 0.254393 0.791884 0.196890
C19   C     C_1   0.405156 0.152706 0.732286 0.201923
C20   C     C_1   0.599491 0.863926 0.266958 0.205775
C21   C     C_1   0.126707 0.754313 0.387123 0.225482
C22   C     C_1   0.867882 0.246819 0.611681 0.208410
C23   C     C_1   0.808061 0.517302 0.869381 0.194740
C24   C     C_R   0.944743 0.326999 0.459910 -0.040878
C25   C     C_1   0.191580 0.481115 0.132387 0.192926
C26   C     C_1   0.192891 0.114825 0.503093 0.201358
C27   C     C_1   0.750446 0.137368 0.389756 0.203268
C28   C     C_1   0.580354 0.283167 0.831358 0.185082
C29   C     C_1   0.419667 0.711997 0.171427 0.178847
C30   C     C_1   0.858447 0.606750 0.249806 0.211849
C31   C     C_1   0.138807 0.391618 0.752014 0.214872
C32   C     C_R   0.452642 0.000636 0.448980 -0.004777
C33   C     C_R   0.542469 0.033750 0.536908 -0.004821
C34   C     C_R   0.972832 0.459253 0.459628 -0.003114
C35   C     C_R   0.024174 0.541434 0.541601 -0.002664
C36   C     C_R   0.452360 0.453190 0.990387 -0.002627
C37   C     C_R   0.546206 0.548754 0.007689 -0.003202
C38   C     C_R   0.962643 0.179285 0.437671 0.911906
C39   C     C_R   0.675565 0.053300 0.540275 -0.065156
C40   C     C_R   0.037355 0.820644 0.562404 0.932112
C41   C     C_R   0.174682 0.429699 0.983860 0.945212
C42   C     C_R   0.824554 0.569837 0.017796 0.946274
C43   C     C_R   0.436934 0.964962 0.179386 0.889892
C44   C     C_R   0.563574 0.035111 0.820632 0.905759
C45   C     C_R   0.563012 0.820583 0.035813 0.893934
C46   C     C_R   0.436705 0.179330 0.964538 0.903579
C47   C     C_R   0.038651 0.561839 0.820517 0.927224
C48   C     C_R   0.961919 0.438013 0.179378 0.930271
C49   C     C_R   0.821515 0.034424 0.563058 0.942841
C50   C     C_R   0.941446 0.460299 0.328620 -0.034985
C51   C     C_R   0.176603 0.978562 0.431602 0.952705
C52   C     C_R   0.406845 0.985127 0.404557 0.040324
C53   C     C_R   0.588539 0.046079 0.583035 0.040427
C54   C     C_R   0.954065 0.415189 0.415633 0.033258
C55   C     C_R   0.044186 0.585133 0.585092 0.035525
C56   C     C_R   0.405250 0.405372 0.981856 0.042529
C57   C     C_R   0.593417 0.595844 0.017203 0.041555
C58   C     C_R   0.270363 0.976804 0.395294 -0.162307
C59   C     C_R   0.724671 0.053508 0.592712 -0.173444
C60   C     C_R   0.938815 0.409327 0.279024 -0.179534
C61   C     C_R   0.058118 0.539606 0.671610 -0.033572
C62   C     C_R   0.062640 0.590118 0.720609 -0.178556
C63   C     C_R   0.401851 0.277315 0.950854 -0.230313
C64   C     C_R   0.596497 0.722141 0.050964 -0.241249
C65   C     C_R   0.595593 0.056049 0.721206 -0.223500
C66   C     C_R   0.405121 0.949943 0.277913 -0.237041
C67   C     C_R   0.731556 0.608400 0.017143 -0.164705
C68   C     C_R   0.266990 0.390692 0.985699 -0.164114
C69   C     C_R   0.060197 0.721375 0.590741 -0.186388
C70   C     C_R   0.940182 0.278418 0.409074 -0.180893
C71   C     C_R   0.452578 0.075591 0.699079 0.000825
C72   C     C_R   0.451039 0.330411 0.948475 -0.037368
C73   C     C_R   0.546578 0.942421 0.296885 0.000042
C74   C     C_R   0.058773 0.708699 0.447008 -0.024454
C75   C     C_R   0.935610 0.293192 0.554426 -0.004767
C76   C     C_R   0.730937 0.503952 0.945174 -0.010056
C77   C     C_R   0.267937 0.495863 0.055896 -0.010020
C78   C     C_R   0.269602 0.037303 0.510240 -0.005288
C79   C     C_R   0.707312 0.066140 0.445419 -0.022107
C80   C     C_R   0.543383 0.312854 0.911175 -0.003331
C81   C     C_R   0.455183 0.687667 0.088624 -0.000050
C82   C     C_R   0.925448 0.555553 0.297658 -0.014362
C83   C     C_R   0.547453 0.670511 0.050865 -0.031564
C84   C     C_R   0.072608 0.444437 0.703055 -0.013008
C85   C     C_R   0.317493 0.947576 0.319296 0.356629
C86   C     C_R   0.683043 0.059994 0.680037 0.350735
C87   C     C_R   0.930001 0.322642 0.322555 0.322178
C88   C     C_R   0.073806 0.676117 0.675988 0.328746
C89   C     C_R   0.311898 0.313355 0.959383 0.346445
C90   C     C_R   0.685285 0.683724 0.047235 0.354380
C91   C     C_R   0.670358 0.036373 0.403728 -0.004093
C92   C     C_R   0.316513 0.029255 0.567169 -0.004185
C93   C     C_R   0.041330 0.402015 0.667672 0.000673
C94   C     C_R   0.545529 0.056851 0.669823 -0.046408
C95   C     C_R   0.954299 0.599070 0.334140 0.000463
C96   C     C_R   0.406460 0.648805 0.070131 -0.003554
C97   C     C_R   0.591995 0.352313 0.929220 -0.003360
C98   C     C_R   0.587807 0.978478 0.327418 -0.011607
C99   C     C_R   0.408074 0.051067 0.661313 -0.008622
C100  C     C_R   0.312759 0.552765 0.052614 0.000379
C101  C     C_R   0.685676 0.447727 0.947811 -0.000399
C102  C     C_R   0.971190 0.327018 0.593873 0.001699
C103  C     C_R   0.021319 0.675434 0.409215 -0.009815
C104  C     C_R   0.712826 0.024133 0.316188 -0.063881
C105  C     C_R   0.453454 0.958471 0.325663 -0.035544
C106  C     C_R   0.273964 0.034879 0.656332 -0.063836
C107  C     C_R   0.032443 0.312284 0.711292 -0.064144
C108  C     C_R   0.958895 0.690437 0.292704 -0.062131
C109  C     C_R   0.312979 0.680305 0.087818 -0.062792
C110  C     C_R   0.685092 0.319213 0.914388 -0.063417
C111  C     C_R   0.672869 0.992542 0.279667 -0.062557
C112  C     C_R   0.319405 0.046301 0.703481 -0.063853
C113  C     C_R   0.266796 0.633312 0.077361 -0.059095
C114  C     C_R   0.731234 0.365899 0.925453 -0.060444
C115  C     C_R   0.991323 0.278257 0.678407 -0.064731
C116  C     C_R   0.686781 0.568941 0.992613 -0.070683
C117  C     C_R   0.996957 0.726127 0.327120 -0.064198
C118  C     C_R   0.542216 0.000401 0.408801 0.007622
C119  C     C_R   0.453440 0.032090 0.578047 0.009064
C120  C     C_R   0.988469 0.412112 0.545901 0.011125
C121  C     C_R   0.007030 0.589077 0.455991 0.011478
C122  C     C_R   0.405996 0.528327 0.023854 0.011947
C123  C     C_R   0.592474 0.473426 0.974622 0.011652
C124  C     C_R   0.585800 0.021892 0.450318 0.014311
C125  C     C_R   0.407886 0.019153 0.532198 0.012088
C126  C     C_R   0.452840 0.576358 0.032384 0.007576
H1    H     H_    0.317244 0.873584 0.257304 0.360590
H2    H     H_    0.697432 0.115969 0.750459 0.365379
H3    H     H_    0.971969 0.246788 0.247286 0.362926
H4    H     H_    0.042175 0.750630 0.750315 0.363357
H5    H     H_    0.297974 0.255466 0.891097 0.365765
H6    H     H_    0.687910 0.741020 0.122974 0.358670
N1    N     N_1   0.245840 0.042218 0.873000 -0.159574
N2    N     N_1   0.226459 0.833771 0.123494 -0.149892
N3    N     N_1   0.902823 0.795720 0.149805 -0.144748
N4    N     N_1   0.085463 0.207699 0.856039 -0.145925
N5    N     N_1   0.368256 0.216669 0.755347 -0.226494
N6    N     N_1   0.642181 0.799576 0.245736 -0.216390
N7    N     N_1   0.181391 0.790042 0.339277 -0.126598
N8    N     N_1   0.813173 0.210580 0.657317 -0.153592
N9    N     N_1   0.868077 0.528895 0.807031 -0.200620
N10   N     N_1   0.132195 0.468384 0.195182 -0.199399
N11   N     N_1   0.133033 0.178227 0.496794 -0.195298
N12   N     N_1   0.748714 0.978122 0.115993 -0.157902
N13   N     N_1   0.783571 0.195265 0.345102 -0.104300
N14   N     N_1   0.608070 0.262665 0.765768 -0.232056
N15   N     N_1   0.392984 0.727428 0.239674 -0.227382
N16   N     N_1   0.803998 0.646875 0.212507 -0.137184
N17   N     N_1   0.192261 0.350153 0.790566 -0.154452
N18   N     N_1   0.013558 0.889995 0.242224 -0.155994
N19   N     N_1   0.957450 0.122639 0.774108 -0.145057
N20   N     N_1   0.893848 0.287329 0.934642 -0.181207
N21   N     N_1   0.101042 0.707883 0.078458 -0.186371
N22   N     N_1   0.123579 0.994938 0.741688 -0.167527
N23   N     N_1   0.866472 0.055012 0.221503 -0.157665
N24   N     N_1   0.768520 0.161631 0.887341 -0.151022
O1    O     O_R   0.982940 0.138950 0.510160 -0.637588
O2    O     O_R   0.982940 0.510160 0.138950 -0.635908
O3    O     O_R   0.861050 0.017060 0.489840 -0.652370
O4    O     O_R   0.138950 0.982940 0.510160 -0.646314
O5    O     O_R   0.867700 0.025880 0.612340 -0.547666
O6    O     O_R   0.132300 0.974120 0.387660 -0.551578
O7    O     O_R   0.025880 0.612340 0.867700 -0.609425
O8    O     O_R   0.974120 0.387660 0.132300 -0.602113
O9    O     O_R   0.612340 0.867700 0.025880 -0.578890
O10   O     O_R   0.387660 0.132300 0.974120 -0.579039
O11   O     O_R   0.387660 0.974120 0.132300 -0.583872
O12   O     O_R   0.017060 0.861050 0.489840 -0.640662
O13   O     O_R   0.612340 0.025880 0.867700 -0.583684
O14   O     O_R   0.132300 0.387660 0.974120 -0.554409
O15   O     O_R   0.867700 0.612340 0.025880 -0.552594
O16   O     O_R   0.974120 0.132300 0.387660 -0.608421
O17   O     O_R   0.025880 0.867700 0.612340 -0.601456
O18   O     O_3   0.274494 0.922483 0.282682 -0.703620
O19   O     O_3   0.731472 0.063891 0.726884 -0.698174
O20   O     O_3   0.913264 0.279941 0.278816 -0.710331
O21   O     O_3   0.098090 0.716333 0.716272 -0.717744
O22   O     O_3   0.265095 0.269560 0.948615 -0.695878
O23   O     O_R   0.138950 0.510160 0.982940 -0.641818
O24   O     O_3   0.728824 0.721956 0.069455 -0.695925
O25   O     O_R   0.861050 0.489840 0.017060 -0.641668
O26   O     O_R   0.510160 0.982940 0.138950 -0.630552
O27   O     O_R   0.489840 0.017060 0.861050 -0.631933
O28   O     O_R   0.489840 0.861050 0.017060 -0.626720
O29   O     O_R   0.510160 0.138950 0.982940 -0.629607
O30   O     O_R   0.017060 0.489840 0.861050 -0.633981
Zn1   Zn    Zn3+2 0.004880 0.004880 0.583590 1.054212
Zn2   Zn    Zn3+2 0.995120 0.995120 0.416410 1.045075
Zn3   Zn    Zn3+2 0.004880 0.583590 0.004880 1.051597
Zn4   Zn    Zn3+2 0.995120 0.416410 0.995120 1.055355
Zn5   Zn    Zn3+2 0.583590 0.004880 0.004880 1.053840
Zn6   Zn    Zn3+2 0.416410 0.995120 0.995120 1.053029

loop_
_geom_bond_atom_site_label_1
_geom_bond_atom_site_label_2
_ccdc_geom_bond_type
C32   C125  A    
C12   C106  S    
C38   C70   S    
C122  C126  A    
O12   Zn2   S    
C5    C121  A    
C14   N23   T    
C4    C120  A    
C19   C71   S    
C25   N10   T    
C64   C90   A    
C91   C104  A    
C16   N2    T    
O27   Zn6   S    
C66   C85   A    
C11   C113  S    
C24   C70   A    
C88   O21   S    
C71   C94   A    
C106  C112  A    
C76   C116  A    
O11   Zn6   S    
C39   C53   A    
C50   C54   A    
C13   C69   A    
C77   C100  A    
C25   C77   S    
C80   C97   A    
C6    N1    T    
C2    C68   A    
C40   O17   A    
C31   N17   T    
O29   Zn5   S    
C24   C54   A    
C22   N8    T    
C51   O4    A    
C28   N14   T    
O15   Zn3   S    
C51   O6    A    
C86   O19   S    
C20   N6    T    
C44   O13   A    
C32   C52   A    
C102  C115  A    
C10   N20   T    
C37   C123  A    
C73   C105  A    
H5    O22   S    
C9    N19   T    
C27   N13   T    
C56   C72   A    
C8    C117  S    
C75   C102  A    
C57   C83   A    
H3    O20   S    
C18   N4    T    
C98   C111  A    
C57   C116  A    
C110  C114  A    
C79   C91   A    
C10   C114  S    
C109  C113  A    
C47   O7    A    
H1    O18   S    
C4    C35   A    
C92   C125  A    
C34   C120  A    
C101  C114  A    
C15   C110  S    
C44   C65   S    
C103  C117  A    
C6    C112  S    
C22   C75   S    
C47   C62   S    
O8    Zn4   S    
C70   C87   A    
C7    N12   T    
C81   C83   A    
C60   C87   A    
C3    C123  A    
C16   C109  S    
C48   C60   S    
C41   C68   S    
C42   O25   A    
C33   C53   A    
C73   C98   A    
C90   O24   S    
C40   O12   A    
C40   C69   S    
C1    C78   A    
C9    C115  S    
C65   C86   A    
C100  C122  A    
C95   C108  A    
O2    Zn3   S    
C32   C118  A    
C81   C96   A    
C74   C103  A    
C78   C92   A    
C48   O2    A    
C21   C74   S    
C35   C55   A    
C31   C84   S    
C39   C79   A    
O3    Zn2   S    
C30   C82   S    
C8    N18   T    
C67   C116  A    
C64   C83   A    
C29   C81   S    
C87   O20   S    
H4    O21   S    
C33   C124  A    
O25   Zn4   S    
C3    C97   A    
C14   C104  S    
O23   Zn3   S    
C35   C121  A    
C19   N5    T    
C39   C59   A    
C5    C34   A    
C63   C89   A    
O28   Zn6   S    
C85   O18   S    
C96   C126  A    
O7    Zn3   S    
C51   C58   S    
C118  C124  A    
C89   O22   S    
C18   C107  S    
C47   O30   A    
C30   N16   T    
C44   O27   A    
C107  C115  A    
C15   N24   T    
C69   C88   A    
C101  C123  A    
C17   N3    T    
C119  C125  A    
C92   C106  A    
C65   C94   A    
H6    O24   S    
C52   C105  A    
C34   C54   A    
C91   C124  A    
C42   C67   S    
C17   C108  S    
O26   Zn5   S    
O13   Zn5   S    
C66   C105  A    
C26   N11   T    
C103  C121  A    
C58   C85   A    
C102  C120  A    
C50   C82   A    
C37   C126  A    
C41   O14   A    
C76   C101  A    
O17   Zn1   S    
H2    O19   S    
C82   C95   A    
C46   O10   A    
C53   C94   A    
C49   O5    A    
C108  C117  A    
C41   O23   A    
C23   N9    T    
C100  C113  A    
O1    Zn1   S    
C38   O1    A    
C12   N22   T    
C61   C84   A    
C29   N15   T    
C104  C111  A    
C24   C75   A    
C38   O16   A    
C48   O8    A    
C43   O11   A    
C96   C109  A    
O14   Zn4   S    
C45   C64   S    
C27   C79   S    
C49   C59   S    
C46   C63   S    
C50   C60   A    
C43   O26   A    
O5    Zn1   S    
C36   C122  A    
C2    C56   A    
C1    C58   A    
C93   C107  A    
O6    Zn2   S    
C97   C110  A    
C5    C95   A    
C62   C88   A    
C3    C36   A    
O16   Zn2   S    
C43   C66   S    
C99   C112  A    
C55   C61   A    
C98   C118  A    
C36   C56   A    
O9    Zn5   S    
C7    C111  S    
C20   C73   S    
O10   Zn6   S    
C84   C93   A    
C67   C90   A    
C46   O29   A    
C71   C99   A    
C61   C62   A    
C28   C80   S    
C1    C52   A    
C59   C86   A    
C42   O15   A    
C11   N21   T    
C99   C119  A    
C4    C93   A    
C63   C72   A    
C33   C119  A    
C72   C80   A    
C2    C77   A    
C23   C76   S    
C21   N7    T    
C49   O3    A    
O30   Zn4   S    
O4    Zn1   S    
C68   C89   A    
C45   O9    A    
C37   C57   A    
C45   O28   A    
C26   C78   S    
C13   C74   A    
C13   C55   A    
