data_mof_unit_57093.cif
_audit_creation_date              2012-12-10T18:45:07-0500
_audit_creation_method            fapswitch 2.2
_symmetry_space_group_name_H-M    P1
_symmetry_Int_Tables_number       1
_space_group_crystal_system       triclinic
_cell_length_a                    10.718791
_cell_length_b                    9.907307
_cell_length_c                    10.684901
_cell_angle_alpha                 90.073957
_cell_angle_beta                  91.265213
_cell_angle_gamma                 89.805206
_cell_volume                      1134.39212045

loop_
_atom_site_label
_atom_site_type_symbol
_atom_type_description
_atom_site_fract_x
_atom_site_fract_y
_atom_site_fract_z
_atom_type_partial_charge
C1    C     C_R   0.260181 0.499887 0.501616 1.129915
C2    C     C_R   0.739915 0.499682 0.502038 0.929399
C3    C     C_R   0.935058 0.615420 0.468312 -0.245873
C4    C     C_R   0.062841 0.615923 0.469279 -0.189201
C5    C     C_R   0.569097 0.069547 0.587681 0.464525
C6    C     C_R   0.430582 0.069845 0.412510 0.453367
C7    C     C_R   0.567316 0.926891 0.587517 -0.061183
C8    C     C_R   0.432462 0.927139 0.412604 -0.064440
C9    C     C_R   0.494620 0.499954 0.260442 0.954433
C10   C     C_R   0.493787 0.500248 0.739347 0.957563
C11   C     C_R   0.277115 0.619647 0.126668 0.368887
C12   C     C_R   0.278256 0.624388 0.866112 0.394315
C13   C     C_R   0.178944 0.683254 0.059821 0.353932
C14   C     C_R   0.179451 0.685480 0.929756 0.351307
C15   C     C_R   0.380479 0.563938 0.932126 -0.130193
C16   C     C_R   0.380204 0.562418 0.063893 -0.129606
C17   C     C_R   0.482037 0.499205 0.127939 0.004758
C18   C     C_R   0.481851 0.500319 0.871545 0.002327
C19   C     C_R   0.576601 0.432945 0.065338 -0.179356
C20   C     C_R   0.576357 0.433238 0.937626 -0.178229
C21   C     C_R   0.065638 0.385130 0.548838 0.560797
C22   C     C_R   0.937741 0.384827 0.548498 0.563814
C23   C     C_R   0.872591 0.499439 0.506235 -0.260018
C24   C     C_R   0.127837 0.499984 0.506735 -0.235160
H1    H     H_    0.652809 0.383547 0.115920 0.164088
H2    H     H_    0.652277 0.383790 0.889865 0.175895
H3    H     H_    0.885442 0.704779 0.436103 0.216411
H4    H     H_    0.110471 0.705890 0.438635 0.219459
H5    H     H_    0.621577 0.871720 0.657222 0.184273
H6    H     H_    0.377993 0.872160 0.343044 0.197393
N1    N     N_R   0.500000 0.857200 0.500000 -0.163804
N2    N     N_R   0.500000 0.142810 0.500000 -0.207486
O1    O     O_R   0.316770 0.614620 0.499990 -0.546058
O2    O     O_R   0.683230 0.614620 0.500010 -0.635128
O3    O     O_R   0.316800 0.385290 0.500000 -0.612475
O4    O     O_R   0.683200 0.385290 0.500000 -0.602688
O5    O     O_R   0.500010 0.614690 0.316770 -0.588653
O6    O     O_R   0.499990 0.614690 0.683230 -0.584332
O7    O     O_R   0.500040 0.385360 0.316770 -0.647338
O8    O     O_R   0.499960 0.385360 0.683230 -0.637112
Zn1   Zn    Zn3+2 0.500000 0.653120 0.500000 1.022275
Zn2   Zn    Zn3+2 0.500000 0.346880 0.500000 1.023778
F1    F     F_    0.266935 0.608659 0.251934 -0.711390
F2    F     F_    0.270234 0.621184 0.740187 -0.685595
O9    O     O_3   0.078853 0.742062 0.118683 -0.665409
H7    H     H_    0.092283 0.738381 0.210512 0.368174
O10   O     O_3   0.079759 0.746236 0.867438 -0.655129
H8    H     H_    0.091920 0.742073 0.775919 0.384407
F3    F     F_    0.127905 0.274258 0.592008 -0.590763
F4    F     F_    0.878614 0.273455 0.590888 -0.605297
O11   O     O_3   0.642120 0.130031 0.678725 -0.703125
H9    H     H_    0.653317 0.224778 0.655734 0.406920
O12   O     O_3   0.356905 0.130619 0.321908 -0.730175
H10   H     H_    0.344842 0.225314 0.345270 0.392801

loop_
_geom_bond_atom_site_label_1
_geom_bond_atom_site_label_2
_ccdc_geom_bond_type
C15   C18   A    
C6    N2    A    
C11   F1    S    
C14   O10   S    
C7    H5    S    
C11   C16   A    
C3    C23   A    
C19   C20   A    
C12   C15   A    
C10   O6    A    
C22   F4    S    
C5    N2    A    
O1    Zn1   S    
C21   C22   A    
C2    O2    A    
O8    Zn2   S    
C8    H6    S    
C12   F2    S    
C13   C14   A    
C13   O9    S    
C11   C13   A    
O2    Zn1   S    
C20   H2    S    
C10   C18   S    
C4    C24   A    
C21   F3    S    
C9    C17   S    
C17   C19   A    
C12   C14   A    
O7    Zn2   S    
C18   C20   A    
C3    H3    S    
O5    Zn1   S    
C19   H1    S    
C7    N1    A    
C6    O12   S    
C1    O1    A    
O11   H9    S    
O10   H8    S    
C9    O7    A    
C1    O3    A    
C1    C24   S    
C10   O8    A    
O6    Zn1   S    
C21   C24   A    
C2    O4    A    
C2    C23   S    
C5    C7    A    
O3    Zn2   S    
N2    Zn2   S    
C22   C23   A    
C5    O11   S    
C6    C8    A    
N1    Zn1   S    
C4    H4    S    
O9    H7    S    
C8    N1    A    
O4    Zn2   S    
C3    C4    A    
C15   C16   A    
O12   H10   S    
C16   C17   A    
C9    O5    A    
