data_mof_unit_32819.cif
_audit_creation_date              2012-12-11T14:45:56-0500
_audit_creation_method            fapswitch 2.2
_symmetry_space_group_name_H-M    P1
_symmetry_Int_Tables_number       1
_space_group_crystal_system       triclinic
_cell_length_a                    10.879284
_cell_length_b                    10.933909
_cell_length_c                    18.80704
_cell_angle_alpha                 89.928097
_cell_angle_beta                  90.34783
_cell_angle_gamma                 119.646296
_cell_volume                      1944.26229182

loop_
_atom_site_label
_atom_site_type_symbol
_atom_type_description
_atom_site_fract_x
_atom_site_fract_y
_atom_site_fract_z
_atom_type_partial_charge
C1    C     C_R   0.864900 0.637209 0.603592 0.544564
C2    C     C_R   0.425323 0.627314 0.777573 -0.115774
C3    C     C_R   0.403831 0.618336 0.705183 -0.131265
C4    C     C_R   0.323138 0.671980 0.675283 0.028017
C5    C     C_R   0.837920 0.160828 0.820966 -0.034343
C6    C     C_R   0.087784 0.223059 0.825175 -0.089006
C7    C     C_R   0.209787 0.244173 0.790921 -0.123138
C8    C     C_R   0.206987 0.219593 0.718245 -0.129359
C9    C     C_R   0.084143 0.181005 0.678856 -0.081382
C10   C     C_R   0.962232 0.170321 0.711310 0.011361
C11   C     C_R   0.961710 0.182184 0.786498 -0.003623
C12   C     C_R   0.270813 0.632744 0.603647 0.540694
C13   C     C_R   0.715239 0.113096 0.706577 0.014410
C14   C     C_R   0.722144 0.147707 0.778767 0.027485
C15   C     C_R   0.585001 0.059950 0.669670 -0.068040
C16   C     C_R   0.472531 0.067681 0.699672 -0.117867
C17   C     C_R   0.487432 0.125117 0.767058 -0.139773
C18   C     C_R   0.611418 0.167009 0.805906 -0.074790
C19   C     C_R   0.841611 0.148720 0.670931 -0.043545
C20   C     C_R   0.729036 0.534129 0.713694 -0.138341
C21   C     C_R   0.719903 0.545622 0.786842 -0.157769
C22   C     C_R   0.802564 0.676057 0.819540 0.027994
C23   C     C_R   0.860910 0.220987 0.601422 0.529706
C24   C     C_R   0.884688 0.796544 0.778250 -0.128562
C25   C     C_R   0.892280 0.785627 0.705843 -0.146708
C26   C     C_R   0.820284 0.653755 0.673592 0.022298
C27   C     C_R   0.405768 0.623016 0.295937 -0.142864
C28   C     C_R   0.427720 0.632962 0.223687 -0.126420
C29   C     C_R   0.371230 0.698151 0.180305 0.028575
C30   C     C_R   0.299556 0.761296 0.210215 -0.156816
C31   C     C_R   0.275885 0.749922 0.283016 -0.118896
C32   C     C_R   0.325870 0.677177 0.325591 0.032432
C33   C     C_R   0.689299 0.076619 0.299774 -0.013193
C34   C     C_R   0.864519 0.638899 0.397874 0.544307
C35   C     C_R   0.673046 0.041591 0.227770 -0.133938
C36   C     C_R   0.789493 0.069066 0.186043 0.014349
C37   C     C_R   0.923281 0.122224 0.217557 -0.142653
C38   C     C_R   0.942212 0.158470 0.289188 -0.155745
C39   C     C_R   0.828068 0.143822 0.330023 0.013604
C40   C     C_R   0.903678 0.785893 0.294191 -0.140502
C41   C     C_R   0.900652 0.794161 0.221611 -0.132718
C42   C     C_R   0.809217 0.675639 0.180925 0.032144
C43   C     C_R   0.718462 0.548237 0.214257 -0.152559
C44   C     C_R   0.725227 0.538355 0.287720 -0.141353
C45   C     C_R   0.270854 0.634500 0.396508 0.544648
C46   C     C_R   0.821834 0.656594 0.327445 0.025663
C47   C     C_R   0.807336 0.105635 0.895005 0.539925
C48   C     C_R   0.399619 0.702414 0.895365 0.548312
C49   C     C_R   0.794084 0.696443 0.894978 0.549613
C50   C     C_R   0.767139 0.041219 0.109793 0.562732
C51   C     C_R   0.401114 0.706625 0.105241 0.540601
C52   C     C_R   0.796549 0.697815 0.106050 0.542100
C53   C     C_R   0.859230 0.223905 0.396932 0.536953
C54   C     C_R   0.269075 0.740214 0.717950 -0.123824
C55   C     C_R   0.293628 0.752085 0.790654 -0.130749
C56   C     C_R   0.367959 0.691508 0.820572 0.041070
Cr1   Cr    Cr6+3 0.791660 0.390250 0.499930 1.017753
Cr2   Cr    Cr6+3 0.098520 0.708290 0.500540 0.985146
Cr3   Cr    Cr6+3 0.109770 0.401430 0.499480 1.004194
Cr4   Cr    Cr6+3 0.874790 0.925890 0.000070 1.005997
Cr5   Cr    Cr6+3 0.574120 0.948670 0.999300 1.009953
Cr6   Cr    Cr6+3 0.551420 0.625320 0.000920 1.002748
H1    H     H_    0.202806 0.779032 0.695705 0.140444
H2    H     H_    0.375531 0.033119 0.669778 0.099758
H3    H     H_    0.572792 0.018856 0.616128 0.109795
H4    H     H_    0.402178 0.135302 0.789845 0.102019
H5    H     H_    0.671716 0.430800 0.689472 0.147482
H6    H     H_    0.651412 0.453460 0.817828 0.109800
H7    H     H_    0.944235 0.900211 0.801875 0.153675
H8    H     H_    0.961494 0.879043 0.675784 0.127762
H9    H     H_    0.445246 0.567250 0.328002 0.125558
H10   H     H_    0.488017 0.588029 0.201460 0.143670
H11   H     H_    0.259038 0.815056 0.177372 0.119826
H12   H     H_    0.251553 0.804051 0.823430 0.120626
H13   H     H_    0.212268 0.791351 0.305254 0.153247
H14   H     H_    0.569319 0.996638 0.203343 0.129385
H15   H     H_    0.014571 0.142156 0.186282 0.130426
H16   H     H_    0.048458 0.208133 0.311041 0.131910
H17   H     H_    0.978021 0.878764 0.323638 0.128807
H18   H     H_    0.969882 0.895077 0.197568 0.134311
H19   H     H_    0.644404 0.457163 0.183686 0.121054
H20   H     H_    0.660987 0.437054 0.312715 0.140174
H21   H     H_    0.486589 0.583268 0.800130 0.140983
H22   H     H_    0.444747 0.564292 0.673133 0.126225
H23   H     H_    0.306471 0.279063 0.821106 0.104864
H24   H     H_    0.300677 0.231680 0.692084 0.102588
H25   H     H_    0.094623 0.244772 0.881613 0.132744
H26   H     H_    0.085034 0.156748 0.623230 0.123578
H27   H     H_    0.620460 0.217766 0.856481 0.134091
O1    O     O_R   0.766500 0.250040 0.579790 -0.519032
O2    O     O_R   0.218690 0.701900 0.425960 -0.507089
O3    O     O_R   0.249490 0.516440 0.419420 -0.523451
O4    O     O_R   0.982880 0.281910 0.424890 -0.509402
O5    O     O_3   0.999980 0.499990 0.499980 -0.233114
O6    O     O_R   0.895110 0.806860 0.920430 -0.522029
O7    O     O_R   0.872260 0.046970 0.925000 -0.501919
O8    O     O_R   0.691430 0.085060 0.918550 -0.519583
O9    O     O_R   0.451490 0.822460 0.925250 -0.494806
O10   O     O_R   0.413330 0.603360 0.920440 -0.527012
O11   O     O_R   0.676110 0.626250 0.926750 -0.507417
O12   O     O_R   0.798570 0.516780 0.574780 -0.503982
O13   O     O_R   0.895350 0.809870 0.080950 -0.531864
O14   O     O_R   0.872490 0.049760 0.073800 -0.506591
O15   O     O_R   0.691680 0.088070 0.079070 -0.512833
O16   O     O_R   0.451720 0.825250 0.074050 -0.524805
O17   O     O_R   0.413580 0.606370 0.080960 -0.518657
O18   O     O_R   0.676340 0.629040 0.075550 -0.508483
O19   O     O_3   0.666780 0.833290 0.000090 -0.268562
O20   O     O_R   0.984000 0.732950 0.581090 -0.534214
O21   O     O_R   0.218600 0.700890 0.574760 -0.523092
O22   O     O_R   0.249390 0.515350 0.579940 -0.514579
O23   O     O_R   0.982790 0.280900 0.573700 -0.505150
O24   O     O_R   0.766600 0.251130 0.419260 -0.508643
O25   O     O_R   0.798660 0.517790 0.425980 -0.502467
O26   O     O_R   0.984100 0.734040 0.420570 -0.530963
C57   C     C_R   0.561833 0.053840 0.339749 0.058263
C58   C     C_R   0.476569 0.107352 0.313203 -0.103135
C59   C     C_R   0.366466 0.100453 0.354149 -0.135916
C60   C     C_R   0.342109 0.042679 0.422349 -0.086937
C61   C     C_R   0.426007 0.989164 0.449155 -0.069191
C62   C     C_R   0.532257 0.990215 0.407269 -0.060736
H28   H     H_    0.497714 0.157951 0.261694 0.099051
H29   H     H_    0.301683 0.142285 0.333501 0.098315
H30   H     H_    0.258267 0.039369 0.454442 0.098769
H31   H     H_    0.407414 0.944989 0.502109 0.107061
H32   H     H_    0.596050 0.947847 0.428721 0.085558

loop_
_geom_bond_atom_site_label_1
_geom_bond_atom_site_label_2
_ccdc_geom_bond_type
C55   C56   A    
C50   O15   A    
Cr2   O20   S    
C41   C42   A    
C14   C18   A    
C20   H5    S    
Cr5   O9    S    
C43   C44   A    
C41   H18   S    
C12   O21   A    
C27   H9    S    
C7    C8    A    
C39   C53   S    
C60   H30   S    
C40   C46   A    
C23   O23   A    
C5    C47   S    
C52   O13   A    
C17   H4    S    
C33   C39   A    
C28   C29   A    
C5    C11   A    
C44   H20   S    
C9    H26   S    
C29   C51   S    
C38   C39   A    
Cr3   O4    S    
Cr6   O19   S    
C54   H1    S    
Cr1   O12   S    
C15   C16   A    
C15   H3    S    
C57   C58   A    
C32   C45   S    
C45   O3    A    
Cr5   O19   S    
C59   C60   A    
C1    O20   A    
C55   H12   S    
C35   C36   A    
C52   O18   A    
C44   C46   A    
C8    C9    A    
Cr3   O22   S    
C47   O7    A    
C34   C46   S    
Cr3   O5    S    
C4    C12   S    
Cr4   O14   S    
Cr5   O16   S    
Cr2   O2    S    
Cr4   O19   S    
C59   H29   S    
C50   O14   A    
C21   C22   A    
C2    H21   S    
C28   H10   S    
Cr4   O13   S    
C53   O24   A    
C24   H7    S    
C17   C18   A    
C35   H14   S    
C23   O1    A    
Cr1   O1    S    
C13   C19   A    
C53   O4    A    
Cr5   O15   S    
C24   C25   A    
C57   C62   A    
C6    C11   A    
C30   H11   S    
C61   H31   S    
C16   C17   A    
Cr1   O24   S    
Cr6   O18   S    
C38   H16   S    
C25   C26   A    
C37   H15   S    
C6    H25   S    
C19   C23   S    
C58   H28   S    
C37   C38   A    
C31   H13   S    
C31   C32   A    
C10   C19   A    
C51   O16   A    
Cr3   O23   S    
C40   H17   S    
C49   O6    A    
C5    C14   A    
C6    C7    A    
C22   C49   S    
Cr6   O11   S    
Cr4   O7    S    
C40   C41   A    
Cr1   O5    S    
C13   C15   A    
C21   H6    S    
C1    C26   S    
C43   H19   S    
C22   C24   A    
C42   C43   A    
C3    C4    A    
C1    O12   A    
C27   C28   A    
C36   C50   S    
C61   C62   A    
C9    C10   A    
C48   C56   S    
C48   O10   A    
C54   C55   A    
C36   C37   A    
C33   C57   S    
C4    C54   A    
C27   C32   A    
Cr2   O21   S    
C18   H27   S    
Cr5   O8    S    
C60   C61   A    
Cr1   O25   S    
Cr6   O17   S    
C34   O25   A    
C48   O9    A    
C47   O8    A    
C2    C3    A    
C34   O26   A    
C62   H32   S    
C2    C56   A    
C58   C59   A    
C49   O11   A    
C30   C31   A    
Cr2   O26   S    
C7    H23   S    
C20   C26   A    
C51   O17   A    
C33   C35   A    
C8    H24   S    
Cr3   O3    S    
Cr2   O5    S    
C45   O2    A    
C10   C11   A    
C29   C30   A    
Cr6   O10   S    
Cr4   O6    S    
C20   C21   A    
C3    H22   S    
C25   H8    S    
C16   H2    S    
C13   C14   A    
C12   O22   A    
C42   C52   S    
