data_mof_unit_5733.cif
_audit_creation_date              2012-12-10T17:34:52-0500
_audit_creation_method            fapswitch 2.2
_symmetry_space_group_name_H-M    P1
_symmetry_Int_Tables_number       1
_space_group_crystal_system       triclinic
_cell_length_a                    12.057047
_cell_length_b                    12.775369
_cell_length_c                    15.749801
_cell_angle_alpha                 91.073007
_cell_angle_beta                  87.008362
_cell_angle_gamma                 94.536479
_cell_volume                      2414.83686538

loop_
_atom_site_label
_atom_site_type_symbol
_atom_type_description
_atom_site_fract_x
_atom_site_fract_y
_atom_site_fract_z
_atom_type_partial_charge
C1    C     C_R   0.523098 0.700217 0.498023 0.846623
C2    C     C_R   0.540583 0.812178 0.495101 -0.103159
C3    C     C_R   0.610214 0.969502 0.567150 -0.011213
C4    C     C_R   0.500712 0.499809 0.661418 0.903026
C5    C     C_R   0.608984 0.861954 0.554465 -0.289922
C6    C     C_R   0.483571 0.868943 0.438287 -0.047313
C7    C     C_R   0.493136 0.979306 0.444933 0.031838
C8    C     C_R   0.540829 0.026726 0.518390 0.064338
C9    C     C_R   0.513057 0.127154 0.542906 0.427693
C10   C     C_R   0.435121 0.147912 0.403688 -0.173275
C11   C     C_R   0.454207 0.043440 0.382229 -0.004735
C12   C     C_3   0.417018 0.570605 0.050790 -0.221190
C13   C     C_R   0.946336 0.387832 0.430505 -0.122396
C14   C     C_R   0.832467 0.403481 0.434913 0.066289
C15   C     C_R   0.860064 0.545144 0.532374 0.003591
C16   C     C_R   0.477170 0.299830 0.497744 0.854398
C17   C     C_R   0.977113 0.538594 0.527581 0.059177
C18   C     C_R   0.021751 0.461234 0.472624 -0.036633
C19   C     C_R   0.140027 0.460764 0.462434 0.021463
C20   C     C_R   0.165054 0.588210 0.572534 -0.044838
C21   C     C_R   0.050810 0.604126 0.577212 -0.085154
C22   C     C_R   0.499545 0.501521 0.338644 0.851114
C23   C     C_3   0.502335 0.494839 0.082932 0.090371
C24   C     C_3   0.426060 0.572752 0.952124 -0.457786
C25   C     C_3   0.624348 0.525222 0.946667 -0.254156
C26   C     C_3   0.623602 0.531512 0.046455 0.665232
C27   C     C_1   0.498083 0.500018 0.250105 -0.113122
C28   C     C_3   0.505189 0.490221 0.916554 0.103969
C29   C     C_2   0.424983 0.679260 0.092611 0.568784
C30   C     C_2   0.543026 0.300435 0.081551 0.434052
C31   C     C_2   0.395118 0.218072 0.339726 0.456915
C32   C     C_2   0.690583 0.017943 0.627426 0.586730
C33   C     C_2   0.456357 0.009316 0.290975 0.538349
C34   C     C_3   0.464915 0.379379 0.051564 0.240545
C35   C     C_2   0.406118 0.811299 0.379458 0.495408
C36   C     C_2   0.192737 0.408188 0.388936 0.458786
C37   C     C_2   0.979497 0.287357 0.391615 0.528953
C38   C     C_2   0.015251 0.690050 0.634612 0.382511
C39   C     C_2   0.716542 0.465674 0.903680 0.572054
C40   C     C_2   0.499415 0.282923 0.906636 0.409913
C41   C     C_3   0.458401 0.380257 0.951712 -0.329256
C42   C     C_1   0.499013 0.497814 0.174925 0.039210
C43   C     C_1   0.503475 0.493395 0.824991 0.007181
C44   C     C_1   0.502137 0.496708 0.749953 -0.145351
C45   C     C_R   0.463743 0.188123 0.484493 -0.248576
H1    H     H_    0.341293 0.556155 0.927631 0.186432
H2    H     H_    0.407217 0.686501 0.160642 0.063206
H3    H     H_    0.620386 0.287874 0.046231 0.161624
H4    H     H_    0.485447 0.222360 0.639532 0.337854
H5    H     H_    0.435849 0.295671 0.330394 0.075144
H6    H     H_    0.714198 0.972986 0.680515 0.045326
H7    H     H_    0.395719 0.033313 0.248461 0.149620
H8    H     H_    0.429099 0.739189 0.348109 0.057734
H9    H     H_    0.256471 0.356020 0.398201 0.101355
H10   H     H_    0.050970 0.250898 0.413204 0.056040
H11   H     H_    0.061650 0.710740 0.690565 0.072497
H12   H     H_    0.331286 0.537420 0.069434 0.196519
H13   H     H_    0.760552 0.497834 0.846945 0.035152
H14   H     H_    0.729644 0.654910 0.053297 0.358852
H15   H     H_    0.714676 0.489462 0.137940 0.361110
H16   H     H_    0.468543 0.206116 0.929984 0.078448
H17   H     H_    0.332700 0.279943 0.066294 0.360235
H18   H     H_    0.657213 0.815853 0.594021 0.164414
H19   H     H_    0.456775 0.651453 0.927693 0.237449
H20   H     H_    0.221745 0.635289 0.611620 0.136397
H21   H     H_    0.773910 0.350167 0.402471 0.177994
H22   H     H_    0.820747 0.599743 0.574848 0.180034
H23   H     H_    0.643730 0.606849 0.923300 0.115649
H24   H     H_    0.368324 0.373784 0.937966 0.173419
N1    N     N_R   0.207800 0.519340 0.515510 -0.127287
N2    N     N_R   0.792190 0.480660 0.484490 -0.135957
O1    O     O_R   0.421690 0.658830 0.504140 -0.620534
O2    O     O_2   0.519684 0.250070 0.146083 -0.534308
O3    O     O_3   0.531101 0.162747 0.625108 -0.708566
O4    O     O_2   0.313937 0.190930 0.299136 -0.529143
O5    O     O_2   0.736549 0.105447 0.615444 -0.499790
O6    O     O_2   0.529141 0.955712 0.261739 -0.547609
O7    O     O_2   0.314389 0.841559 0.368616 -0.551722
O8    O     O_2   0.165725 0.424134 0.316928 -0.510470
O9    O     O_2   0.925369 0.242546 0.336375 -0.508414
O10   O     O_2   0.939659 0.743055 0.617795 -0.567519
O11   O     O_2   0.740494 0.381137 0.929175 -0.488100
O12   O     O_R   0.609320 0.646410 0.494190 -0.600708
O13   O     O_3   0.650585 0.636663 0.071880 -0.756854
O14   O     O_3   0.703172 0.468631 0.077803 -0.763670
O15   O     O_2   0.563036 0.287776 0.843738 -0.492494
O16   O     O_3   0.357173 0.351183 0.087963 -0.699211
O17   O     O_R   0.406150 0.506210 0.627840 -0.619689
O18   O     O_R   0.593770 0.493790 0.617880 -0.602986
O19   O     O_R   0.390680 0.353590 0.505810 -0.651416
O20   O     O_R   0.578310 0.341170 0.495860 -0.584336
O21   O     O_R   0.406230 0.506210 0.382120 -0.627525
O22   O     O_R   0.593850 0.493790 0.372160 -0.609139
O23   O     O_2   0.449518 0.759068 0.052081 -0.515350
Zn1   Zn    Zn3+2 0.374720 0.508290 0.506640 0.955432
Zn2   Zn    Zn3+2 0.625280 0.491710 0.493360 0.994422

loop_
_geom_bond_atom_site_label_1
_geom_bond_atom_site_label_2
_ccdc_geom_bond_type
C16   O19   A    
C12   C29   S    
C35   H8    S    
C14   N2    A    
C7    C8    A    
C33   H7    S    
C7    C11   A    
C34   C41   S    
C12   C23   S    
C23   C42   S    
C13   C18   A    
C29   H2    S    
C30   H3    S    
C18   C19   A    
C19   C36   S    
C29   O23   D    
C28   C41   S    
C6    C35   S    
C5    H18   S    
C1    C2    S    
C23   C26   S    
C40   O15   D    
O20   Zn2   S    
O1    Zn1   S    
C10   C31   S    
C21   C38   S    
C8    C9    A    
C13   C37   S    
O17   Zn1   S    
C24   H19   S    
C13   C14   A    
C20   N1    A    
C2    C6    A    
C25   H23   S    
C37   O9    D    
C1    O1    A    
C30   C34   S    
C20   H20   S    
C11   C33   S    
H14   O13   S    
C3    C8    A    
C30   O2    D    
N2    Zn2   S    
C4    C44   S    
C25   C26   S    
C39   H13   S    
O21   Zn1   S    
C17   C21   A    
C40   H16   S    
C25   C28   S    
C43   C44   T    
C32   H6    S    
C31   O4    D    
C23   C34   S    
C15   H22   S    
C10   C45   A    
C17   C18   A    
C14   H21   S    
C12   H12   S    
C40   C41   S    
C9    C45   A    
O22   Zn2   S    
C22   C27   S    
C38   O10   D    
C22   O22   A    
C2    C5    A    
C9    O3    S    
C31   H5    S    
C41   H24   S    
C4    O18   A    
C15   C17   A    
C26   O13   S    
C28   C43   S    
C24   C28   S    
C39   O11   D    
C3    C5    A    
C36   O8    D    
O19   Zn1   S    
C16   C45   S    
C32   O5    D    
H15   O14   S    
C6    C7    A    
C4    O17   A    
C1    O12   A    
C15   N2    A    
H17   O16   S    
C12   C24   S    
C35   O7    D    
C24   H1    S    
O18   Zn2   S    
N1    Zn1   S    
C25   C39   S    
C27   C42   T    
C33   O6    D    
C26   O14   S    
O12   Zn2   S    
C34   O16   S    
C3    C32   S    
C36   H9    S    
C10   C11   A    
C37   H10   S    
C38   H11   S    
C20   C21   A    
C16   O20   A    
C22   O21   A    
H4    O3    S    
C19   N1    A    
