data_mof_unit_58904.cif
_audit_creation_date              2013-03-05T16:46:30-0500
_audit_creation_method            fapswitch 2.2
_symmetry_space_group_name_H-M    P1
_symmetry_Int_Tables_number       1
_space_group_crystal_system       triclinic
_cell_length_a                    10.37616
_cell_length_b                    8.937495
_cell_length_c                    8.108611
_cell_angle_alpha                 89.991984
_cell_angle_beta                  101.844459
_cell_angle_gamma                 89.765348
_cell_volume                      735.950153017

loop_
_atom_site_label
_atom_site_type_symbol
_atom_site_description
_atom_site_fract_x
_atom_site_fract_y
_atom_site_fract_z
_atom_type_partial_charge
O1    O     O_R   0.499990 0.285340 0.636850 -0.612274
O2    O     O_R   0.500010 0.714660 0.363150 -0.593286
O3    O     O_R   0.500010 0.285340 0.363150 -0.616511
O4    O     O_R   0.499990 0.714660 0.636850 -0.601382
C1    C     C_R   0.499624 0.217972 0.499908 0.919043
C2    C     C_R   0.499876 0.782042 0.499978 1.058067
O5    O     O_R   0.317810 0.500000 0.585760 -0.627250
O6    O     O_R   0.682190 0.500000 0.414240 -0.600626
O7    O     O_R   0.317820 0.500000 0.312020 -0.614882
O8    O     O_R   0.682180 0.500000 0.687980 -0.607600
C3    C     C_R   0.255505 0.501096 0.433188 0.797886
C4    C     C_R   0.744543 0.502814 0.566812 0.922329
Zn1   Zn    Zn3+2 0.499990 0.500000 0.682780 1.028835
Zn2   Zn    Zn3+2 0.500010 0.500000 0.317220 1.037521
C5    C     C_2   0.111582 0.518295 0.403756 0.236199
C6    C     C_2   0.886407 0.526798 0.596168 0.173848
C7    C     C_2   0.064528 0.637790 0.475708 0.196171
C8    C     C_2   0.929707 0.638057 0.506963 0.204457
C9    C     C_1   0.499359 0.065232 0.499854 -0.143422
C10   C     C_1   0.499432 0.934903 0.499882 -0.043647
N1    N     N_1   0.500020 0.500000 0.073650 -0.016803
N2    N     N_1   0.499980 0.500000 0.926350 -0.017562
N3    N     N_R   0.847199 0.764600 0.448172 0.199339
O9    O     O_R   0.790886 0.837915 0.552769 -0.433033
O10   O     O_R   0.847433 0.821610 0.300654 -0.379499
N4    N     N_R   0.143485 0.769119 0.522141 0.180972
O11   O     O_R   0.128727 0.848035 0.651936 -0.378830
O12   O     O_R   0.208480 0.826063 0.416268 -0.455925
O13   O     O_3   0.968406 0.411013 0.667248 -0.622474
C11   C     C_3   0.042971 0.458246 0.823925 0.092210
H1    H     H_    0.978076 0.473357 0.916408 0.188957
H2    H     H_    0.095968 0.564752 0.812923 0.166822
C12   C     C_3   0.145593 0.339098 0.890149 -0.726350
H3    H     H_    0.207701 0.316984 0.796346 0.256969
H4    H     H_    0.209889 0.378144 0.008675 0.212811
H5    H     H_    0.096542 0.233656 0.914929 0.261874
O14   O     O_3   0.023559 0.410810 0.322492 -0.619269
C13   C     C_3   0.080591 0.266483 0.331767 0.067463
H6    H     H_    0.122687 0.234883 0.464957 0.183391
H7    H     H_    0.158572 0.260474 0.256342 0.132275
C14   C     C_3   0.974816 0.153665 0.259880 -0.577490
H8    H     H_    0.929366 0.183306 0.127621 0.232209
H9    H     H_    0.019416 0.040441 0.262002 0.260020
H10   H     H_    0.897387 0.152589 0.336328 0.278447

loop_
_geom_bond_atom_site_label_1
_geom_bond_atom_site_label_2
_geom_bond_distance
_ccdc_geom_bond_type
O5    C3    1.272862 A    
O7    Zn2   1.882230 S    
O14   C13   1.412520 S    
C1    C9    1.365123 S    
O13   C11   1.410723 S    
C14   H9    1.109671 S    
C14   H8    1.110846 S    
N4    O12   1.300451 A    
C9    C10   1.164808 T    
O6    C4    1.273310 A    
N3    O9    1.300211 A    
C12   H3    1.110454 S    
N1    N2    1.194314 T    
C11   H2    1.113941 S    
O7    C3    1.282275 A    
N4    O11   1.301559 A    
O2    C2    1.262717 A    
O3    Zn2   1.954286 S    
O8    C4    1.282884 A    
O1    C1    1.262549 A    
C7    N4    1.439455 S    
Zn2   N1    1.975036 S    
C6    C8    1.360410 D    
C13   H7    1.111057 S    
Zn1   N2    1.975035 S    
C7    C8    1.471986 S    
N3    O10   1.300571 A    
C11   H1    1.113823 S    
O2    Zn2   1.954388 S    
C14   H10   1.111006 S    
O1    Zn1   1.954389 S    
C8    N3    1.436555 S    
O5    Zn1   1.892552 S    
C12   H5    1.110568 S    
C2    C10   1.366189 S    
C13   C14   1.519097 S    
O4    C2    1.262414 A    
O4    Zn1   1.954285 S    
C5    C7    1.353589 D    
C5    O14   1.396972 S    
O6    Zn2   1.892554 S    
C11   C12   1.520524 S    
C12   H4    1.108758 S    
C6    O13   1.385025 S    
C3    C5    1.470563 S    
C4    C6    1.458819 S    
O3    C1    1.262496 A    
O8    Zn1   1.882230 S    
C13   H6    1.114531 S    
