data_mof_unit_10216.cif
_audit_creation_date              2012-12-10T17:11:03-0500
_audit_creation_method            fapswitch 2.2
_symmetry_space_group_name_H-M    P1
_symmetry_Int_Tables_number       1
_space_group_crystal_system       triclinic
_cell_length_a                    11.728287
_cell_length_b                    12.991157
_cell_length_c                    13.439128
_cell_angle_alpha                 93.189705
_cell_angle_beta                  76.936065
_cell_angle_gamma                 100.781327
_cell_volume                      1959.2435681

loop_
_atom_site_label
_atom_site_type_symbol
_atom_type_description
_atom_site_fract_x
_atom_site_fract_y
_atom_site_fract_z
_atom_type_partial_charge
C1    C     C_R   0.523028 0.701030 0.498076 0.839611
C2    C     C_R   0.448427 0.450159 0.971415 0.051397
C3    C     C_R   0.481655 0.445378 0.863689 0.086267
C4    C     C_R   0.539171 0.464609 0.028380 0.071969
C5    C     C_R   0.659942 0.466472 0.976949 0.096955
C6    C     C_R   0.687144 0.442707 0.871232 -0.024514
C7    C     C_R   0.596083 0.425438 0.818479 -0.274868
C8    C     C_R   0.513349 0.480917 0.134710 -0.226176
C9    C     C_R   0.722373 0.503292 0.138915 -0.050194
C10   C     C_R   0.398500 0.458589 0.804800 -0.142314
C11   C     C_R   0.464114 0.185334 0.499086 -0.047266
C12   C     C_R   0.436258 0.484532 0.694821 0.809536
C13   C     C_R   0.538221 0.814978 0.491551 -0.138487
C14   C     C_R   0.656882 0.986228 0.448297 -0.203293
C15   C     C_R   0.649668 0.878558 0.453253 0.172458
C16   C     C_R   0.435711 0.860224 0.519854 -0.229929
C17   C     C_R   0.440995 0.967429 0.508407 0.145739
C18   C     C_R   0.554414 0.030927 0.476089 0.102917
C19   C     C_R   0.564923 0.138908 0.471980 -0.233452
C20   C     C_R   0.351091 0.123241 0.527194 -0.247759
C21   C     C_R   0.337525 0.014168 0.530705 -0.008386
C22   C     C_R   0.955483 0.607818 0.583704 -0.169438
C23   C     C_R   0.478211 0.299082 0.498672 0.796282
C24   C     C_R   0.834833 0.597348 0.578729 0.174730
C25   C     C_R   0.852798 0.451241 0.465649 0.010204
C26   C     C_R   0.974030 0.460314 0.470338 0.019663
C27   C     C_R   0.025880 0.539515 0.529815 0.023835
C28   C     C_R   0.147088 0.548569 0.534601 0.073726
C29   C     C_R   0.164919 0.402128 0.421968 0.182627
C30   C     C_R   0.044390 0.391815 0.416655 -0.256588
C31   C     C_R   0.563852 0.503219 0.303737 0.798473
C32   C     C_R   0.749207 0.487389 0.033331 -0.117459
C33   C     C_R   0.602014 0.496600 0.191172 -0.127815
C34   C     C_R   0.278033 0.449913 0.853129 -0.207201
C35   C     C_R   0.241667 0.434301 0.957839 0.234249
C36   C     C_R   0.325581 0.438512 0.017226 -0.192285
Cu1   Cu    Cu3+1 0.386470 0.492430 0.492410 0.951272
Cu2   Cu    Cu3+1 0.613530 0.507570 0.507590 0.939408
H1    H     H_    0.272974 0.159968 0.546154 0.164064
H2    H     H_    0.742881 0.035103 0.420715 0.166107
H3    H     H_    0.352269 0.810729 0.552501 0.199678
H4    H     H_    0.186150 0.609245 0.581689 0.139816
H5    H     H_    0.994447 0.668802 0.630778 0.201833
H6    H     H_    0.005491 0.330578 0.369768 0.183390
H7    H     H_    0.813575 0.390227 0.419001 0.117824
H8    H     H_    0.841190 0.488896 0.996849 0.228529
H9    H     H_    0.423784 0.483113 0.175654 0.157765
H10   H     H_    0.211636 0.453510 0.809623 0.192148
H11   H     H_    0.291149 0.428198 0.098102 0.151814
H12   H     H_    0.616765 0.395654 0.741118 0.173005
H13   H     H_    0.652217 0.187115 0.448001 0.148231
N1    N     N_R   0.215880 0.481050 0.481000 -0.228163
N2    N     N_R   0.784100 0.518950 0.519000 -0.226403
O1    O     O_R   0.419710 0.645650 0.494620 -0.574705
O2    O     O_R   0.611450 0.658430 0.507430 -0.582794
O3    O     O_R   0.357340 0.490460 0.641450 -0.577058
O4    O     O_R   0.549080 0.503250 0.654260 -0.625219
O5    O     O_R   0.388550 0.341570 0.492570 -0.608006
O6    O     O_R   0.580290 0.354350 0.505380 -0.599460
O7    O     O_R   0.450920 0.496750 0.345740 -0.606036
O8    O     O_R   0.642660 0.509540 0.358550 -0.589158
C37   C     C_2   0.823558 0.525872 0.190366 0.457134
H14   H     H_    0.825491 0.479870 0.254487 0.078693
O9    O     O_2   0.908151 0.595125 0.158986 -0.479150
C38   C     C_2   0.213774 0.954533 0.555503 0.386819
H15   H     H_    0.144032 0.990607 0.603738 0.094453
O10   O     O_2   0.186507 0.868366 0.517681 -0.526295
I1    I     I_    0.810841 0.821634 0.393301 -0.204775
C39   C     C_2   0.231927 0.324601 0.361739 0.367219
H16   H     H_    0.326791 0.340515 0.335367 0.122874
O11   O     O_2   0.179758 0.239256 0.338743 -0.546174
C40   C     C_2   0.767367 0.673795 0.640597 0.429218
H17   H     H_    0.672263 0.659121 0.663957 0.122831
O12   O     O_2   0.819414 0.757002 0.668470 -0.535644
C41   C     C_2   0.808107 0.435152 0.810359 0.340829
H18   H     H_    0.818553 0.375255 0.751020 0.078238
O13   O     O_2   0.895243 0.499818 0.819499 -0.536919
I2    I     I_    0.059268 0.403594 0.027149 -0.340450

loop_
_geom_bond_atom_site_label_1
_geom_bond_atom_site_label_2
_ccdc_geom_bond_type
C23   O5    A    
C31   O8    A    
C35   C36   A    
C4    C8    A    
C6    C41   S    
C23   O6    A    
C11   C19   A    
C26   C27   A    
C29   C30   A    
Cu1   Cu2   S    
C25   N2    A    
C18   C19   A    
C3    C7    A    
C5    C6    A    
C34   C35   A    
C28   H4    S    
C39   O11   D    
C14   C18   A    
C37   O9    D    
C9    C32   A    
Cu1   O3    S    
Cu2   O2    S    
C16   C17   A    
C38   O10   D    
C31   C33   S    
Cu1   O5    S    
Cu2   O8    S    
C9    C33   A    
C30   H6    S    
C25   C26   A    
C29   C39   S    
C11   C20   A    
C9    C37   S    
C40   O12   D    
C20   H1    S    
C40   H17   S    
C24   N2    A    
C17   C21   A    
C31   O7    A    
C2    C4    A    
C41   H18   S    
C37   H14   S    
Cu2   O4    S    
C22   H5    S    
C17   C18   A    
C10   C34   A    
C41   O13   D    
C12   O3    A    
C10   C12   S    
C1    O1    A    
Cu1   O1    S    
C26   C30   A    
C22   C27   A    
C13   C15   A    
C22   C24   A    
C1    C13   S    
C12   O4    A    
C25   H7    S    
C24   C40   S    
C2    C36   A    
Cu1   N1    S    
C21   C38   S    
C32   H8    S    
C7    H12   S    
C4    C5    A    
C6    C7    A    
C35   I2    S    
C5    C32   A    
C2    C3    A    
C1    O2    A    
C8    H9    S    
C3    C10   A    
C28   N1    A    
Cu2   N2    S    
C15   I1    S    
C11   C23   S    
C8    C33   A    
C39   H16   S    
Cu1   O7    S    
C14   H2    S    
Cu2   O6    S    
C19   H13   S    
C34   H10   S    
C20   C21   A    
C38   H15   S    
C13   C16   A    
C27   C28   A    
C14   C15   A    
C16   H3    S    
C36   H11   S    
C29   N1    A    
