data_mof_unit_44489.cif
_audit_creation_date              2012-12-11T15:24:33-0500
_audit_creation_method            fapswitch 2.2
_symmetry_space_group_name_H-M    P1
_symmetry_Int_Tables_number       1
_space_group_crystal_system       triclinic
_cell_length_a                    22.988437
_cell_length_b                    6.956305
_cell_length_c                    20.708099
_cell_angle_alpha                 90.000038
_cell_angle_beta                  93.267407
_cell_angle_gamma                 89.999967
_cell_volume                      3306.1437226

loop_
_atom_site_label
_atom_site_type_symbol
_atom_type_description
_atom_site_fract_x
_atom_site_fract_y
_atom_site_fract_z
_atom_type_partial_charge
O1    O     O_R   0.188030 0.379840 0.189340 -0.540833
O2    O     O_R   0.811970 0.620160 0.810660 -0.540834
O3    O     O_R   0.311970 0.879840 0.310660 -0.540834
O4    O     O_R   0.688030 0.120160 0.689340 -0.540833
O5    O     O_R   0.307090 0.708420 0.185790 -0.536056
O6    O     O_R   0.692910 0.291580 0.814210 -0.536056
O7    O     O_R   0.192910 0.208420 0.314210 -0.536056
O8    O     O_R   0.807090 0.791580 0.685790 -0.536056
C1    C     C_R   0.326730 0.540765 0.170717 0.729845
C2    C     C_R   0.673270 0.459235 0.829283 0.729845
C3    C     C_R   0.173270 0.040765 0.329283 0.729846
C4    C     C_R   0.826730 0.959235 0.670717 0.729846
O9    O     O_R   0.188180 0.709480 0.181650 -0.542856
O10   O     O_R   0.811820 0.290520 0.818350 -0.542856
O11   O     O_R   0.311820 0.209480 0.318350 -0.542856
O12   O     O_R   0.688180 0.790520 0.681650 -0.542856
O13   O     O_R   0.192210 0.880960 0.306500 -0.535643
O14   O     O_R   0.807790 0.119040 0.693500 -0.535643
O15   O     O_R   0.307790 0.380960 0.193500 -0.535643
O16   O     O_R   0.692210 0.619040 0.806500 -0.535643
C5    C     C_R   0.167745 0.540594 0.165356 0.710608
C6    C     C_R   0.832254 0.459406 0.834644 0.710608
C7    C     C_R   0.332254 0.040594 0.334644 0.710608
C8    C     C_R   0.667745 0.959406 0.665356 0.710608
O17   O     O_3   0.251460 0.546730 0.290970 -0.369335
O18   O     O_3   0.748540 0.453270 0.709030 -0.369335
O19   O     O_3   0.248540 0.046730 0.209030 -0.369335
O20   O     O_3   0.751460 0.953270 0.790970 -0.369335
V1    V     V_3+5 0.249730 0.821120 0.242400 1.424567
V2    V     V_3+5 0.750270 0.178880 0.757600 1.424567
V3    V     V_3+5 0.250270 0.321120 0.257600 1.424568
V4    V     V_3+5 0.749730 0.678880 0.742400 1.424568
C9    C     C_R   0.578661 0.816994 0.607941 -0.216606
C10   C     C_R   0.421339 0.183006 0.392059 -0.216607
C11   C     C_R   0.921339 0.316994 0.892059 -0.216607
C12   C     C_R   0.078661 0.683006 0.107941 -0.216607
C13   C     C_R   0.618598 0.969872 0.615710 -0.081606
C14   C     C_R   0.381402 0.030128 0.384290 -0.081606
C15   C     C_R   0.881402 0.469872 0.884290 -0.081606
C16   C     C_R   0.118598 0.530128 0.115710 -0.081606
C17   C     C_R   0.610778 0.134528 0.576582 -0.212938
C18   C     C_R   0.389222 0.865471 0.423418 -0.212938
C19   C     C_R   0.889222 0.634529 0.923418 -0.212938
C20   C     C_R   0.110778 0.365471 0.076582 -0.212938
C21   C     C_R   0.564123 0.146474 0.529876 0.088557
C22   C     C_R   0.435877 0.853526 0.470124 0.088557
C23   C     C_R   0.935877 0.646474 0.970124 0.088557
C24   C     C_R   0.064123 0.353526 0.029876 0.088557
C25   C     C_R   0.523797 0.993838 0.523111 0.054912
C26   C     C_R   0.476203 0.006162 0.476888 0.054912
C27   C     C_R   0.976203 0.493838 0.976888 0.054912
C28   C     C_R   0.023797 0.506162 0.023112 0.054912
C29   C     C_R   0.530936 0.829025 0.562552 0.090551
C30   C     C_R   0.469064 0.170975 0.437448 0.090551
C31   C     C_R   0.969064 0.329024 0.937448 0.090552
C32   C     C_R   0.030936 0.670975 0.062552 0.090552
C33   C     C_R   0.557037 0.308447 0.489766 -0.184182
C34   C     C_R   0.442963 0.691553 0.510234 -0.184183
C35   C     C_R   0.942963 0.808447 0.010234 -0.184181
C36   C     C_R   0.057037 0.191553 0.989766 -0.184181
C37   C     C_R   0.510007 0.320422 0.443912 -0.179623
C38   C     C_R   0.489993 0.679578 0.556088 -0.179623
C39   C     C_R   0.989993 0.820422 0.056088 -0.179622
C40   C     C_R   0.010007 0.179578 0.943912 -0.179622
H1    H     H_    0.584060 0.690218 0.638154 0.123313
H2    H     H_    0.415940 0.309782 0.361845 0.123313
H3    H     H_    0.915940 0.190218 0.861845 0.123313
H4    H     H_    0.084060 0.809782 0.138155 0.123313
H5    H     H_    0.641442 0.252663 0.581974 0.130343
H6    H     H_    0.358558 0.747336 0.418026 0.130343
H7    H     H_    0.858558 0.752664 0.918026 0.130343
H8    H     H_    0.141442 0.247336 0.081974 0.130343
H9    H     H_    0.587691 0.426713 0.494134 0.137934
H10   H     H_    0.412309 0.573287 0.505866 0.137934
H11   H     H_    0.912308 0.926711 0.005867 0.137933
H12   H     H_    0.087692 0.073289 0.994133 0.137933
H13   H     H_    0.505446 0.447472 0.413771 0.137101
H14   H     H_    0.494554 0.552527 0.586229 0.137100
H15   H     H_    0.994554 0.947471 0.086230 0.137100
H16   H     H_    0.005446 0.052528 0.913769 0.137100
C41   C     C_3   0.039233 0.127622 0.521264 0.000147
C42   C     C_3   0.960767 0.872377 0.478736 0.000147
C43   C     C_3   0.460767 0.627622 0.978736 0.000148
C44   C     C_3   0.539233 0.372378 0.021264 0.000148
C45   C     C_3   0.022670 0.945430 0.558724 -0.164341
C46   C     C_3   0.977330 0.054570 0.441276 -0.164341
C47   C     C_3   0.477330 0.445429 0.941276 -0.164341
C48   C     C_3   0.522670 0.554571 0.058724 -0.164341
H17   H     H_    0.041432 0.902037 0.607127 0.134277
H18   H     H_    0.958568 0.097963 0.392873 0.134277
H19   H     H_    0.458568 0.402034 0.892872 0.134277
H20   H     H_    0.541432 0.597965 0.107127 0.134277
H21   H     H_    0.046260 0.683079 0.490814 0.141000
H22   H     H_    0.953740 0.316921 0.509186 0.141000
H23   H     H_    0.453740 0.183078 0.009186 0.140999
H24   H     H_    0.546260 0.816922 0.990814 0.140999
C49   C     C_1   0.872215 0.968815 0.625015 -0.177432
C50   C     C_1   0.127785 0.031185 0.374985 -0.177432
C51   C     C_1   0.627785 0.468815 0.874985 -0.177433
C52   C     C_1   0.372215 0.531185 0.125015 -0.177433
C53   C     C_3   0.974358 0.173590 0.504745 -0.171947
C54   C     C_3   0.025642 0.826410 0.495255 -0.171947
C55   C     C_3   0.525642 0.673590 0.995255 -0.171947
C56   C     C_3   0.474358 0.326410 0.004745 -0.171947
C57   C     C_3   0.957743 0.989468 0.541261 0.109673
C58   C     C_3   0.042257 0.010532 0.458739 0.109673
C59   C     C_3   0.542257 0.489467 0.958739 0.109673
C60   C     C_3   0.457743 0.510532 0.041261 0.109673
C61   C     C_1   0.910623 0.977762 0.587171 -0.031763
C62   C     C_1   0.089377 0.022238 0.412829 -0.031762
C63   C     C_1   0.589377 0.477762 0.912829 -0.031762
C64   C     C_1   0.410623 0.522238 0.087170 -0.031762
C65   C     C_1   0.082532 0.269582 0.544944 0.284558
N1    N     N_1   0.116690 0.381615 0.563609 -0.352226
C66   C     C_1   0.917467 0.730418 0.455056 0.284558
N2    N     N_1   0.883310 0.618385 0.436391 -0.352226
C67   C     C_1   0.417467 0.769581 0.955056 0.284558
N3    N     N_1   0.383310 0.881614 0.936390 -0.352226
C68   C     C_1   0.582533 0.230418 0.044944 0.284558
N4    N     N_1   0.616690 0.118386 0.063610 -0.352226

loop_
_geom_bond_atom_site_label_1
_geom_bond_atom_site_label_2
_ccdc_geom_bond_type
C34   C38   A    
C43   C47   S    
O1    C5    A    
C50   C62   T    
C47   H19   S    
O19   V1    S    
O13   V1    S    
O3    C7    A    
O1    V3    S    
O15   V3    S    
C10   H2    S    
C9    H1    S    
C39   H15   S    
O7    C3    A    
C21   C33   A    
C26   C30   A    
C43   C55   S    
C3    C50   S    
O9    V1    S    
C42   C66   S    
C14   C18   A    
C58   C62   S    
O4    C8    A    
C66   N2    T    
C18   H6    S    
C44   C59   S    
C43   C60   S    
O2    V4    S    
C18   C22   A    
C42   C57   S    
C33   H9    S    
O3    V1    S    
C12   C16   A    
C1    O15   A    
C48   H20   S    
H22   C53   S    
C2    O16   A    
O2    C6    A    
C20   H8    S    
O14   V2    S    
C11   H3    S    
C16   C20   A    
O11   C7    A    
O12   C8    A    
C22   C34   A    
O17   V1    S    
C40   H16   S    
C46   C58   S    
O10   V2    S    
C45   C57   S    
C24   C36   A    
O5    V1    S    
C9    C29   A    
C53   C57   S    
O7    V3    S    
C11   C31   A    
C27   C28   A    
O8    V4    S    
O20   V4    S    
C46   H18   S    
C37   H13   S    
C45   H17   S    
O18   V4    S    
C41   C53   S    
C42   C46   S    
O19   V3    S    
C36   H12   S    
C9    C13   A    
C60   C64   S    
C11   C15   A    
O5    C1    A    
C12   C32   A    
C49   C61   T    
C29   C38   A    
C21   C25   A    
O8    C4    A    
C51   C63   T    
C31   C40   A    
C8    C13   S    
C42   C54   S    
C32   C39   A    
O9    C5    A    
C33   C37   A    
C4    C49   S    
O6    V2    S    
C52   C64   T    
C1    C52   S    
C44   C56   S    
C41   C65   S    
C35   H11   S    
C56   C60   S    
C48   C55   S    
H23   C56   S    
C34   H10   S    
C17   H5    S    
C65   N1    T    
O16   V4    S    
C57   C61   S    
C41   C58   S    
C3    O13   A    
C19   H7    S    
C10   C14   A    
C59   C63   S    
O17   V3    S    
C38   H14   S    
C44   C48   S    
H21   C54   S    
O6    C2    A    
C23   C27   A    
C68   N4    T    
C12   H4    S    
O11   V3    S    
C30   C37   A    
O12   V4    S    
C7    C14   S    
C22   C26   A    
C35   C39   A    
C36   C40   A    
O10   C6    A    
O20   V2    S    
C67   N3    T    
C10   C30   A    
C43   C67   S    
C5    C16   S    
C44   C68   S    
C25   C29   A    
C6    C15   S    
C54   C58   S    
C27   C31   A    
C13   C17   A    
C2    C51   S    
O4    V2    S    
C23   C35   A    
C47   C56   S    
C48   C60   S    
C28   C32   A    
C24   C28   A    
C47   C59   S    
C15   C19   A    
C25   C26   A    
H24   C55   S    
C4    O14   A    
C17   C21   A    
C55   C59   S    
C46   C53   S    
C19   C23   A    
C41   C45   S    
C45   C54   S    
C20   C24   A    
O18   V2    S    
