data_mof_unit_32368.cif
_audit_creation_date              2013-03-05T16:44:40-0500
_audit_creation_method            fapswitch 2.2
_symmetry_space_group_name_H-M    P1
_symmetry_Int_Tables_number       1
_space_group_crystal_system       triclinic
_cell_length_a                    27.702773
_cell_length_b                    10.715763
_cell_length_c                    9.856632
_cell_angle_alpha                 89.076373
_cell_angle_beta                  89.782651
_cell_angle_gamma                 90.21721
_cell_volume                      2925.58085988

loop_
_atom_site_label
_atom_site_type_symbol
_atom_site_description
_atom_site_fract_x
_atom_site_fract_y
_atom_site_fract_z
_atom_type_partial_charge
O1    O     O_R   0.500010 0.316790 0.614690 -0.610440
O2    O     O_R   0.500000 0.316760 0.385350 -0.642675
C1    C     C_R   0.500816 0.259841 0.500664 0.935670
O3    O     O_R   0.428760 0.500040 0.614660 -0.614342
O4    O     O_R   0.428750 0.500000 0.385310 -0.593951
C2    C     C_R   0.406001 0.500066 0.500228 0.908443
Zn1   Zn    Zn3+2 0.500000 0.500020 0.653130 0.958609
Zn2   Zn    Zn3+2 0.500000 0.499980 0.346870 1.002270
O5    O     O_R   0.500000 0.683240 0.614650 -0.618000
O6    O     O_R   0.499990 0.683210 0.385310 -0.609892
O7    O     O_R   0.571250 0.500000 0.614690 -0.640462
O8    O     O_R   0.571240 0.499960 0.385340 -0.560693
C3    C     C_R   0.501642 0.739776 0.499091 0.879015
C4    C     C_R   0.594027 0.500358 0.499932 0.872985
C5    C     C_R   0.177217 0.388675 0.482228 0.511966
O9    O     O_2   0.201914 0.283813 0.454031 -0.548469
N1    N     N_R   0.201476 0.497391 0.504576 -0.359755
C6    C     C_R   0.177957 0.606247 0.529792 0.507807
C7    C     C_R   0.277558 0.517288 0.380676 -0.116581
C8    C     C_R   0.327719 0.518859 0.379673 -0.187274
C9    C     C_R   0.328012 0.480080 0.623269 -0.189229
C10   C     C_R   0.277900 0.478743 0.623974 -0.106475
C11   C     C_R   0.252792 0.497187 0.502795 0.322961
C12   C     C_R   0.101623 0.495617 0.521149 -0.057523
C13   C     C_R   0.126778 0.385969 0.489123 -0.021490
C14   C     C_R   0.101122 0.277737 0.459907 -0.164755
C15   C     C_R   0.127553 0.607612 0.537413 -0.018449
C16   C     C_R   0.353277 0.499645 0.500977 -0.043031
H1    H     H_    0.346857 0.465665 0.718122 0.160172
H2    H     H_    0.258491 0.463661 0.718445 0.137530
H3    H     H_    0.119467 0.194284 0.427063 0.192906
C17   C     C_R   0.646806 0.501933 0.501035 -0.030449
C18   C     C_R   0.973898 0.377925 0.528726 -0.036580
C19   C     C_R   0.974829 0.604640 0.576316 -0.056318
C20   C     C_R   0.949211 0.492542 0.548606 -0.042912
C21   C     C_R   0.946452 0.264738 0.526813 0.498186
C22   C     C_R   0.895954 0.270876 0.517968 -0.239082
C23   C     C_R   0.872074 0.384956 0.519139 -0.070534
C24   C     C_R   0.898235 0.495008 0.542450 -0.052529
C25   C     C_R   0.873180 0.607543 0.560805 -0.081847
C26   C     C_R   0.823055 0.609719 0.544932 0.582949
N2    N     N_R   0.798782 0.502591 0.515415 -0.334140
C27   C     C_R   0.821850 0.390780 0.505498 0.594333
C28   C     C_R   0.723584 0.509238 0.380165 0.028830
C29   C     C_R   0.673098 0.506663 0.379035 -0.307855
C30   C     C_R   0.671219 0.499596 0.625305 -0.206709
C31   C     C_R   0.721146 0.501046 0.627788 -0.145265
C32   C     C_R   0.747472 0.505462 0.506694 0.310525
O10   O     O_2   0.796158 0.285952 0.482582 -0.553382
C33   C     C_R   0.024954 0.380627 0.513672 0.065309
C34   C     C_R   0.050593 0.493876 0.533949 0.065803
C35   C     C_R   0.025809 0.606380 0.561903 0.049114
C36   C     C_R   0.051170 0.276482 0.467251 -0.154048
H4    H     H_    0.654338 0.508916 0.282793 0.197194
H5    H     H_    0.874957 0.185622 0.516388 0.198647
H6    H     H_    0.034097 0.194200 0.428770 0.189347
O11   O     O_2   0.203371 0.712437 0.547626 -0.548023
C37   C     C_R   0.102704 0.718798 0.555978 -0.165543
H7    H     H_    0.346379 0.536246 0.284539 0.205354
H8    H     H_    0.257893 0.532347 0.287122 0.141677
H9    H     H_    0.121678 0.807218 0.560956 0.197873
C38   C     C_R   0.947826 0.710003 0.620204 0.469552
C39   C     C_R   0.898113 0.713190 0.602402 -0.226129
O12   O     O_2   0.798637 0.717530 0.559246 -0.552576
C40   C     C_R   0.052772 0.718787 0.563214 -0.186736
H10   H     H_    0.651828 0.496069 0.720942 0.161113
H11   H     H_    0.878900 0.797363 0.628815 0.207233
H12   H     H_    0.739685 0.497961 0.724364 0.143076
H13   H     H_    0.036382 0.809534 0.563364 0.209115
C41   C     C_R   0.504541 0.059848 0.622317 0.120675
C42   C     C_R   0.506388 0.127922 0.500898 -0.052492
C43   C     C_R   0.516737 0.066631 0.379084 -0.235030
H14   H     H_    0.521449 0.117383 0.283979 0.161466
C44   C     C_R   0.517479 0.937441 0.377902 -0.219426
H15   H     H_    0.522080 0.890618 0.282230 0.165807
C45   C     C_R   0.508553 0.870894 0.498882 -0.078146
C46   C     C_R   0.507022 0.932980 0.621433 0.108560
C47   C     C_3   0.473780 0.916272 0.739946 -0.530242
C48   C     C_3   0.470185 0.057571 0.741127 -0.232567
H16   H     H_    0.439833 0.866610 0.713088 0.210298
H17   H     H_    0.492752 0.876823 0.830054 0.193591
H18   H     H_    0.486888 0.096428 0.833482 0.119029
C49   C     C_R   0.459459 0.467264 0.072477 0.093496
N3    N     N_R   0.499670 0.499140 0.142800 -0.183975
C50   C     C_R   0.537640 0.550723 0.071048 0.549968
C51   C     C_R   0.538045 0.546529 0.926050 -0.259955
H19   H     H_    0.569188 0.579154 0.869280 0.167124
N4    N     N_R   0.499670 0.499180 0.857150 -0.122729
C52   C     C_R   0.459132 0.469322 0.929952 0.131508
C53   C     C_3   0.432796 0.348250 0.926832 -0.552444
C54   C     C_3   0.433890 0.345210 0.081108 0.347176
H20   H     H_    0.396046 0.357628 0.883305 0.220240
H21   H     H_    0.455362 0.275775 0.881336 0.162804
H22   H     H_    0.456961 0.270616 0.127139 0.074010
O13   O     O_3   0.968379 0.809056 0.687214 -0.630044
C55   C     C_3   0.974369 0.774390 0.824724 -0.263235
H23   H     H_    0.999706 0.694595 0.836289 0.164885
H24   H     H_    0.939081 0.751528 0.873759 0.170210
H25   H     H_    0.990186 0.854584 0.878991 0.202367
C56   C     C_2   0.419181 0.101428 0.714758 0.443796
H26   H     H_    0.392510 0.091373 0.795099 0.060641
O14   O     O_2   0.407168 0.147375 0.605944 -0.576881
O15   O     O_3   0.576551 0.597819 0.141696 -0.585128
C57   C     C_3   0.587890 0.720038 0.096112 -0.347094
H27   H     H_    0.608959 0.766743 0.176359 0.202799
H28   H     H_    0.555103 0.777641 0.077027 0.142668
H29   H     H_    0.611002 0.717614 0.003902 0.164959
O16   O     O_3   0.387618 0.359567 0.139005 -0.590653
C58   C     C_3   0.368679 0.241178 0.174135 -0.256794
H30   H     H_    0.389931 0.197107 0.257536 0.187527
H31   H     H_    0.367365 0.179093 0.084704 0.145924
H32   H     H_    0.331189 0.253051 0.211592 0.210228
C59   C     C_2   0.749460 0.516491 0.248038 0.432533
H33   H     H_    0.729135 0.511892 0.154222 0.055588
O17   O     O_2   0.793217 0.529042 0.241209 -0.561588
O18   O     O_3   0.968409 0.151343 0.558398 -0.602742
C60   C     C_3   0.952958 0.055372 0.471511 -0.282383
H34   H     H_    0.946689 0.089176 0.365506 0.139430
H35   H     H_    0.920156 0.008716 0.513338 0.200978
H36   H     H_    0.981725 0.983866 0.467002 0.201846

loop_
_geom_bond_atom_site_label_1
_geom_bond_atom_site_label_2
_geom_bond_distance
_ccdc_geom_bond_type
C60   H34   1.114789 S    
C17   C29   1.403653 A    
C1    C42   1.422554 S    
O13   C55   1.410159 S    
C12   C15   1.408012 A    
C57   H28   1.114970 S    
C46   C47   1.492822 S    
O18   C60   1.414959 S    
Zn1   O7    2.008448 S    
N1    C11   1.421650 S    
C25   C39   1.392126 A    
C44   C45   1.400223 A    
C49   N3    1.359653 A    
C21   C22   1.403684 A    
C30   H10   1.083268 S    
C60   H35   1.110288 S    
C23   C24   1.404377 A    
O7    C4    1.293072 A    
C51   N4    1.364305 A    
C5    C13   1.398859 A    
C5    O9    1.349979 S    
C55   H25   1.109188 S    
C19   C38   1.428693 A    
C18   C21   1.429475 A    
O16   C58   1.408538 S    
C5    N1    1.364114 A    
C19   C20   1.423639 A    
C26   N2    1.364186 A    
O5    C3    1.282037 A    
C6    O11   1.350079 S    
N3    C50   1.374597 A    
C2    C16   1.460587 S    
Zn1   N4    2.010811 S    
C55   H24   1.113589 S    
C41   C42   1.392168 A    
C50   O15   1.383626 S    
C37   H9    1.083669 S    
C14   H3    1.083655 S    
O1    Zn1   2.005662 S    
C9    C10   1.388240 A    
C41   C46   1.361653 A    
O3    Zn1   2.011055 S    
C57   H27   1.109440 S    
C33   C34   1.421092 A    
C49   C52   1.404694 A    
C39   H11   1.083877 S    
C33   C36   1.415051 A    
C44   H15   1.082613 S    
C34   C35   1.419952 A    
C48   C56   1.512849 S    
C12   C13   1.407940 A    
C43   C44   1.384840 A    
C58   H32   1.109398 S    
C24   C25   1.407527 A    
C47   C48   1.518013 S    
C27   O10   1.350109 S    
C8    C16   1.404584 A    
C18   C33   1.421727 A    
C50   C51   1.430628 A    
C9    H1    1.081751 S    
O6    C3    1.284276 A    
O1    C1    1.287679 A    
C20   C24   1.414013 A    
C22   C23   1.392376 A    
O4    Zn2   2.008451 S    
C37   C40   1.384807 A    
C53   H20   1.110576 S    
C31   C32   1.396456 A    
C3    C45   1.417260 S    
Zn2   O8    2.011055 S    
C55   H23   1.113023 S    
C38   C39   1.389468 A    
C56   O14   1.220831 D    
N1    C6    1.364113 A    
N2    C32   1.424754 S    
C45   C46   1.388990 A    
C8    H7    1.082224 S    
O3    C2    1.294256 A    
C25   C26   1.398216 A    
C9    C16   1.403976 A    
O8    C4    1.296070 A    
C28   C59   1.484984 S    
C60   H36   1.108889 S    
N2    C27   1.364777 A    
C21   O18   1.392218 S    
C14   C36   1.385424 A    
C31   H12   1.083437 S    
C28   C29   1.398871 A    
C51   H19   1.080465 S    
C53   H21   1.099009 S    
C59   H33   1.086181 S    
C36   H6    1.074239 S    
Zn1   O5    1.993629 S    
C30   C31   1.383439 A    
C10   H2    1.083054 S    
C41   C48   1.506083 S    
Zn2   N3    2.011663 S    
C17   C30   1.401358 A    
C54   O16   1.411152 S    
O2    Zn2   1.993630 S    
C6    C15   1.398223 A    
C4    C17   1.462236 S    
C43   H14   1.083353 S    
C15   C37   1.392545 A    
C29   H4    1.083353 S    
C48   H18   1.109091 S    
C7    H8    1.082964 S    
C49   C54   1.486097 S    
C19   C35   1.418915 A    
C7    C8    1.389624 A    
C58   H31   1.113522 S    
O2    C1    1.281543 A    
C13   C14   1.392571 A    
C42   C43   1.406915 A    
C58   H30   1.112956 S    
C54   H22   1.116978 S    
C47   H17   1.112152 S    
C53   C54   1.520883 S    
O4    C2    1.294137 A    
C12   C34   1.418840 A    
C40   H13   1.074788 S    
C56   H26   1.084821 S    
C18   C20   1.423986 A    
C47   H16   1.113701 S    
C22   H5    1.081527 S    
C7    C11   1.396499 A    
C23   C27   1.399872 A    
N4    C52   1.364626 A    
Zn2   O6    2.005661 S    
O15   C57   1.411601 S    
C10   C11   1.396147 A    
C26   O12   1.350032 S    
C52   C53   1.486844 S    
C38   O13   1.381283 S    
C57   H29   1.110475 S    
C35   C40   1.415183 A    
C28   C32   1.414132 A    
C59   O17   1.220597 D    
