data_mof_unit_12758.cif
_audit_creation_date              2012-12-10T19:08:06-0500
_audit_creation_method            fapswitch 2.2
_symmetry_space_group_name_H-M    P1
_symmetry_Int_Tables_number       1
_space_group_crystal_system       triclinic
_cell_length_a                    9.068029
_cell_length_b                    10.844927
_cell_length_c                    9.556846
_cell_angle_alpha                 90.528802
_cell_angle_beta                  89.862636
_cell_angle_gamma                 90.333929
_cell_volume                      939.781854444

loop_
_atom_site_label
_atom_site_type_symbol
_atom_type_description
_atom_site_fract_x
_atom_site_fract_y
_atom_site_fract_z
_atom_type_partial_charge
C1    C     C_R   0.505574 0.262588 0.498878 0.789523
C2    C     C_R   0.559366 0.932143 0.383111 -0.247585
C3    C     C_R   0.498420 0.870593 0.498091 -0.129197
C4    C     C_R   0.428341 0.938920 0.602423 0.119206
C5    C     C_3   0.444519 0.936376 0.757771 -0.470349
C6    C     C_3   0.444606 0.076160 0.754989 -0.455128
C7    C     C_R   0.625402 0.530340 0.073342 0.206968
C8    C     C_R   0.382138 0.457043 0.074112 -0.089869
C9    C     C_R   0.382231 0.456885 0.925502 -0.082184
C10   C     C_R   0.624487 0.530277 0.926033 0.228058
C11   C     C_3   0.707077 0.648316 0.917485 -0.537420
C12   C     C_R   0.220714 0.499814 0.500082 0.850737
C13   C     C_3   0.709361 0.650578 0.077201 -0.096421
C14   C     C_R   0.500137 0.737471 0.500355 0.802640
C15   C     C_R   0.779262 0.499478 0.499961 0.833342
C16   C     C_1   0.065554 0.499499 0.500187 -0.207061
C17   C     C_1   0.934406 0.499325 0.500025 -0.203093
C18   C     C_R   0.430489 0.065805 0.599619 0.088626
C19   C     C_R   0.505786 0.129079 0.494450 -0.136490
C20   C     C_R   0.567967 0.060955 0.380859 0.141410
Cu1   Cu    Cu3+1 0.499990 0.499980 0.640670 0.934675
Cu2   Cu    Cu3+1 0.500010 0.500020 0.359330 0.930578
H1    H     H_    0.639251 0.722527 0.872735 0.195090
H2    H     H_    0.641695 0.726749 0.121565 0.182485
H3    H     H_    0.609105 0.879946 0.298512 0.158815
H4    H     H_    0.346139 0.896481 0.810604 0.198621
H5    H     H_    0.552330 0.899153 0.790922 0.195272
H6    H     H_    0.345059 0.117319 0.804405 0.195857
H7    H     H_    0.551296 0.117941 0.788429 0.206174
H8    H     H_    0.285805 0.423564 0.129012 0.142136
H9    H     H_    0.285958 0.423310 0.870305 0.141653
H10   H     H_    0.815292 0.635414 0.864704 0.193331
N1    N     N_R   0.500920 0.500930 0.147930 -0.189235
N2    N     N_R   0.500930 0.500890 0.852020 -0.178870
O1    O     O_R   0.500000 0.319640 0.618810 -0.579771
O2    O     O_R   0.500020 0.319680 0.381230 -0.577691
O3    O     O_R   0.288380 0.499980 0.618770 -0.583990
O4    O     O_R   0.288400 0.500020 0.381190 -0.584404
O5    O     O_R   0.499980 0.680320 0.618770 -0.576803
O6    O     O_R   0.500000 0.680360 0.381190 -0.585094
O7    O     O_R   0.711600 0.499980 0.618810 -0.577668
O8    O     O_R   0.711620 0.500020 0.381230 -0.584236
C21   C     C_3   0.657213 0.118490 0.263561 -0.377239
C22   C     C_3   0.564302 0.132708 0.131659 -0.791239
H11   H     H_    0.464503 0.188446 0.153642 0.265261
H12   H     H_    0.630433 0.179716 0.049809 0.226064
H13   H     H_    0.529686 0.040715 0.091023 0.241024
H14   H     H_    0.706530 0.208294 0.295038 0.208309
H15   H     H_    0.753201 0.058914 0.238030 0.179168
C23   C     C_3   0.866834 0.640849 0.138755 -0.323175
C24   C     C_3   0.893974 0.738820 0.251671 -0.839402
H16   H     H_    0.884151 0.832411 0.206478 0.236303
H17   H     H_    0.813320 0.729119 0.338352 0.254252
H18   H     H_    0.006830 0.728461 0.294711 0.243947
H19   H     H_    0.885968 0.548099 0.183230 0.217403
H20   H     H_    0.952465 0.654096 0.056817 0.196684

loop_
_geom_bond_atom_site_label_1
_geom_bond_atom_site_label_2
_ccdc_geom_bond_type
C7    C10   A    
C21   C22   S    
Cu1   O1    S    
C11   C13   S    
C21   H14   S    
C15   O8    A    
C19   C20   A    
Cu1   O5    S    
C22   H13   S    
C24   H18   S    
C4    C18   A    
C6    H7    S    
C2    C3    A    
C8    H8    S    
C24   H16   S    
C10   N2    A    
Cu1   Cu2   S    
C7    N1    A    
C1    O1    A    
Cu2   O8    S    
C3    C14   S    
Cu1   O7    S    
C13   H2    S    
C11   H1    S    
C13   C23   S    
C22   H12   S    
C11   H10   S    
C23   C24   S    
C2    H3    S    
C8    N1    A    
C12   O4    A    
C5    C6    S    
C6    C18   S    
C21   H15   S    
C1    C19   S    
C16   C17   T    
C10   C11   S    
C9    H9    S    
C14   O6    A    
C5    H4    S    
Cu2   O4    S    
C12   C16   S    
C7    C13   S    
C20   C21   S    
Cu2   O2    S    
C22   H11   S    
C15   O7    A    
Cu1   O3    S    
C23   H20   S    
C18   C19   A    
C12   O3    A    
C15   C17   S    
Cu2   N1    S    
Cu2   O6    S    
C4    C5    S    
Cu1   N2    S    
C14   O5    A    
C5    H5    S    
C2    C20   A    
C6    H6    S    
C3    C4    A    
C23   H19   S    
C1    O2    A    
C9    N2    A    
C8    C9    A    
C24   H17   S    
