data_mof_unit_30418.cif
_audit_creation_date              2012-10-26T18:44:11-0400
_audit_creation_method            fapswitch 2.2
_symmetry_space_group_name_H-M    P1
_symmetry_Int_Tables_number       1
_space_group_crystal_system       triclinic
_cell_length_a                    19.331877
_cell_length_b                    9.094215
_cell_length_c                    7.79009
_cell_angle_alpha                 90.03863
_cell_angle_beta                  90.000221
_cell_angle_gamma                 89.999934
_cell_volume                      1369.56174616

loop_
_atom_site_label
_atom_site_type_symbol
_atom_type_description
_atom_site_fract_x
_atom_site_fract_y
_atom_site_fract_z
_atom_type_partial_charge
C1    C     C_R   0.500000 0.220034 0.499968 0.537723
C2    C     C_R   0.254747 0.613204 0.414210 0.268948
C3    C     C_R   0.182452 0.386925 0.586072 0.285987
C4    C     C_R   0.817547 0.613073 0.413926 0.285985
C5    C     C_R   0.817548 0.386930 0.586079 0.285986
C6    C     C_R   0.182452 0.613074 0.413928 0.285986
C7    C     C_R   0.145759 0.500000 0.500001 -0.074432
C8    C     C_R   0.854241 0.500002 0.500003 -0.074431
C9    C     C_R   0.291430 0.500000 0.499999 -0.090470
C10   C     C_R   0.708570 0.500001 0.500001 -0.090469
C11   C     C_R   0.930143 0.500002 0.500003 0.287867
C12   C     C_R   0.500000 0.779966 0.500032 0.537723
C13   C     C_R   0.069857 0.500000 0.500001 0.287867
C14   C     C_R   0.367310 0.500000 0.500000 0.503632
C15   C     C_R   0.632690 0.500000 0.500000 0.503633
C16   C     C_1   0.500000 0.065374 0.499957 -0.012907
C17   C     C_1   0.500000 0.934626 0.500043 -0.012906
C18   C     C_R   0.254748 0.386796 0.585788 0.268947
C19   C     C_R   0.745252 0.613203 0.414209 0.268948
C20   C     C_R   0.745253 0.386800 0.585795 0.268945
Cu1   Cu    Cu3+1 0.500000 0.500000 0.669080 1.083117
Cu2   Cu    Cu3+1 0.500000 0.500000 0.330920 1.083114
H1    H     H_    0.335356 0.260729 0.626027 0.327855
H2    H     H_    0.664644 0.739270 0.373967 0.327856
H3    H     H_    0.664646 0.260732 0.626034 0.327855
H4    H     H_    0.335356 0.739267 0.373960 0.327857
H5    H     H_    0.101354 0.263141 0.630670 0.344734
H6    H     H_    0.898645 0.736859 0.369331 0.344734
H7    H     H_    0.898646 0.263143 0.630671 0.344733
H8    H     H_    0.101354 0.736862 0.369340 0.344734
N1    N     N_1   0.500000 0.500000 0.076820 -0.055188
N2    N     N_1   0.500000 0.500000 0.923180 -0.055187
N3    N     N_R   0.034404 0.490267 0.350161 -0.172855
N4    N     N_R   0.965596 0.509735 0.649843 -0.172855
N5    N     N_R   0.965595 0.490268 0.350162 -0.172858
N6    N     N_R   0.034405 0.509735 0.649842 -0.172860
O1    O     O_R   0.500000 0.288390 0.642760 -0.501788
O2    O     O_3   0.712813 0.729658 0.332932 -0.587604
O3    O     O_3   0.712814 0.270343 0.667071 -0.587603
O4    O     O_3   0.287185 0.729664 0.332938 -0.587604
O5    O     O_3   0.150065 0.270767 0.668080 -0.572778
O6    O     O_3   0.849934 0.729229 0.331914 -0.572779
O7    O     O_3   0.849936 0.270776 0.668093 -0.572779
O8    O     O_3   0.150064 0.729231 0.331920 -0.572777
O9    O     O_R   0.500000 0.711610 0.357240 -0.501790
O10   O     O_R   0.500000 0.711610 0.642760 -0.489481
O11   O     O_R   0.500000 0.288390 0.357240 -0.489481
O12   O     O_R   0.400140 0.500000 0.642830 -0.488318
O13   O     O_R   0.599860 0.500000 0.357170 -0.488318
O14   O     O_R   0.599860 0.500000 0.642830 -0.488319
O15   O     O_R   0.400140 0.500000 0.357170 -0.488324
O16   O     O_3   0.287187 0.270337 0.667060 -0.587601

loop_
_geom_bond_atom_site_label_1
_geom_bond_atom_site_label_2
_ccdc_geom_bond_type
C12   C17   S    
C5    C8    A    
H2    O2    S    
C9    C14   S    
C13   N3    A    
C6    C7    A    
C19   O2    S    
H5    O5    S    
N4    N6    A    
N1    N2    T    
C1    O1    A    
C10   C19   A    
C4    C8    A    
Cu1   O12   S    
H8    O8    S    
C11   N5    A    
Cu2   O11   S    
C5    O7    S    
C18   O16   S    
C1    C16   S    
C6    O8    S    
Cu1   Cu2   S    
H7    O7    S    
C2    C9    A    
H4    O4    S    
H1    O16   S    
C2    C6    A    
H3    O3    S    
C4    O6    S    
C13   N6    A    
C8    C11   S    
H6    O6    S    
Cu1   O14   S    
N3    N5    A    
C3    C7    A    
C10   C15   S    
C15   O13   A    
C1    O11   A    
Cu1   N2    S    
Cu2   O15   S    
Cu2   N1    S    
C2    O4    S    
C9    C18   A    
C7    C13   S    
Cu2   O9    S    
Cu1   O1    S    
C3    C18   A    
C12   O10   A    
Cu1   O10   S    
C15   O14   A    
Cu2   O13   S    
C5    C20   A    
C20   O3    S    
C16   C17   T    
C14   O12   A    
C4    C19   A    
C11   N4    A    
C3    O5    S    
C14   O15   A    
C10   C20   A    
C12   O9    A    
