data_mof_unit_18229.cif
_audit_creation_date              2012-12-10T17:55:03-0500
_audit_creation_method            fapswitch 2.2
_symmetry_space_group_name_H-M    P1
_symmetry_Int_Tables_number       1
_space_group_crystal_system       triclinic
_cell_length_a                    8.70934
_cell_length_b                    10.756983
_cell_length_c                    9.580012
_cell_angle_alpha                 89.59247
_cell_angle_beta                  97.46244
_cell_angle_gamma                 91.402147
_cell_volume                      889.639900627

loop_
_atom_site_label
_atom_site_type_symbol
_atom_type_description
_atom_site_fract_x
_atom_site_fract_y
_atom_site_fract_z
_atom_type_partial_charge
C1    C     C_R   0.494190 0.262526 0.499544 0.781506
C2    C     C_R   0.505215 0.737448 0.500298 0.782200
C3    C     C_R   0.204152 0.500714 0.464146 0.867598
C4    C     C_R   0.795924 0.501415 0.535869 0.861721
C5    C     C_2   0.038505 0.500495 0.444436 -0.324900
C6    C     C_2   0.961675 0.505082 0.555638 -0.331034
C7    C     C_R   0.371264 0.058454 0.423703 0.087366
C8    C     C_R   0.629574 0.941423 0.575900 0.087871
C9    C     C_R   0.381529 0.929566 0.423789 -0.192969
C10   C     C_R   0.619974 0.070472 0.574492 -0.198628
C11   C     C_R   0.507739 0.871415 0.499742 -0.053046
C12   C     C_R   0.492892 0.128543 0.499821 -0.044860
C13   C     C_R   0.418613 0.411564 0.066758 -0.072013
C14   C     C_R   0.581662 0.588085 0.933197 -0.085818
C15   C     C_R   0.417454 0.411187 0.918702 0.114157
C16   C     C_R   0.582093 0.589108 0.081129 0.110148
Cu1   Cu    Cu3+1 0.500000 0.500020 0.640660 0.974156
Cu2   Cu    Cu3+1 0.500000 0.499980 0.359340 0.975726
H1    H     H_    0.979526 0.494346 0.337516 0.206623
H2    H     H_    0.020632 0.511725 0.662548 0.208803
H3    H     H_    0.288311 0.873454 0.367926 0.147996
H4    H     H_    0.713624 0.126548 0.629598 0.145999
H5    H     H_    0.353032 0.341283 0.116597 0.129552
H6    H     H_    0.647509 0.657567 0.883003 0.141682
N1    N     N_R   0.500040 0.500030 0.852080 -0.207092
N2    N     N_R   0.499960 0.499970 0.147920 -0.207539
O1    O     O_R   0.499990 0.319660 0.618740 -0.565007
O2    O     O_R   0.500010 0.680340 0.381260 -0.563406
O3    O     O_R   0.499990 0.319630 0.381170 -0.593376
O4    O     O_R   0.500010 0.680370 0.618830 -0.589004
O5    O     O_R   0.274840 0.500010 0.591370 -0.553059
O6    O     O_R   0.725160 0.499990 0.408630 -0.546418
O7    O     O_R   0.274830 0.499980 0.353800 -0.589664
O8    O     O_R   0.725170 0.500020 0.646200 -0.591498
C17   C     C_3   0.226166 0.116372 0.348838 -0.423945
C18   C     C_3   0.115897 0.151206 0.454024 -0.358991
C19   C     C_3   0.957800 0.187027 0.378532 -0.799286
H7    H     H_    0.970808 0.261444 0.299749 0.254731
H8    H     H_    0.898217 0.104850 0.324350 0.249666
H9    H     H_    0.885034 0.221560 0.456255 0.241145
H10   H     H_    0.099449 0.071256 0.525264 0.219604
H11   H     H_    0.166559 0.230620 0.519158 0.243349
H12   H     H_    0.255741 0.199395 0.287594 0.205361
H13   H     H_    0.165254 0.049590 0.271086 0.210918
C20   C     C_3   0.773927 0.883449 0.652611 -0.418085
C21   C     C_3   0.786988 0.905371 0.811942 -0.324171
C22   C     C_3   0.925979 0.839259 0.890100 -0.819411
H14   H     H_    0.915775 0.737525 0.870757 0.251260
H15   H     H_    0.034999 0.875812 0.854748 0.256736
H16   H     H_    0.931243 0.855635 0.004964 0.257063
H17   H     H_    0.800836 0.006439 0.834789 0.230733
H18   H     H_    0.679548 0.871260 0.852125 0.244562
H19   H     H_    0.776452 0.782169 0.632272 0.198459
H20   H     H_    0.877081 0.925643 0.611591 0.195089
C23   C     C_2   0.326112 0.311441 0.840872 0.851728
O9    O     O_2   0.196118 0.331633 0.782199 -0.630131
O10   O     O_R   0.384281 0.191373 0.843673 -0.762805
H21   H     H_    0.310413 0.129993 0.788121 0.322727
C24   C     C_2   0.670113 0.691084 0.158107 0.854162
O11   O     O_2   0.796856 0.672358 0.224429 -0.620067
O12   O     O_R   0.612420 0.811342 0.146518 -0.770011
H22   H     H_    0.683954 0.874439 0.201832 0.325839

loop_
_geom_bond_atom_site_label_1
_geom_bond_atom_site_label_2
_ccdc_geom_bond_type
C23   O9    D    
C19   H7    S    
Cu1   O4    S    
C19   H9    S    
C6    H2    S    
C18   H11   S    
C17   C18   S    
Cu2   N2    S    
C13   C15   A    
C2    O4    A    
Cu1   N1    S    
C17   H12   S    
O12   H22   S    
C1    O3    A    
Cu1   Cu2   S    
O10   H21   S    
C20   H19   S    
C24   O11   D    
C19   H8    S    
Cu2   O3    S    
C20   C21   S    
C10   H4    S    
C3    O5    A    
C17   H13   S    
C9    C11   A    
C9    H3    S    
C18   H10   S    
C4    O6    A    
C1    C12   S    
C10   C12   A    
C8    C11   A    
C5    H1    S    
C2    C11   S    
C4    C6    S    
C18   C19   S    
C20   H20   S    
C22   H16   S    
C4    O8    A    
C23   O10   S    
C14   N1    A    
C16   N2    A    
C5    C6    D    
Cu1   O5    S    
Cu2   O7    S    
C14   C16   A    
C13   N2    A    
C15   N1    A    
C1    O1    A    
Cu2   O6    S    
Cu1   O8    S    
C3    O7    A    
Cu1   O1    S    
C21   H18   S    
Cu2   O2    S    
C13   H5    S    
C22   H15   S    
C24   O12   S    
C14   H6    S    
C7    C9    A    
C21   C22   S    
C2    O2    A    
C7    C12   A    
C8    C20   S    
C7    C17   S    
C21   H17   S    
C8    C10   A    
C22   H14   S    
C3    C5    S    
C16   C24   S    
C15   C23   S    
