data_mof_unit_35164.cif
_audit_creation_date              2012-12-11T14:41:11-0500
_audit_creation_method            fapswitch 2.2
_symmetry_space_group_name_H-M    P1
_symmetry_Int_Tables_number       1
_space_group_crystal_system       triclinic
_cell_length_a                    24.549232
_cell_length_b                    17.373728
_cell_length_c                    15.563093
_cell_angle_alpha                 89.908423
_cell_angle_beta                  129.51023
_cell_angle_gamma                 89.744749
_cell_volume                      5121.03195806

loop_
_atom_site_label
_atom_site_type_symbol
_atom_type_description
_atom_site_fract_x
_atom_site_fract_y
_atom_site_fract_z
_atom_type_partial_charge
C1    C     C_R   0.348774 0.360491 0.236035 -0.046321
C2    C     C_R   0.651462 0.676095 0.500844 -0.072620
C3    C     C_2   0.760342 0.103004 0.158789 0.938296
C4    C     C_1   0.591020 0.418460 0.297606 -0.031783
C5    C     C_1   0.581948 0.633506 0.300455 -0.035696
C6    C     C_1   0.091021 0.918450 0.297606 -0.031799
C7    C     C_1   0.081937 0.133517 0.300448 -0.035704
C8    C     C_R   0.186535 0.888024 0.501228 -0.059178
C9    C     C_R   0.151476 0.176084 0.500852 -0.072620
C10   C     C_R   0.317751 0.390856 0.504963 -0.043540
C11   C     C_R   0.362853 0.684779 0.506189 -0.029917
C12   C     C_R   0.817753 0.890843 0.504956 -0.043505
C13   C     C_R   0.862855 0.184781 0.506189 -0.029927
C14   C     C_3   0.283748 0.342502 0.617007 -0.404442
C15   C     C_3   0.358786 0.777427 0.625690 -0.401366
C16   C     C_3   0.783700 0.842545 0.616954 -0.404541
C17   C     C_R   0.332766 0.608341 0.197371 -0.041877
C18   C     C_3   0.858796 0.277447 0.625684 -0.401361
C19   C     C_3   0.740929 0.779044 0.618339 -0.399338
C20   C     C_3   0.809955 0.334220 0.623395 -0.397624
C21   C     C_3   0.240964 0.279006 0.618371 -0.399313
C22   C     C_3   0.309944 0.834193 0.623404 -0.397643
C23   C     C_3   0.192911 0.355794 0.408862 -0.415606
C24   C     C_3   0.252463 0.701872 0.470918 -0.390282
C25   C     C_3   0.692911 0.855757 0.408803 -0.415674
C26   C     C_3   0.752472 0.201872 0.470943 -0.390277
C27   C     C_3   0.291085 0.256517 0.493546 -0.382731
C28   C     C_R   0.848774 0.860490 0.236038 -0.046359
C29   C     C_3   0.300191 0.810740 0.427075 -0.403753
C30   C     C_3   0.791110 0.756505 0.493628 -0.382842
C31   C     C_3   0.800181 0.310735 0.427053 -0.403768
C32   C     C_3   0.271906 0.338556 0.506365 0.401206
C33   C     C_3   0.320159 0.743230 0.507827 0.393196
C34   C     C_3   0.771902 0.838551 0.506355 0.401236
C35   C     C_3   0.820162 0.243234 0.507827 0.393189
C36   C     C_3   0.694230 0.736825 0.504266 0.404138
C37   C     C_3   0.737083 0.339106 0.504177 0.396566
C38   C     C_3   0.194244 0.236816 0.504277 0.404068
C39   C     C_R   0.832766 0.108342 0.197371 -0.041865
C40   C     C_3   0.237081 0.839102 0.504179 0.396573
C41   C     C_3   0.646813 0.799152 0.412978 -0.391624
C42   C     C_3   0.704169 0.257823 0.469391 -0.399494
C43   C     C_3   0.146821 0.299160 0.413022 -0.391547
C44   C     C_3   0.204156 0.757826 0.469353 -0.399502
C45   C     C_R   0.650446 0.360276 0.754752 -0.110443
C46   C     C_R   0.668466 0.605193 0.800492 -0.114684
C47   C     C_R   0.150447 0.860276 0.754753 -0.110443
C48   C     C_R   0.168466 0.105192 0.800492 -0.114685
C49   C     C_3   0.743132 0.697389 0.486762 -0.410179
C50   C     C_R   0.617853 0.316315 0.784790 0.124743
C51   C     C_3   0.750303 0.367229 0.423922 -0.393654
C52   C     C_3   0.243127 0.197390 0.486727 -0.410132
C53   C     C_3   0.250323 0.867241 0.423959 -0.393680
C54   C     C_2   0.643166 0.240905 0.841139 -0.166700
C55   C     C_2   0.699417 0.648968 0.981872 -0.190505
C56   C     C_2   0.143166 0.740906 0.841140 -0.166704
C57   C     C_2   0.199417 0.148968 0.981872 -0.190507
C58   C     C_2   0.696106 0.203809 0.853908 -0.145298
C59   C     C_2   0.769235 0.649944 0.037145 -0.125908
C60   C     C_2   0.196107 0.703809 0.853908 -0.145297
C61   C     C_R   0.650154 0.623743 0.865351 0.137455
C62   C     C_2   0.269235 0.149944 0.037143 -0.125897
C63   C     C_2   0.308696 0.661425 0.020922 -0.192469
C64   C     C_2   0.354942 0.250552 0.133094 -0.214564
C65   C     C_2   0.808696 0.161422 0.020921 -0.192463
C66   C     C_2   0.854941 0.750552 0.133096 -0.214585
C67   C     C_2   0.239352 0.648036 0.944367 -0.054550
C68   C     C_2   0.314386 0.199571 0.133321 -0.114576
C69   C     C_2   0.739352 0.148035 0.944365 -0.054541
C70   C     C_2   0.814387 0.699570 0.133324 -0.114546
C71   C     C_R   0.616973 0.401693 0.408581 0.069234
C72   C     C_R   0.117854 0.816315 0.784792 0.124741
C73   C     C_R   0.598484 0.634406 0.407372 0.089732
C74   C     C_R   0.116973 0.901690 0.408583 0.069243
C75   C     C_R   0.098490 0.134403 0.407377 0.089740
C76   C     C_R   0.387095 0.402051 0.594784 -0.151517
C77   C     C_R   0.413843 0.640495 0.596419 -0.133006
C78   C     C_R   0.887095 0.902042 0.594781 -0.151505
C79   C     C_R   0.913844 0.140496 0.596419 -0.133007
C80   C     C_R   0.690765 0.401782 0.592498 -0.181921
C81   C     C_R   0.669517 0.637162 0.593625 -0.163410
C82   C     C_R   0.190764 0.901780 0.592499 -0.181924
C83   C     C_R   0.150154 0.123743 0.865351 0.137463
C84   C     C_R   0.169524 0.137154 0.593629 -0.163406
C85   C     C_R   0.311085 0.404801 0.411480 -0.079810
C86   C     C_R   0.339231 0.644522 0.411431 -0.119550
C87   C     C_R   0.811087 0.904789 0.411475 -0.079859
C88   C     C_R   0.839231 0.144523 0.411431 -0.119530
C89   C     C_R   0.559160 0.358033 0.755212 -0.142836
C90   C     C_R   0.579314 0.605116 0.804449 -0.153563
C91   C     C_R   0.059161 0.858034 0.755213 -0.142832
C92   C     C_R   0.079314 0.105116 0.804449 -0.153564
C93   C     C_R   0.441790 0.358860 0.239687 -0.138810
C94   C     C_R   0.686536 0.388029 0.501226 -0.059175
C95   C     C_R   0.423068 0.609561 0.196834 -0.151842
C96   C     C_R   0.941791 0.858858 0.239691 -0.138806
C97   C     C_R   0.923067 0.109558 0.196832 -0.151839
C98   C     C_R   0.382020 0.318694 0.204169 0.053776
C99   C     C_R   0.352611 0.629731 0.134760 0.057193
C100  C     C_R   0.882021 0.818692 0.204174 0.053784
C101  C     C_R   0.852611 0.129729 0.134758 0.057190
C102  C     C_2   0.273186 0.356032 0.181313 0.983305
C103  C     C_2   0.260342 0.602995 0.158787 0.938276
C104  C     C_2   0.773180 0.856045 0.181293 0.983277
H1    H     H_    0.340105 0.333400 0.690681 0.148390
H2    H     H_    0.303806 0.813184 0.684364 0.149258
H3    H     H_    0.707610 0.804451 0.636641 0.160194
H4    H     H_    0.803834 0.313227 0.684382 0.149247
H5    H     H_    0.179444 0.415974 0.413891 0.155887
H6    H     H_    0.266565 0.653268 0.528750 0.157743
H7    H     H_    0.679427 0.915941 0.413749 0.155901
H8    H     H_    0.766585 0.153270 0.528784 0.157740
H9    H     H_    0.616123 0.830826 0.432006 0.158156
H10   H     H_    0.695166 0.236664 0.527067 0.159997
H11   H     H_    0.116130 0.330809 0.432072 0.158129
H12   H     H_    0.408017 0.806883 0.654668 0.159010
H13   H     H_    0.195131 0.736660 0.526995 0.159998
H14   H     H_    0.785847 0.752492 0.417205 0.195718
H15   H     H_    0.773479 0.289265 0.341446 0.165853
H16   H     H_    0.285763 0.252536 0.417057 0.195783
H17   H     H_    0.273486 0.789280 0.341461 0.165859
H18   H     H_    0.347041 0.242460 0.565781 0.156571
H19   H     H_    0.348656 0.841325 0.454699 0.161788
H20   H     H_    0.847046 0.742467 0.565914 0.156601
H21   H     H_    0.848641 0.341329 0.454669 0.161795
H22   H     H_    0.775865 0.651938 0.551175 0.154359
H23   H     H_    0.840048 0.833494 0.690657 0.148406
H24   H     H_    0.773434 0.425909 0.447740 0.157397
H25   H     H_    0.275877 0.151940 0.551144 0.154348
H26   H     H_    0.273472 0.925910 0.447820 0.157398
H27   H     H_    0.712315 0.669001 0.404397 0.178785
H28   H     H_    0.700801 0.369954 0.336772 0.173787
H29   H     H_    0.212295 0.168995 0.404358 0.178756
H30   H     H_    0.200829 0.869997 0.336809 0.173790
H31   H     H_    0.181069 0.349190 0.327406 0.180226
H32   H     H_    0.222976 0.677168 0.386090 0.162875
H33   H     H_    0.681097 0.849096 0.327384 0.180309
H34   H     H_    0.908023 0.306902 0.654646 0.159008
H35   H     H_    0.722978 0.177164 0.386115 0.162879
H36   H     H_    0.697726 0.346829 0.766519 0.087487
H37   H     H_    0.720839 0.602067 0.826053 0.077466
H38   H     H_    0.197726 0.846830 0.766521 0.087486
H39   H     H_    0.220839 0.102066 0.826053 0.077464
H40   H     H_    0.607849 0.774589 0.328908 0.168768
H41   H     H_    0.651955 0.259165 0.384080 0.157345
H42   H     H_    0.107857 0.274607 0.328941 0.168759
H43   H     H_    0.151953 0.759183 0.384032 0.157357
H44   H     H_    0.213323 0.604866 0.956946 0.155892
H45   H     H_    0.778889 0.738166 0.686827 0.150369
H46   H     H_    0.306710 0.201995 0.194446 0.179205
H47   H     H_    0.713322 0.104866 0.956946 0.155892
H48   H     H_    0.806712 0.701993 0.194451 0.179211
H49   H     H_    0.716843 0.224722 0.814156 0.121854
H50   H     H_    0.791786 0.626265 0.001505 0.126528
H51   H     H_    0.216842 0.724722 0.814155 0.121855
H52   H     H_    0.291786 0.126265 0.001503 0.126527
H53   H     H_    0.333397 0.703278 0.003487 0.131441
H54   H     H_    0.363738 0.245733 0.073082 0.139428
H55   H     H_    0.833397 0.203275 0.003485 0.131440
H56   H     H_    0.834710 0.392084 0.650598 0.154244
H57   H     H_    0.863735 0.745735 0.073081 0.139429
H58   H     H_    0.623716 0.220009 0.882985 0.161045
H59   H     H_    0.677878 0.674350 0.018520 0.157412
H60   H     H_    0.123718 0.720010 0.882988 0.161049
H61   H     H_    0.177878 0.174350 0.018520 0.157391
H62   H     H_    0.410989 0.402894 0.681742 0.093750
H63   H     H_    0.441965 0.651213 0.683550 0.095815
H64   H     H_    0.910988 0.902871 0.681739 0.093737
H65   H     H_    0.941964 0.151213 0.683550 0.095816
H66   H     H_    0.737958 0.404824 0.678645 0.100864
H67   H     H_    0.278918 0.238107 0.686835 0.150341
H68   H     H_    0.711949 0.648947 0.680239 0.103155
H69   H     H_    0.237958 0.904821 0.678646 0.100866
H70   H     H_    0.211954 0.148937 0.680244 0.103153
H71   H     H_    0.262083 0.412391 0.328068 0.147471
H72   H     H_    0.296043 0.661881 0.328232 0.114452
H73   H     H_    0.762085 0.912372 0.328061 0.147469
H74   H     H_    0.796041 0.161881 0.328234 0.114451
H75   H     H_    0.522020 0.340025 0.766529 0.098232
H76   H     H_    0.551600 0.602105 0.837286 0.097206
H77   H     H_    0.022021 0.840025 0.766532 0.098232
H78   H     H_    0.334704 0.892051 0.650638 0.154241
H79   H     H_    0.051600 0.102105 0.837286 0.097206
H80   H     H_    0.477755 0.343000 0.225063 0.119034
H81   H     H_    0.449601 0.605133 0.162596 0.132359
H82   H     H_    0.977755 0.842997 0.225066 0.119036
H83   H     H_    0.949598 0.105124 0.162592 0.132365
H84   H     H_    0.267428 0.400005 0.625349 0.159356
H85   H     H_    0.373513 0.731365 0.686929 0.149218
H86   H     H_    0.767338 0.900042 0.625209 0.159400
H87   H     H_    0.873530 0.231393 0.686937 0.149217
H88   H     H_    0.174944 0.396203 0.059687 0.324663
H89   H     H_    0.207657 0.304414 0.636701 0.160192
H90   H     H_    0.165881 0.654854 0.081884 0.312169
H91   H     H_    0.674950 0.896255 0.059671 0.324666
H92   H     H_    0.665885 0.154873 0.081886 0.312166
N1    N     N_R   0.389430 0.421450 0.294590 -0.068645
N2    N     N_R   0.581780 0.577610 0.443390 -0.054138
N3    N     N_R   0.081780 0.922390 0.443390 -0.055268
N4    N     N_R   0.081780 0.077610 0.443390 -0.054140
N5    N     N_R   0.419850 0.423100 0.556610 -0.039574
N6    N     N_R   0.419850 0.576900 0.556610 -0.037583
N7    N     N_R   0.919850 0.923100 0.556610 -0.039572
N8    N     N_R   0.919850 0.076900 0.556610 -0.037584
N9    N     N_R   0.627410 0.423100 0.556610 -0.043392
N10   N     N_R   0.627410 0.576900 0.556610 -0.042934
N11   N     N_R   0.127410 0.923100 0.556610 -0.043391
N12   N     N_R   0.389430 0.578550 0.294590 -0.071164
N13   N     N_R   0.127410 0.076900 0.556610 -0.042935
N14   N     N_R   0.374220 0.422390 0.443390 -0.047299
N15   N     N_R   0.374220 0.577610 0.443390 -0.030466
N16   N     N_R   0.874220 0.922390 0.443390 -0.047300
N17   N     N_R   0.874220 0.077610 0.443390 -0.030462
N18   N     N_R   0.555000 0.424040 0.705410 -0.042325
N19   N     N_R   0.555000 0.575960 0.705410 -0.041309
N20   N     N_R   0.055000 0.924040 0.705410 -0.042325
N21   N     N_R   0.055000 0.075960 0.705410 -0.041310
N22   N     N_R   0.446630 0.421450 0.294590 -0.051346
N23   N     N_R   0.889430 0.921450 0.294590 -0.068637
N24   N     N_R   0.446630 0.578550 0.294590 -0.053200
N25   N     N_R   0.946630 0.921450 0.294590 -0.051344
N26   N     N_R   0.946630 0.078550 0.294590 -0.053202
N27   N     N_1   0.569795 0.432237 0.208216 -0.091539
N28   N     N_1   0.569797 0.632807 0.215358 -0.092511
N29   N     N_1   0.069797 0.932219 0.208214 -0.091541
N30   N     N_1   0.069775 0.132829 0.215344 -0.092524
N31   N     N_R   0.889430 0.078550 0.294590 -0.071164
N32   N     N_R   0.612200 0.424040 0.705410 -0.045187
N33   N     N_R   0.612200 0.575960 0.705410 -0.042794
N34   N     N_R   0.112200 0.924040 0.705410 -0.045187
N35   N     N_R   0.112200 0.075960 0.705410 -0.042795
N36   N     N_R   0.581780 0.422390 0.443390 -0.055267
Ni1   Ni    Ni4+2 0.382890 0.500000 0.370170 0.270439
Ni2   Ni    Ni4+2 0.882890 0.000000 0.370170 0.270448
Ni3   Ni    Ni4+2 0.618740 0.500000 0.629830 0.200065
Ni4   Ni    Ni4+2 0.118740 1.000000 0.629830 0.200063
Ni5   Ni    Ni4+2 0.514090 0.500000 0.370170 0.228367
Ni6   Ni    Ni4+2 0.014090 0.000000 0.370170 0.228365
Ni7   Ni    Ni4+2 0.487550 0.500000 0.629830 0.206714
Ni8   Ni    Ni4+2 0.987550 1.000000 0.629830 0.206717
O1    O     O_2   0.251980 0.308133 0.211294 -0.714711
O2    O     O_R   0.225521 0.404968 0.091697 -0.769112
O3    O     O_2   0.243511 0.547346 0.185174 -0.645563
O4    O     O_R   0.213136 0.664490 0.100802 -0.829578
O5    O     O_2   0.751954 0.808135 0.211229 -0.714664
O6    O     O_R   0.725534 0.905012 0.091704 -0.769112
O7    O     O_2   0.743509 0.047363 0.185185 -0.645551
O8    O     O_R   0.713140 0.164501 0.100800 -0.829582

loop_
_geom_bond_atom_site_label_1
_geom_bond_atom_site_label_2
_ccdc_geom_bond_type
N12   N24   A    
C13   C79   A    
C10   C85   A    
C55   C59   D    
N2    N10   A    
C87   N16   A    
C65   C101  S    
N6    N15   A    
N8    Ni8   S    
C85   N14   A    
C57   C62   D    
C79   N8    A    
C47   N34   A    
C27   H16   S    
C27   C52   S    
C83   C92   A    
C49   H27   S    
C47   H38   S    
C95   H81   S    
C50   C54   S    
H90   O4    S    
C96   C100  A    
C10   C32   S    
C8    C82   A    
C52   H25   S    
C64   C68   D    
C14   C21   S    
N2    Ni5   S    
C13   C35   S    
C19   C36   S    
C37   C51   S    
C93   H80   S    
C95   C99   A    
C81   H68   S    
N23   N25   A    
C11   C86   A    
C6    N29   T    
C29   C33   S    
C44   H43   S    
C23   C43   S    
C97   N26   A    
C18   C20   S    
C97   C101  A    
N14   Ni1   S    
C66   C100  S    
C37   C42   S    
C18   H34   S    
C90   N19   A    
N32   Ni3   S    
C63   C99   S    
C11   C77   A    
C43   H11   S    
C48   N35   A    
C10   C76   A    
C59   H50   S    
C14   H1    S    
C21   C38   S    
C60   C67   S    
C56   C72   S    
C29   H17   S    
N20   N34   A    
C71   N36   A    
C57   C83   S    
C76   H62   S    
N35   Ni4   S    
C102  O2    S    
C80   H66   S    
N18   N32   A    
C18   C35   S    
C39   N31   A    
C65   H55   S    
C25   C34   S    
C16   C34   S    
C54   H58   S    
C28   C100  A    
C64   C98   S    
C80   N9    A    
C15   H85   S    
C3    C39   S    
C77   N6    A    
C52   H29   S    
N23   Ni2   S    
C36   C41   S    
C95   N24   A    
C3    O7    D    
C19   H45   S    
C84   H70   S    
C9    C84   A    
C8    C74   A    
C82   N11   A    
C27   H18   S    
C42   H10   S    
N11   Ni4   S    
C6    C74   S    
C46   H37   S    
C90   H76   S    
C1    C102  S    
C15   C22   S    
C23   H5    S    
H91   O6    S    
C63   C67   D    
C18   H87   S    
H88   O2    S    
C88   N17   A    
C30   C34   S    
C46   C61   A    
N20   Ni8   S    
C96   H82   S    
N9    Ni3   S    
C70   H48   S    
C78   N7    A    
C41   H40   S    
C26   H35   S    
C25   C41   S    
N6    Ni7   S    
C71   C94   A    
C72   C91   A    
N1    Ni1   S    
C84   N13   A    
C7    C75   S    
C30   H14   S    
C21   H67   S    
N8    N17   A    
N26   Ni6   S    
C45   H36   S    
C75   N4    A    
C56   C60   D    
C66   H57   S    
C12   C78   A    
N10   Ni3   S    
C29   H19   S    
C45   N32   A    
C69   H47   S    
N33   Ni3   S    
N25   Ni6   S    
C25   H33   S    
C91   N20   A    
C49   H22   S    
C58   H49   S    
C31   C51   S    
C87   H73   S    
C14   H84   S    
C28   C104  S    
C50   C89   A    
C103  O3    D    
C82   H69   S    
C11   C33   S    
C24   H32   S    
C39   C101  A    
C22   C40   S    
C73   N2    A    
N3    N11   A    
C103  O4    S    
C24   H6    S    
C102  O1    D    
C86   N15   A    
N34   Ni4   S    
C17   C99   A    
N21   Ni8   S    
C31   H15   S    
N7    Ni8   S    
C2    C73   A    
C16   H86   S    
C30   C49   S    
C30   H20   S    
C96   N25   A    
C28   N23   A    
C104  O6    S    
C91   H77   S    
N36   Ni5   S    
C24   C44   S    
C46   N33   A    
C31   C35   S    
N24   Ni5   S    
N19   Ni7   S    
C3    O8    S    
C51   H24   S    
C80   C94   A    
N17   Ni2   S    
N3    Ni6   S    
C26   H8    S    
N5    N14   A    
C61   C90   A    
C26   C42   S    
C31   H21   S    
C54   C58   D    
C2    C36   S    
C97   H83   S    
N31   Ni2   S    
C12   C87   A    
C27   C32   S    
N19   N33   A    
N26   N31   A    
C17   N12   A    
C1    N1    A    
C53   H30   S    
C24   C33   S    
C14   C32   S    
C2    C81   A    
C92   H79   S    
C1    C98   A    
N16   Ni2   S    
C51   H28   S    
C40   C53   S    
C58   C69   S    
C88   H74   S    
C7    N30   T    
C23   H31   S    
C77   H63   S    
C4    N27   T    
C8    C40   S    
C56   H60   S    
C81   N10   A    
C78   H64   S    
N4    N13   A    
C48   C83   A    
C62   C68   S    
C76   N5    A    
C23   C32   S    
C93   C98   A    
N18   Ni7   S    
C17   C103  S    
C60   H51   S    
C55   H59   S    
C38   C43   S    
C22   H78   S    
C43   H42   S    
C22   H2    S    
N21   N35   A    
N5    Ni7   S    
C45   C50   A    
C20   C37   S    
C79   H65   S    
C66   C70   D    
C29   C53   S    
C44   H13   S    
C16   C19   S    
C65   C69   D    
C55   C61   S    
C13   C88   A    
C41   H9    S    
C9    C38   S    
C85   H71   S    
C62   H52   S    
C37   C94   S    
C86   H72   S    
C89   H75   S    
C5    C73   S    
C92   N21   A    
N7    N16   A    
C16   H23   S    
N4    Ni6   S    
C47   C72   A    
N13   Ni4   S    
C68   H46   S    
C25   H7    S    
C59   C70   S    
N15   Ni1   S    
C26   C35   S    
C40   C44   S    
C5    N28   T    
C57   H61   S    
C74   N3    A    
C48   H39   S    
C104  O5    D    
C20   H56   S    
C64   H54   S    
C67   H44   S    
C38   C52   S    
C63   H53   S    
C15   H12   S    
C93   N22   A    
N9    N36   A    
C53   H26   S    
C9    C75   A    
N22   Ni5   S    
C21   H89   S    
C42   H41   S    
C12   C34   S    
N12   Ni1   S    
C15   C33   S    
C4    C71   S    
H92   O8    S    
C36   C49   S    
N1    N22   A    
C89   N18   A    
C20   H4    S    
C19   H3    S    
