data_mof_unit_41654.cif
_audit_creation_date              2012-12-10T17:11:31-0500
_audit_creation_method            fapswitch 2.2
_symmetry_space_group_name_H-M    P1
_symmetry_Int_Tables_number       1
_space_group_crystal_system       triclinic
_cell_length_a                    15.073564
_cell_length_b                    12.971663
_cell_length_c                    11.715911
_cell_angle_alpha                 100.30449
_cell_angle_beta                  94.442007
_cell_angle_gamma                 90.91597
_cell_volume                      2246.0442762

loop_
_atom_site_label
_atom_site_type_symbol
_atom_type_description
_atom_site_fract_x
_atom_site_fract_y
_atom_site_fract_z
_atom_type_partial_charge
C1    C     C_R   0.502801 0.299280 0.478255 0.874901
C2    C     C_R   0.497202 0.700720 0.521745 0.875157
C3    C     C_R   0.058641 0.367124 0.618067 -0.199072
C4    C     C_R   0.941381 0.633075 0.382238 -0.199111
C5    C     C_R   0.489848 0.814130 0.533930 -0.098795
C6    C     C_R   0.510156 0.185870 0.466068 -0.098902
C7    C     C_R   0.553710 0.016072 0.366715 -0.212711
C8    C     C_R   0.446291 0.983927 0.633281 -0.212712
C9    C     C_R   0.551259 0.124682 0.373047 -0.009752
C10   C     C_R   0.448736 0.875316 0.626945 -0.009834
C11   C     C_R   0.475723 0.138202 0.552045 -0.251077
C12   C     C_R   0.524286 0.861798 0.447956 -0.251026
C13   C     C_R   0.480640 0.030728 0.546792 0.154331
C14   C     C_R   0.519367 0.969272 0.453208 0.154346
C15   C     C_R   0.416349 0.401475 0.017916 -0.291514
C16   C     C_R   0.583651 0.598525 0.982084 -0.291504
C17   C     C_R   0.423568 0.410117 0.139703 0.387358
C18   C     C_R   0.576431 0.589883 0.860297 0.387601
C19   C     C_R   0.536231 0.542868 0.158481 0.017693
C20   C     C_R   0.463769 0.457132 0.841519 0.017732
C21   C     C_R   0.530327 0.535769 0.035534 0.028888
C22   C     C_R   0.469673 0.464231 0.964465 0.028897
C23   C     C_R   0.328980 0.503404 0.500086 0.868972
C24   C     C_R   0.671019 0.496604 0.499918 0.868568
C25   C     C_R   0.809319 0.554149 0.434381 -0.220228
C26   C     C_R   0.190693 0.445930 0.565729 -0.220283
C27   C     C_R   0.767585 0.491256 0.499723 -0.114760
C28   C     C_R   0.232413 0.508769 0.500310 -0.114854
C29   C     C_R   0.817699 0.428585 0.566577 -0.048190
C30   C     C_R   0.182287 0.571449 0.433484 -0.048352
C31   C     C_R   0.911682 0.425995 0.561974 -0.012932
C32   C     C_R   0.088319 0.574110 0.438223 -0.012843
C33   C     C_R   0.953223 0.496604 0.500176 0.041253
C34   C     C_R   0.046783 0.503488 0.499997 0.041227
C35   C     C_R   0.901306 0.560340 0.437693 0.091838
C36   C     C_R   0.098705 0.439766 0.562480 0.091853
C37   C     C_R   0.966563 0.356371 0.615151 0.163538
C38   C     C_R   0.033460 0.643857 0.385232 0.163761
Cu1   Cu    Cu3+1 0.506660 0.507730 0.615930 1.006584
Cu2   Cu    Cu3+1 0.493340 0.492270 0.384070 1.006536
H1    H     H_    0.769649 0.603178 0.385496 0.142949
H2    H     H_    0.230369 0.396923 0.614633 0.142967
H3    H     H_    0.368914 0.345492 0.965229 0.163028
H4    H     H_    0.631086 0.654508 0.034771 0.163013
H5    H     H_    0.099678 0.314931 0.660639 0.169171
H6    H     H_    0.900358 0.685349 0.339767 0.169165
H7    H     H_    0.555631 0.814947 0.376717 0.150163
H8    H     H_    0.444380 0.185054 0.623286 0.150215
H9    H     H_    0.585096 0.968253 0.296222 0.167956
H10   H     H_    0.414901 0.031747 0.703770 0.167976
H11   H     H_    0.416837 0.401857 0.787013 0.124463
H12   H     H_    0.583163 0.598143 0.212987 0.124476
N1    N     N_R   0.516670 0.519360 0.790130 -0.205806
N2    N     N_R   0.483330 0.480640 0.209870 -0.205819
O1    O     O_R   0.504720 0.354460 0.582000 -0.596384
O2    O     O_R   0.495280 0.645540 0.418000 -0.596279
O3    O     O_R   0.493480 0.341410 0.386200 -0.558421
O4    O     O_R   0.506520 0.658590 0.613800 -0.558487
O5    O     O_R   0.375880 0.506510 0.597910 -0.579423
O6    O     O_R   0.624120 0.493490 0.402090 -0.579374
O7    O     O_R   0.364640 0.493450 0.402110 -0.566235
O8    O     O_R   0.635360 0.506550 0.597890 -0.566243
C39   C     C_2   0.770908 0.374020 0.645979 0.909809
O9    O     O_2   0.785373 0.401476 0.751308 -0.550648
O10   O     O_R   0.708141 0.293879 0.600223 -0.736421
H13   H     H_    0.679565 0.263680 0.663054 0.343606
C40   C     C_2   0.228999 0.625882 0.353884 0.909814
O11   O     O_2   0.214088 0.598664 0.248585 -0.550711
O12   O     O_R   0.292140 0.705670 0.399391 -0.736431
H14   H     H_    0.320599 0.735805 0.336430 0.343620
I1    I     I_    0.925289 0.219202 0.677034 -0.231896
I2    I     I_    0.074829 0.781362 0.324081 -0.231967
C41   C     C_2   0.402717 0.828870 0.714008 0.888762
O13   O     O_2   0.408815 0.872481 0.816007 -0.565917
O14   O     O_R   0.349269 0.737933 0.678905 -0.729335
H15   H     H_    0.321008 0.714475 0.746123 0.341740
C42   C     C_2   0.597256 0.171124 0.285962 0.888854
O15   O     O_2   0.591135 0.127510 0.183964 -0.565924
O16   O     O_R   0.650708 0.262060 0.321043 -0.729240
H16   H     H_    0.678952 0.285513 0.253810 0.341754
I3    I     I_    0.664065 0.693265 0.798448 -0.257494
I4    I     I_    0.335934 0.306737 0.201552 -0.257625

loop_
_geom_bond_atom_site_label_1
_geom_bond_atom_site_label_2
_ccdc_geom_bond_type
C29   C39   S    
C8    C13   A    
Cu2   O6    S    
C27   C29   A    
C41   O13   D    
C24   C27   S    
C6    C9    A    
C39   O10   S    
C4    H6    S    
C42   O15   D    
C23   O5    A    
C16   C21   A    
C19   C21   A    
C20   H11   S    
C10   C41   S    
C18   I3    S    
C7    C9    A    
C17   I4    S    
C18   N1    A    
C19   H12   S    
C15   C22   A    
Cu1   O1    S    
Cu2   O2    S    
C31   C33   A    
C32   C38   A    
C7    C14   A    
C16   H4    S    
C30   C40   S    
C4    C35   A    
C21   C22   A    
C41   O14   S    
C11   H8    S    
C12   H7    S    
C42   O16   S    
C38   I2    S    
C40   O11   D    
C7    H9    S    
C5    C12   A    
C25   H1    S    
C6    C11   A    
Cu1   O4    S    
C3    H5    S    
Cu2   O7    S    
C39   O9    D    
C40   O12   S    
C32   C34   A    
O14   H15   S    
C1    O3    A    
C24   O6    A    
Cu1   O5    S    
C33   C34   A    
C9    C42   S    
C23   C28   S    
C25   C35   A    
C19   N2    A    
C26   C36   A    
C12   C14   A    
Cu2   N2    S    
C37   I1    S    
C13   C14   A    
C2    C5    S    
C8    H10   S    
Cu1   Cu2   S    
C26   H2    S    
C15   C17   A    
Cu1   O8    S    
C24   O8    A    
Cu2   O3    S    
C8    C10   A    
C20   C22   A    
C20   N1    A    
C2    O4    A    
C25   C27   A    
C26   C28   A    
C28   C30   A    
C1    O1    A    
C15   H3    S    
C5    C10   A    
C29   C31   A    
C2    O2    A    
C30   C32   A    
C11   C13   A    
Cu1   N1    S    
C3    C36   A    
C33   C35   A    
C34   C36   A    
O12   H14   S    
O16   H16   S    
C31   C37   A    
C23   O7    A    
C3    C37   A    
C16   C18   A    
O10   H13   S    
C1    C6    S    
C4    C38   A    
C17   N2    A    
