data_mof_unit_50252.cif
_audit_creation_date              2012-12-11T15:41:24-0500
_audit_creation_method            fapswitch 2.2
_symmetry_space_group_name_H-M    P1
_symmetry_Int_Tables_number       1
_space_group_crystal_system       triclinic
_cell_length_a                    14.840889
_cell_length_b                    14.955411
_cell_length_c                    15.053004
_cell_angle_alpha                 109.327094
_cell_angle_beta                  109.67646
_cell_angle_gamma                 109.493112
_cell_volume                      2569.27649799

loop_
_atom_site_label
_atom_site_type_symbol
_atom_type_description
_atom_site_fract_x
_atom_site_fract_y
_atom_site_fract_z
_atom_type_partial_charge
C1    C     C_R   0.193681 0.992571 0.902560 -0.153783
C2    C     C_R   0.774603 0.912223 0.414218 0.038222
C3    C     C_R   0.292399 0.276295 0.817422 -0.126267
C4    C     C_R   0.680070 0.808674 0.337135 -0.125765
C5    C     C_R   0.288371 0.325499 0.912309 0.049634
C6    C     C_R   0.686442 0.726480 0.264232 0.070823
C7    C     C_R   0.188151 0.282801 0.911482 -0.159296
C8    C     C_R   0.789007 0.747316 0.271630 -0.171319
C9    C     C_R   0.094581 0.188623 0.818798 -0.092087
C10   C     C_R   0.882662 0.850500 0.347238 -0.087667
C11   C     C_R   0.100529 0.135993 0.726803 -0.265925
C12   C     C_R   0.748420 0.933833 0.026308 -0.121141
C13   C     C_R   0.875150 0.933030 0.416953 -0.244286
C14   C     C_R   0.390906 0.519661 0.036853 -0.225984
C15   C     C_R   0.581053 0.522920 0.159514 -0.226953
C16   C     C_R   0.803348 0.209554 0.300680 -0.141010
C17   C     C_R   0.250105 0.776901 0.686281 -0.083167
C18   C     C_R   0.491068 0.618350 0.104246 0.044610
C19   C     C_R   0.487066 0.423069 0.072928 0.065198
C20   C     C_R   0.584637 0.621915 0.175688 0.041868
C21   C     C_R   0.389130 0.421958 0.012754 0.038815
C22   C     C_R   0.036851 0.478345 0.381116 -0.183531
C23   C     C_R   0.867288 0.303314 0.303659 0.055807
C24   C     C_R   0.125500 0.471950 0.572910 -0.155315
C25   C     C_R   0.128878 0.571127 0.474364 -0.141078
C26   C     C_R   0.033810 0.379071 0.479681 -0.158759
C27   C     C_R   0.165356 0.571333 0.573374 0.147193
C28   C     C_R   0.982512 0.385271 0.386533 0.139016
C29   C     C_R   0.554067 0.144619 0.605594 -0.121016
C30   C     C_R   0.437879 0.950462 0.407293 -0.192070
C31   C     C_R   0.551833 0.150626 0.514835 -0.046093
C32   C     C_R   0.443273 0.943940 0.497363 -0.007434
C33   C     C_R   0.492482 0.051974 0.415760 0.076599
C34   C     C_R   0.225062 0.674419 0.675845 0.051955
C35   C     C_R   0.500127 0.042549 0.596180 0.067289
C36   C     C_R   0.962300 0.838529 0.940070 -0.154748
C37   C     C_R   0.867999 0.936834 0.840802 -0.150620
C38   C     C_R   0.871678 0.842164 0.943797 -0.150831
C39   C     C_R   0.958499 0.932834 0.836721 -0.172726
C40   C     C_R   0.405901 0.974257 0.218984 -0.127803
C41   C     C_R   0.592793 0.082508 0.786364 -0.117447
C42   C     C_R   0.832766 0.902820 0.905338 0.142648
C43   C     C_R   0.013244 0.894614 0.896883 0.137666
C44   C     C_R   0.590155 0.315520 0.059277 -0.120945
C45   C     C_R   0.497068 0.046760 0.321368 0.005268
C46   C     C_R   0.407683 0.705301 0.010270 -0.133644
C47   C     C_R   0.591060 0.064009 0.313571 -0.080691
C48   C     C_R   0.408161 0.991118 0.694707 -0.041156
C49   C     C_R   0.406305 0.218921 0.976269 -0.125113
C50   C     C_R   0.590482 0.792624 0.098263 -0.138961
C51   C     C_R   0.803843 0.301177 0.210318 -0.136755
C52   C     C_R   0.251849 0.685776 0.778323 -0.125526
C53   C     C_R   0.194870 0.903058 0.994385 -0.131273
C54   C     C_R   0.750179 0.026424 0.935891 -0.103405
C55   C     C_R   0.129472 0.929798 0.930860 0.055067
C56   C     C_R   0.500727 0.039839 0.689294 0.108198
C57   C     C_R   0.774923 0.948608 0.950139 0.044452
C58   C     C_2   0.205182 0.121225 0.628351 0.454563
C59   C     C_2   0.769767 0.999649 0.491670 0.445900
C60   C     C_2   0.609773 0.258265 0.523651 0.508473
C61   C     C_2   0.393711 0.832704 0.484418 0.488135
C62   C     C_R   0.495235 0.323694 0.041906 0.049800
C63   C     C_R   0.497958 0.703764 0.074878 0.069731
C64   C     C_R   0.199327 0.179440 0.725177 0.038107
H1    H     H_    0.165200 0.014779 0.841551 0.105613
H2    H     H_    0.653592 0.524142 0.210868 0.128854
H3    H     H_    0.003533 0.483942 0.308611 0.107660
H4    H     H_    0.156672 0.467361 0.646347 0.114908
H5    H     H_    0.163220 0.644674 0.470123 0.113191
H6    H     H_    0.998218 0.306577 0.485116 0.108549
H7    H     H_    0.596927 0.218779 0.683533 0.157186
H8    H     H_    0.396998 0.874880 0.330961 0.107938
H9    H     H_    0.997990 0.801651 0.981123 0.107893
H10   H     H_    0.834053 0.976651 0.802747 0.119759
H11   H     H_    0.830497 0.176840 0.351818 0.084918
H12   H     H_    0.757487 0.880380 0.057814 0.095905
H13   H     H_    0.237155 0.797661 0.622845 0.090003
H14   H     H_    0.841087 0.807723 0.987291 0.110258
H15   H     H_    0.990987 0.969456 0.795571 0.115155
H16   H     H_    0.320106 0.937546 0.197713 0.102173
H17   H     H_    0.677312 0.137701 0.812735 0.091471
H18   H     H_    0.675127 0.381249 0.107712 0.094626
H19   H     H_    0.323111 0.660031 0.990097 0.085456
H20   H     H_    0.675816 0.110789 0.379376 0.100548
H21   H     H_    0.323771 0.962673 0.637176 0.078490
H22   H     H_    0.321724 0.192101 0.955153 0.128990
H23   H     H_    0.369571 0.310660 0.817930 0.158301
H24   H     H_    0.675824 0.823502 0.153924 0.116762
H25   H     H_    0.831735 0.353507 0.178971 0.085597
H26   H     H_    0.242942 0.623311 0.800904 0.098444
H27   H     H_    0.167861 0.842584 0.017750 0.083803
H28   H     H_    0.763325 0.059783 0.885183 0.094737
H29   H     H_    0.028188 0.060808 0.657488 0.112312
H30   H     H_    0.947759 0.013375 0.472829 0.100091
H31   H     H_    0.133969 0.044253 0.559599 -0.003469
H32   H     H_    0.842598 0.080469 0.547153 0.005868
H33   H     H_    0.604123 0.263323 0.451897 0.013474
H34   H     H_    0.601092 0.792424 0.331957 0.150053
H35   H     H_    0.329175 0.762861 0.404581 -0.012644
H36   H     H_    0.183331 0.321106 0.983356 0.120428
H37   H     H_    0.795503 0.685291 0.215871 0.111922
H38   H     H_    0.017810 0.155116 0.819001 0.116367
H39   H     H_    0.960891 0.867135 0.350604 0.113110
H40   H     H_    0.315933 0.515276 0.986630 0.125633
N1    N     N_R   0.293810 0.002730 0.945950 -0.042099
N2    N     N_R   0.443210 0.997250 0.791090 -0.044366
N3    N     N_R   0.443180 0.152110 0.945950 -0.045881
N4    N     N_R   0.556820 0.847890 0.054050 -0.039843
N5    N     N_R   0.706170 0.208950 0.152090 -0.039462
N6    N     N_R   0.293830 0.791050 0.847910 -0.042153
N7    N     N_R   0.293800 0.945910 0.002760 -0.038383
N8    N     N_R   0.706200 0.054090 0.997240 -0.043279
N9    N     N_R   0.706190 0.997270 0.054050 -0.041534
N10   N     N_R   0.706160 0.152130 0.208910 -0.041410
N11   N     N_R   0.293840 0.847870 0.791090 -0.046934
N12   N     N_R   0.443140 0.945920 0.152090 -0.043095
N13   N     N_R   0.556860 0.054080 0.847910 -0.042035
N14   N     N_R   0.556830 0.208940 0.002760 -0.043951
N15   N     N_R   0.443170 0.791060 0.997240 -0.037608
N16   N     N_R   0.556790 0.002750 0.208910 -0.044834
Ni1   Ni    Ni4+2 0.369690 0.999990 0.869700 0.221641
Ni2   Ni    Ni4+2 0.630310 0.000010 0.130300 0.216941
Ni3   Ni    Ni4+2 0.369670 0.869670 0.000000 0.211014
Ni4   Ni    Ni4+2 0.630330 0.130330 0.000000 0.216159
O1    O     O_2   0.289745 0.157826 0.624394 -0.589717
O2    O     O_2   0.685040 0.982481 0.495296 -0.586547
O3    O     O_2   0.664479 0.342948 0.611368 -0.575529
O4    O     O_2   0.427365 0.816585 0.560292 -0.570874

loop_
_geom_bond_atom_site_label_1
_geom_bond_atom_site_label_2
_ccdc_geom_bond_type
C37   H10   S    
N11   Ni1   S    
N12   Ni3   S    
C4    H34   S    
C16   H11   S    
C33   C45   S    
C14   C18   A    
C52   H26   S    
C24   C27   A    
C49   N3    A    
C3    C64   A    
C59   O2    D    
C15   C19   A    
C6    C8    A    
C14   C21   A    
C10   H39   S    
C19   C21   A    
N13   Ni4   S    
C24   C26   A    
C32   C61   S    
C38   C42   A    
C44   H18   S    
C8    C10   A    
C18   C63   S    
C40   H16   S    
C19   C62   S    
C48   C56   A    
C37   C42   A    
C2    C13   A    
C14   H40   S    
C48   N2    A    
N9    Ni2   S    
C9    H38   S    
C22   C25   A    
C53   H27   S    
C1    H1    S    
C31   C33   A    
C52   N6    A    
C8    H37   S    
N3    N14   A    
C50   H24   S    
C53   N7    A    
C53   C55   A    
N1    N7    A    
C51   N5    A    
C22   C28   A    
C50   N4    A    
C50   C63   A    
N4    N15   A    
C61   H35   S    
C42   C57   S    
N8    N9    A    
N16   Ni2   S    
C45   C47   A    
C27   C34   S    
C58   C64   S    
C15   C20   A    
C7    H36   S    
C54   N8    A    
C32   C35   A    
C4    C6    A    
C11   C64   A    
C5    C7    A    
C2    C59   S    
C39   C43   A    
C38   H14   S    
C44   C62   A    
C47   H20   S    
C15   H2    S    
C3    H23   S    
N12   N16   A    
C39   H15   S    
C31   C60   S    
C2    C4    A    
C58   H31   S    
C41   C56   A    
C54   H28   S    
N6    Ni3   S    
C23   C51   A    
C44   N14   A    
C41   H17   S    
C17   H13   S    
N1    Ni1   S    
N14   Ni4   S    
C23   C28   S    
C9    C11   A    
N5    N10   A    
C12   C57   A    
C43   C55   S    
C47   N16   A    
C60   H33   S    
C16   C23   A    
C12   H12   S    
N2    N13   A    
C26   H6    S    
C25   H5    S    
C17   C34   A    
N3    Ni1   S    
C17   N11   A    
C12   N9    A    
C7    C9    A    
N7    Ni3   S    
C49   C62   A    
C30   C33   A    
C35   C56   S    
C34   C52   A    
C49   H22   S    
C60   O3    D    
N4    Ni2   S    
C3    C5    A    
C10   C13   A    
C16   N10   A    
C30   H8    S    
N5    Ni4   S    
N8    Ni4   S    
N15   Ni3   S    
C25   C27   A    
C6    C20   S    
C29   C35   A    
C26   C28   A    
C13   H30   S    
C36   C38   A    
C1    C55   A    
C29   C31   A    
C51   H25   S    
C30   C32   A    
C11   H29   S    
C40   N12   A    
C46   C63   A    
N2    Ni1   S    
C46   N15   A    
C61   O4    D    
C18   C20   A    
C22   H3    S    
C36   H9    S    
C24   H4    S    
C46   H19   S    
N10   Ni2   S    
C5    C21   S    
C40   C45   A    
C58   O1    D    
C37   C39   A    
C59   H32   S    
C48   H21   S    
C36   C43   A    
C41   N13   A    
N6    N11   A    
C1    N1    A    
C29   H7    S    
C54   C57   A    
