data_mof_unit_6525.cif
_audit_creation_date              2013-03-05T16:19:20-0500
_audit_creation_method            fapswitch 2.2
_symmetry_space_group_name_H-M    P1
_symmetry_Int_Tables_number       1
_space_group_crystal_system       triclinic
_cell_length_a                    10.612987
_cell_length_b                    9.675199
_cell_length_c                    23.422751
_cell_angle_alpha                 89.934019
_cell_angle_beta                  90.182142
_cell_angle_gamma                 89.990695
_cell_volume                      2405.09896697

loop_
_atom_site_label
_atom_site_type_symbol
_atom_site_description
_atom_site_fract_x
_atom_site_fract_y
_atom_site_fract_z
_atom_type_partial_charge
O1    O     O_R   0.314910 0.616040 0.499990 -0.633678
O2    O     O_R   0.314910 0.383960 0.499990 -0.634826
C1    C     C_R   0.257880 0.500011 0.503068 0.942282
O3    O     O_R   0.500080 0.616070 0.416130 -0.630922
O4    O     O_R   0.500080 0.383930 0.416130 -0.628734
C2    C     C_R   0.499673 0.500126 0.389186 0.889566
Zn1   Zn    Zn3+2 0.500150 0.654960 0.499970 0.914263
Zn2   Zn    Zn3+2 0.500150 0.345040 0.499970 0.914022
O5    O     O_R   0.685320 0.616040 0.499970 -0.635664
O6    O     O_R   0.685320 0.383960 0.499970 -0.635863
O7    O     O_R   0.500150 0.616010 0.583820 -0.629045
O8    O     O_R   0.500150 0.383990 0.583820 -0.630338
C3    C     C_R   0.742451 0.499988 0.502935 0.892945
C4    C     C_R   0.499283 0.499910 0.610765 0.914185
C5    C     C_R   0.601579 0.518275 0.880462 0.500901
N1    N     N_R   0.490207 0.498093 0.852237 -0.361303
C6    C     C_R   0.379256 0.477002 0.880377 0.502469
C7    C     C_R   0.377233 0.476010 0.939994 -0.016099
C8    C     C_R   0.491017 0.496955 0.969937 -0.021763
C9    C     C_R   0.604418 0.518140 0.940049 -0.014517
C10   C     C_R   0.264767 0.455072 0.970177 -0.160388
C11   C     C_R   0.265107 0.455180 0.029615 -0.160129
C12   C     C_R   0.377924 0.476162 0.059816 -0.012959
C13   C     C_R   0.491392 0.496916 0.029907 -0.022997
C14   C     C_R   0.605231 0.517764 0.059824 -0.016427
C15   C     C_R   0.717760 0.538215 0.029662 -0.162304
C16   C     C_R   0.717347 0.538481 0.970244 -0.158704
C17   C     C_R   0.380613 0.477637 0.119415 0.485194
N2    N     N_R   0.491851 0.499167 0.147531 -0.361518
C18   C     C_R   0.603101 0.517932 0.119399 0.507639
O9    O     O_2   0.708982 0.537700 0.850787 -0.549053
O10   O     O_2   0.271543 0.457883 0.850619 -0.545283
H1    H     H_    0.176271 0.438794 0.948021 0.193565
H2    H     H_    0.176863 0.439042 0.051758 0.192938
O11   O     O_2   0.273339 0.458565 0.149207 -0.555386
O12   O     O_2   0.710838 0.536819 0.149162 -0.559514
H3    H     H_    0.806279 0.554365 0.051818 0.192305
H4    H     H_    0.805584 0.554763 0.948113 0.193595
C19   C     C_R   0.506788 0.377498 0.237673 -0.132780
H5    H     H_    0.516602 0.281327 0.214475 0.140973
C20   C     C_R   0.509449 0.376547 0.296810 -0.229765
H6    H     H_    0.521229 0.278838 0.318820 0.155543
C21   C     C_R   0.497524 0.500763 0.326975 -0.078466
C22   C     C_R   0.482380 0.625890 0.297405 -0.243475
H7    H     H_    0.471639 0.722081 0.320567 0.154566
C23   C     C_R   0.479573 0.628063 0.237838 0.217275
C24   C     C_R   0.491985 0.502073 0.208205 0.295909
C25   C     C_R   0.500901 0.624065 0.762282 -0.100838
H8    H     H_    0.507578 0.720492 0.785527 0.134897
C26   C     C_R   0.503630 0.624702 0.703053 -0.219053
H9    H     H_    0.512325 0.722658 0.680978 0.145628
C27   C     C_R   0.495993 0.499606 0.672932 -0.022165
C28   C     C_R   0.484359 0.374201 0.702684 -0.211508
H10   H     H_    0.477634 0.276537 0.680321 0.145381
C29   C     C_R   0.481321 0.374025 0.761905 -0.103937
H11   H     H_    0.473101 0.277220 0.784849 0.134690
C30   C     C_R   0.490066 0.498802 0.791567 0.327016
C31   C     C_3   0.072287 0.633358 0.535876 0.444650
C32   C     C_3   0.072378 0.367503 0.536539 0.442770
H12   H     H_    0.101944 0.724245 0.509538 0.047949
H13   H     H_    0.102702 0.275906 0.510854 0.048181
C33   C     C_3   0.927561 0.629987 0.536778 -0.464218
C34   C     C_3   0.927618 0.370192 0.537017 -0.463491
H14   H     H_    0.892157 0.629206 0.581490 0.198198
H15   H     H_    0.891587 0.370626 0.581627 0.197871
H16   H     H_    0.891893 0.726192 0.516203 0.136403
H17   H     H_    0.892553 0.273924 0.516376 0.136429
H18   H     H_    0.107514 0.591581 0.419502 0.197884
H19   H     H_    0.107044 0.406172 0.420061 0.199556
H20   H     H_    0.893256 0.592816 0.419534 0.188503
H21   H     H_    0.892794 0.407033 0.419611 0.188400
C35   C     C_3   0.072277 0.499336 0.443049 -0.625047
C36   C     C_3   0.121433 0.500066 0.505410 0.002766
C37   C     C_3   0.878765 0.499994 0.504823 0.055326
C38   C     C_3   0.928040 0.499805 0.442798 -0.417626
C39   C     C_3   0.384293 0.081464 0.471478 -0.234607
C40   C     C_3   0.384442 0.918724 0.471348 -0.235394
H22   H     H_    0.376130 0.120678 0.426953 0.146409
H23   H     H_    0.376770 0.880165 0.426744 0.142938
H24   H     H_    0.299385 0.118749 0.494387 0.137401
H25   H     H_    0.299395 0.880921 0.494008 0.138288
H26   H     H_    0.607722 0.120240 0.422241 0.144727
H27   H     H_    0.608211 0.879828 0.422371 0.146245
C41   C     C_3   0.609092 0.081478 0.466969 -0.233527
C42   C     C_3   0.609217 0.918646 0.467057 -0.233383
C43   C     C_3   0.506209 0.081085 0.557554 -0.234641
C44   C     C_3   0.505926 0.918593 0.557561 -0.234240
N3    N     N_3   0.499750 0.138610 0.498760 -0.031064
N4    N     N_3   0.499750 0.861390 0.498760 -0.030963
H28   H     H_    0.592733 0.119295 0.579351 0.144880
H29   H     H_    0.592159 0.879916 0.579497 0.143649
H30   H     H_    0.425199 0.119459 0.582972 0.143081
H31   H     H_    0.424540 0.880436 0.582845 0.146133
H32   H     H_    0.698449 0.119208 0.486311 0.142790
H33   H     H_    0.698496 0.881068 0.486570 0.142586
O13   O     O_3   0.121554 0.641082 0.592261 -0.537259
C45   C     C_3   0.126180 0.779614 0.611025 -0.305507
H34   H     H_    0.031469 0.828766 0.609800 0.140768
H35   H     H_    0.194006 0.840861 0.585326 0.127738
H36   H     H_    0.159652 0.781017 0.655935 0.207087
O14   O     O_3   0.120724 0.361887 0.593130 -0.537491
C46   C     C_3   0.127957 0.223809 0.612399 -0.307229
H37   H     H_    0.199009 0.164760 0.587688 0.130009
H38   H     H_    0.034772 0.171439 0.610127 0.139691
H39   H     H_    0.158645 0.223987 0.657708 0.208739
C47   C     C_3   0.461252 0.764599 0.207312 -0.416754
C48   C     C_3   0.578057 0.855812 0.212611 -0.834705
H40   H     H_    0.597707 0.880590 0.258061 0.244414
H41   H     H_    0.661111 0.802777 0.193990 0.295532
H42   H     H_    0.562345 0.954152 0.189150 0.248185
H43   H     H_    0.440211 0.749843 0.161287 0.215175
H44   H     H_    0.378981 0.819293 0.225940 0.207448

loop_
_geom_bond_atom_site_label_1
_geom_bond_atom_site_label_2
_geom_bond_distance
_ccdc_geom_bond_type
C31   C33   1.536536 S    
C29   H11   1.082968 S    
C34   H15   1.113815 S    
O14   C46   1.411617 S    
C44   H29   1.112674 S    
C7    C10   1.403796 A    
C20   C21   1.400734 A    
C20   H6    1.083301 S    
C8    C9    1.409140 A    
C45   H34   1.112184 S    
C25   C30   1.396850 A    
C19   C20   1.385376 A    
C47   H44   1.111562 S    
C28   H10   1.083176 S    
C22   H7    1.083956 S    
Zn1   O7    1.999397 S    
C40   N4    1.487111 S    
C15   C16   1.391721 A    
N2    C24   1.421473 S    
C17   N2    1.366107 A    
C39   H22   1.112459 S    
C35   C38   1.530775 S    
O4    C2    1.288620 A    
O7    C4    1.287864 A    
C43   N3    1.486116 S    
C10   H1    1.083230 S    
C47   C48   1.526622 S    
C16   H4    1.083245 S    
C31   H12   1.119356 S    
C5    N1    1.366635 A    
Zn1   N4    1.997424 S    
C44   H31   1.111734 S    
C46   H39   1.109117 S    
C7    C8    1.409345 A    
O5    C3    1.277710 A    
C33   H14   1.113799 S    
C41   C42   1.575430 S    
C4    C27   1.456666 S    
C17   O11   1.349804 S    
N1    C6    1.366505 A    
C26   C27   1.403867 A    
C48   H40   1.110622 S    
C39   N3    1.487128 S    
H18   C35   1.113942 S    
C40   H23   1.112522 S    
C10   C11   1.392203 A    
C48   H41   1.110550 S    
O3    Zn1   1.999910 S    
C45   H35   1.110719 S    
C22   C23   1.395583 A    
C26   H9    1.083191 S    
C47   H43   1.109614 S    
C28   C29   1.387590 A    
C5    C9    1.395920 A    
C11   H2    1.083241 S    
C34   H17   1.113448 S    
C32   H13   1.119492 S    
C37   C38   1.545634 S    
C33   H16   1.113384 S    
C32   O14   1.420833 S    
C39   H24   1.110641 S    
C13   C14   1.409413 A    
O3    C2    1.287757 A    
C43   H28   1.112713 S    
C19   H5    1.083229 S    
C42   N4    1.487529 S    
C43   C44   1.572149 S    
C14   C15   1.403446 A    
O1    C1    1.277527 A    
C34   C37   1.552324 S    
H19   C35   1.113925 S    
C21   C22   1.403018 A    
N2    C18   1.365987 A    
C40   H25   1.110357 S    
Zn2   O8    2.000249 S    
O13   C45   1.411838 S    
C6    C7    1.396642 A    
C41   H32   1.111589 S    
C12   C17   1.396263 A    
C39   C40   1.574552 S    
C46   H38   1.112437 S    
C25   H8    1.082964 S    
H27   C42   1.112441 S    
O8    C4    1.287607 A    
H26   C41   1.112389 S    
C2    C21   1.457253 S    
C44   N4    1.486161 S    
C31   O13   1.420931 S    
C48   H42   1.110489 S    
C45   H36   1.109307 S    
C27   C28   1.404155 A    
C19   C24   1.396822 A    
C14   C18   1.395671 A    
Zn1   O5    2.000899 S    
C32   C36   1.564640 S    
C23   C24   1.409795 A    
O1    Zn1   2.001748 S    
O2    Zn2   2.001628 S    
C41   N3    1.487580 S    
C35   C36   1.549512 S    
O6    C3    1.277815 A    
O4    Zn2   1.999058 S    
C15   H3    1.083246 S    
C5    O9    1.350020 S    
C9    C16   1.403700 A    
C32   C34   1.536632 S    
C18   O12   1.349839 S    
C29   C30   1.396529 A    
C8    C13   1.404646 A    
C43   H30   1.111370 S    
H21   C38   1.113774 S    
C42   H33   1.111591 S    
C23   C47   1.513596 S    
C25   C26   1.387700 A    
O2    C1    1.277695 A    
N1    C30   1.421077 S    
C46   H37   1.110604 S    
C1    C36   1.449328 S    
C12   C13   1.409400 A    
C3    C37   1.447230 S    
Zn2   O6    2.001019 S    
H20   C38   1.113776 S    
C6    O10   1.349876 S    
C11   C12   1.403647 A    
C33   C37   1.552458 S    
Zn2   N3    1.997491 S    
C31   C36   1.564817 S    
