data_mof_unit_10830.cif
_audit_creation_date              2012-12-10T16:52:36-0500
_audit_creation_method            fapswitch 2.2
_symmetry_space_group_name_H-M    P1
_symmetry_Int_Tables_number       1
_space_group_crystal_system       triclinic
_cell_length_a                    7.879325
_cell_length_b                    8.563388
_cell_length_c                    13.679537
_cell_angle_alpha                 94.060147
_cell_angle_beta                  92.797287
_cell_angle_gamma                 94.248295
_cell_volume                      916.806770034

loop_
_atom_site_label
_atom_site_type_symbol
_atom_type_description
_atom_site_fract_x
_atom_site_fract_y
_atom_site_fract_z
_atom_type_partial_charge
C1    C     C_R   0.044989 0.794500 0.497354 0.942116
C2    C     C_R   0.937128 0.487124 0.317777 0.839661
C3    C     C_R   0.089594 0.514451 0.788233 -0.053621
C4    C     C_R   0.902429 0.457517 0.212861 -0.067863
C5    C     C_R   0.038571 0.627121 0.949549 -0.183962
C6    C     C_R   0.921022 0.290362 0.065017 -0.184946
C7    C     C_R   0.987094 0.596864 0.850885 -0.201869
C8    C     C_R   0.987434 0.346608 0.158112 -0.207848
C9    C     C_R   0.231903 0.447745 0.825631 -0.285450
C10   C     C_R   0.758020 0.517583 0.173132 -0.277199
C11   C     C_R   0.288697 0.478537 0.923815 0.091293
C12   C     C_R   0.954815 0.205403 0.501644 0.946391
C13   C     C_R   0.678143 0.450259 0.085386 0.094605
C14   C     C_R   0.192628 0.574667 0.985303 0.181195
C15   C     C_R   0.764726 0.338569 0.029262 0.182702
C16   C     C_R   0.445136 0.426961 0.959846 0.064392
C17   C     C_R   0.513271 0.488183 0.053672 0.055028
C18   C     C_3   0.410162 0.287553 0.342544 0.181529
C19   C     C_3   0.502179 0.162993 0.284715 -0.378660
C20   C     C_3   0.406809 0.108759 0.186973 -0.977756
C21   C     C_3   0.595795 0.755229 0.636529 0.139498
C22   C     C_3   0.496419 0.732679 0.728458 -0.360820
C23   C     C_R   0.411604 0.580019 0.114265 -0.253543
C24   C     C_3   0.560413 0.850954 0.813426 -0.987684
C25   C     C_R   0.535661 0.316694 0.905170 -0.235723
C26   C     C_R   0.253351 0.620660 0.080726 -0.223455
C27   C     C_R   0.692297 0.273230 0.939709 -0.224113
C28   C     C_2   0.068347 0.958321 0.495708 -0.385482
C29   C     C_2   0.931226 0.041378 0.501261 -0.398788
C30   C     C_R   0.061978 0.509097 0.682275 0.833825
H1    H     H_    0.179975 0.691819 0.129106 0.150947
H2    H     H_    0.486072 0.256619 0.836787 0.144592
H3    H     H_    0.197690 0.010064 0.490768 0.194701
H4    H     H_    0.801870 0.989605 0.505443 0.184113
H5    H     H_    0.406526 0.393017 0.299378 0.128684
H6    H     H_    0.278710 0.238763 0.352774 0.164338
H7    H     H_    0.632569 0.211870 0.270573 0.238065
H8    H     H_    0.514006 0.059802 0.328879 0.230091
H9    H     H_    0.278651 0.053038 0.199616 0.255583
H10   H     H_    0.479373 0.021220 0.146323 0.278120
H11   H     H_    0.392470 0.209606 0.141397 0.276002
H12   H     H_    0.756425 0.186945 0.896352 0.149129
H13   H     H_    0.613651 0.882771 0.626246 0.143081
H14   H     H_    0.723467 0.714549 0.647744 0.171512
H15   H     H_    0.359505 0.748289 0.712054 0.249097
H16   H     H_    0.509556 0.611836 0.750774 0.220145
H17   H     H_    0.699720 0.848656 0.828356 0.253412
H18   H     H_    0.494482 0.822394 0.880610 0.283390
H19   H     H_    0.532391 0.971202 0.795579 0.264045
H20   H     H_    0.706006 0.611771 0.215551 0.149141
H21   H     H_    0.304237 0.383226 0.774088 0.153248
H22   H     H_    0.099969 0.299026 0.188793 0.150759
H23   H     H_    0.873110 0.644499 0.822543 0.153156
H24   H     H_    0.962150 0.697062 0.996763 0.140447
H25   H     H_    0.987351 0.204078 0.023074 0.138948
H26   H     H_    0.448091 0.619347 0.189350 0.153792
N1    N     N_2   0.440860 0.456490 0.474790 0.174741
N2    N     N_2   0.559140 0.543510 0.525210 0.176788
O1    O     O_R   0.891570 0.738930 0.506190 -0.636360
O2    O     O_3   0.501360 0.683743 0.552994 -0.555145
O3    O     O_R   0.108430 0.261070 0.493810 -0.629441
O4    O     O_R   0.174650 0.711050 0.490030 -0.571465
O5    O     O_R   0.825350 0.288950 0.509970 -0.575066
O6    O     O_R   0.909850 0.521900 0.644940 -0.653253
O7    O     O_R   0.090150 0.478100 0.355060 -0.656845
O8    O     O_R   0.192930 0.494020 0.628780 -0.604148
O9    O     O_R   0.807070 0.505980 0.371220 -0.589206
O10   O     O_3   0.498858 0.324435 0.433935 -0.558246
Zn1   Zn    Zn3+2 0.810990 0.518620 0.510790 0.999520
Zn2   Zn    Zn3+2 0.189010 0.481380 0.489210 0.996134

loop_
_geom_bond_atom_site_label_1
_geom_bond_atom_site_label_2
_ccdc_geom_bond_type
O3    Zn2   S    
C1    C28   S    
C2    C4    S    
N2    Zn1   S    
C3    C9    A    
C19   H8    S    
C30   O6    A    
N1    Zn2   S    
C25   C27   A    
C21   H14   S    
C18   H5    S    
C8    H22   S    
C15   C27   A    
C19   C20   S    
C9    H21   S    
C13   C17   A    
C6    H25   S    
C4    C8    A    
C2    O7    A    
C1    O4    A    
C12   O5    A    
C25   H2    S    
C13   C15   A    
C20   H11   S    
C5    C14   A    
C26   H1    S    
O8    Zn2   S    
O6    Zn1   S    
C14   C26   A    
C12   O3    A    
C9    C11   A    
C27   H12   S    
N1    N2    D    
C17   C23   A    
C18   H6    S    
O1    Zn1   S    
C24   H19   S    
C3    C30   S    
C28   C29   D    
C30   O8    A    
C28   H3    S    
C2    O9    A    
C3    C7    A    
C1    O1    A    
C20   H10   S    
C11   C14   A    
C22   C24   S    
C7    H23   S    
N1    O10   S    
N2    O2    S    
O7    Zn2   S    
C10   H20   S    
C5    H24   S    
C23   H26   S    
C22   H15   S    
O4    Zn2   S    
C21   O2    S    
C18   C19   S    
C11   C16   A    
C23   C26   A    
C16   C25   A    
C5    C7    A    
C20   H9    S    
C6    C8    A    
C19   H7    S    
C22   H16   S    
C6    C15   A    
C21   C22   S    
C24   H17   S    
C18   O10   S    
C29   H4    S    
C10   C13   A    
C21   H13   S    
O5    Zn1   S    
C4    C10   A    
C16   C17   A    
O9    Zn1   S    
C12   C29   S    
C24   H18   S    
