data_mof_unit_30155.cif
_audit_creation_date              2012-10-26T19:58:22-0400
_audit_creation_method            fapswitch 2.2
_symmetry_space_group_name_H-M    P1
_symmetry_Int_Tables_number       1
_space_group_crystal_system       triclinic
_cell_length_a                    7.46992
_cell_length_b                    8.70679
_cell_length_c                    13.494024
_cell_angle_alpha                 94.73829
_cell_angle_beta                  78.368024
_cell_angle_gamma                 103.118722
_cell_volume                      836.555030358

loop_
_atom_site_label
_atom_site_type_symbol
_atom_type_description
_atom_site_fract_x
_atom_site_fract_y
_atom_site_fract_z
_atom_type_partial_charge
C1    C     C_R   0.545250 0.800056 0.502495 0.548106
C2    C     C_R   0.347777 0.421685 0.798597 -0.067460
C3    C     C_2   0.567702 0.967882 0.506151 -0.116602
C4    C     C_R   0.400623 0.471070 0.691894 0.534969
C5    C     C_2   0.435832 0.033106 0.484208 0.313130
C6    C     C_R   0.456454 0.200241 0.494072 0.549973
C7    C     C_R   0.599132 0.508526 0.306829 0.546731
C8    C     C_R   0.875010 0.620983 0.050033 -0.109961
C9    C     C_R   0.654018 0.517519 0.197322 0.026533
C10   C     C_R   0.159697 0.359623 0.838433 -0.118966
C11   C     C_R   0.101379 0.335386 0.941552 0.347376
C12   C     C_R   0.422003 0.430439 0.969249 -0.071233
C13   C     C_R   0.227806 0.381415 0.007063 -0.075550
C14   C     C_3   0.964572 0.755520 0.633247 0.016731
C15   C     C_3   0.418768 0.182280 0.164193 -0.081558
C16   C     C_R   0.483041 0.438312 0.862790 0.002168
C17   C     C_R   0.558847 0.476413 0.032792 0.041440
C18   C     C_R   0.743670 0.553777 0.989301 0.002506
C19   C     C_R   0.802078 0.545449 0.885207 -0.069265
C20   C     C_R   0.678268 0.465156 0.825564 0.407087
C21   C     C_R   0.523682 0.443551 0.136398 0.278200
C22   C     C_R   0.828394 0.606631 0.154072 -0.160049
Cu1   Cu    Cu3+1 0.321300 0.483160 0.488710 1.118176
Cu2   Cu    Cu3+1 0.678700 0.516840 0.511290 1.043114
F1    F     F_    0.283242 0.947060 0.449198 -0.646104
F2    F     F_    0.918680 0.274408 0.979242 -0.646208
F3    F     F_    0.751678 0.388654 0.740657 -0.597654
H1    H     H_    0.929375 0.662807 0.200532 0.142879
H2    H     H_    0.052577 0.824072 0.685768 0.089585
H3    H     H_    0.295525 0.091953 0.197522 0.160098
H4    H     H_    0.534949 0.179199 0.203846 0.136656
H5    H     H_    0.456843 0.149528 0.082348 0.151115
H6    H     H_    0.996595 0.395852 0.412801 0.203619
H7    H     H_    0.948537 0.583519 0.851531 0.127200
H8    H     H_    0.014968 0.682022 0.016694 0.114993
H9    H     H_    0.056861 0.332598 0.789846 0.207323
H10   H     H_    0.168279 0.380998 0.086638 0.202326
H11   H     H_    0.692797 0.038846 0.529854 0.102053
H12   H     H_    0.817466 0.740593 0.673231 0.134150
H13   H     H_    0.991670 0.826321 0.564974 0.193451
N1    N     N_2   0.947230 0.542220 0.528320 0.075233
N2    N     N_2   0.052770 0.457780 0.471680 -0.166201
O1    O     O_R   0.383920 0.714220 0.492660 -0.408610
O2    O     O_3   0.370030 0.330908 0.178033 -0.590908
O3    O     O_R   0.685730 0.742660 0.511730 -0.556484
O4    O     O_R   0.275440 0.478800 0.636790 -0.458670
O5    O     O_R   0.577250 0.507240 0.655860 -0.450150
O6    O     O_R   0.314270 0.257340 0.488270 -0.471695
O7    O     O_R   0.616080 0.285780 0.507340 -0.541268
O8    O     O_R   0.422750 0.492760 0.344140 -0.464561
O9    O     O_R   0.724560 0.521200 0.363210 -0.545277
O10   O     O_3   0.015986 0.609543 0.610275 -0.402490

loop_
_geom_bond_atom_site_label_1
_geom_bond_atom_site_label_2
_ccdc_geom_bond_type
C12   C17   A    
C8    C22   A    
Cu1   Cu2   S    
C15   H4    S    
C20   F3    S    
C21   O2    S    
C2    C16   A    
N1    N2    D    
C8    H8    S    
N1    O10   S    
C2    C4    S    
C19   C20   A    
C16   C20   A    
C1    O3    A    
Cu2   O9    S    
C17   C18   A    
C7    O9    A    
C15   H5    S    
Cu1   O4    S    
C4    O4    A    
Cu2   N1    S    
C11   C13   A    
C9    C21   A    
Cu1   N2    S    
C6    O6    A    
C5    F1    S    
Cu2   O3    S    
C14   O10   S    
C10   H9    S    
C15   O2    S    
C6    O7    A    
C5    C6    S    
C17   C21   A    
C9    C22   A    
C10   C11   A    
H6    N2    S    
C14   H2    S    
C14   H13   S    
C2    C10   A    
Cu1   O1    S    
C12   C13   A    
C7    O8    A    
C15   H3    S    
C18   C19   A    
Cu2   O7    S    
C7    C9    S    
C4    O5    A    
Cu1   O8    S    
C22   H1    S    
Cu1   O6    S    
C11   F2    S    
C3    C5    D    
C14   H12   S    
Cu2   O5    S    
C13   H10   S    
C1    O1    A    
C8    C18   A    
C12   C16   A    
C3    H11   S    
C1    C3    S    
C19   H7    S    
