data_mof_unit_20833.cif
_audit_creation_date              2012-12-10T17:45:35-0500
_audit_creation_method            fapswitch 2.2
_symmetry_space_group_name_H-M    P1
_symmetry_Int_Tables_number       1
_space_group_crystal_system       triclinic
_cell_length_a                    11.547528
_cell_length_b                    10.730226
_cell_length_c                    9.897275
_cell_angle_alpha                 89.294405
_cell_angle_beta                  89.9386
_cell_angle_gamma                 91.668084
_cell_volume                      1225.73354935

loop_
_atom_site_label
_atom_site_type_symbol
_atom_type_description
_atom_site_fract_x
_atom_site_fract_y
_atom_site_fract_z
_atom_type_partial_charge
C1    C     C_R   0.506511 0.259776 0.501930 0.865518
C2    C     C_R   0.472517 0.871176 0.500753 -0.129108
C3    C     C_R   0.347280 0.337093 0.142144 -0.184908
C4    C     C_R   0.281964 0.499594 0.500074 0.882819
C5    C     C_R   0.270908 0.256576 0.073403 0.228730
C6    C     C_R   0.272574 0.256872 0.932857 -0.266800
C7    C     C_R   0.347697 0.337367 0.861962 -0.188332
C8    C     C_R   0.424778 0.419842 0.928742 0.151700
C9    C     C_R   0.424705 0.419795 0.073268 0.114979
C10   C     C_R   0.571511 0.577245 0.070427 -0.114019
C11   C     C_R   0.571464 0.577232 0.927207 -0.112538
C12   C     C_R   0.480256 0.044007 0.878013 -0.148737
C13   C     C_R   0.488097 0.738832 0.499745 0.880024
C14   C     C_R   0.718044 0.500205 0.499929 0.913426
C15   C     C_1   0.161514 0.499368 0.500195 -0.197823
C16   C     C_1   0.059348 0.499205 0.500053 -0.001943
C17   C     C_1   0.940688 0.499311 0.499842 -0.000463
C18   C     C_1   0.838520 0.499680 0.499799 -0.196033
C19   C     C_R   0.518743 0.107159 0.761616 -0.164119
C20   C     C_3   0.115791 0.226199 0.238441 -0.773272
C21   C     C_R   0.419544 0.930998 0.867108 -0.159053
C22   C     C_R   0.408025 0.875472 0.741193 -0.151483
C23   C     C_R   0.456880 0.933685 0.624135 0.099912
C24   C     C_R   0.495922 0.057866 0.631386 0.094884
C25   C     C_R   0.509979 0.125697 0.507506 -0.122259
C26   C     C_R   0.508989 0.064195 0.383764 -0.208242
C27   C     C_R   0.494701 0.937303 0.380902 -0.211170
H1    H     H_    0.521176 0.113750 0.288482 0.170517
H2    H     H_    0.629861 0.640349 0.123388 0.144707
H3    H     H_    0.344585 0.331307 0.249094 0.216452
H4    H     H_    0.157128 0.103077 0.086715 0.224997
H5    H     H_    0.059794 0.151728 0.285460 0.236583
H6    H     H_    0.059855 0.292655 0.183861 0.245763
H7    H     H_    0.162820 0.274977 0.320889 0.240075
H8    H     H_    0.215451 0.194114 0.877430 0.154624
H9    H     H_    0.343620 0.330986 0.754929 0.221228
H10   H     H_    0.629738 0.640383 0.872369 0.153331
H11   H     H_    0.569653 0.191686 0.776836 0.172478
H12   H     H_    0.495603 0.084137 0.976474 0.141615
H13   H     H_    0.384927 0.884296 0.956596 0.141530
H14   H     H_    0.360494 0.787258 0.736376 0.161320
H15   H     H_    0.503393 0.891056 0.284837 0.168870
N1    N     N_R   0.498930 0.498800 0.142780 -0.112571
N2    N     N_R   0.498900 0.498720 0.857170 -0.120158
N3    N     N_2   0.196008 0.171097 0.145515 -0.308039
O1    O     O_R   0.500000 0.316780 0.614690 -0.653857
O2    O     O_R   0.499990 0.316750 0.385360 -0.639532
O3    O     O_R   0.334450 0.500030 0.614670 -0.633931
O4    O     O_R   0.334440 0.500000 0.385330 -0.628833
O5    O     O_R   0.500010 0.683250 0.614640 -0.623389
O6    O     O_R   0.500000 0.683220 0.385310 -0.618671
O7    O     O_R   0.665560 0.500000 0.614670 -0.610050
O8    O     O_R   0.665550 0.499970 0.385330 -0.607818
Zn1   Zn    Zn3+2 0.500010 0.500020 0.653130 0.925906
Zn2   Zn    Zn3+2 0.499990 0.499980 0.346870 0.935161

loop_
_geom_bond_atom_site_label_1
_geom_bond_atom_site_label_2
_ccdc_geom_bond_type
C3    H3    S    
O3    Zn1   S    
C23   C24   A    
C6    C7    A    
C3    C9    A    
C19   H11   S    
C7    H9    S    
C14   C18   S    
C26   H1    S    
C20   N3    S    
C10   H2    S    
C4    O4    A    
C2    C27   A    
C20   H7    S    
O1    Zn1   S    
C12   H12   S    
C19   C24   A    
C25   C26   A    
C7    C8    A    
O4    Zn2   S    
C21   C22   A    
C24   C25   A    
C1    C25   S    
C27   H15   S    
C26   C27   A    
O5    Zn1   S    
C21   H13   S    
C4    C15   S    
C20   H6    S    
C12   C19   A    
N1    Zn2   S    
O7    Zn1   S    
C17   C18   T    
O6    Zn2   S    
O8    Zn2   S    
C4    O3    A    
C5    C6    A    
C1    O1    A    
C9    N1    A    
C22   H14   S    
C16   C17   S    
C10   C11   A    
H4    N3    S    
C13   O5    A    
N2    Zn1   S    
C11   N2    A    
C14   O8    A    
C6    H8    S    
O2    Zn2   S    
C20   H5    S    
C2    C23   A    
C11   H10   S    
C2    C13   S    
C22   C23   A    
C1    O2    A    
C10   N1    A    
C13   O6    A    
C5    N3    S    
C12   C21   A    
C15   C16   T    
C14   O7    A    
C8    N2    A    
C8    C9    A    
C3    C5    A    
