data_mof_unit_24528.cif
_audit_creation_date              2012-12-11T15:53:35-0500
_audit_creation_method            fapswitch 2.2
_symmetry_space_group_name_H-M    P1
_symmetry_Int_Tables_number       1
_space_group_crystal_system       triclinic
_cell_length_a                    6.928993
_cell_length_b                    14.51591
_cell_length_c                    15.980235
_cell_angle_alpha                 90.509242
_cell_angle_beta                  89.705031
_cell_angle_gamma                 90.107883
_cell_volume                      1607.21474814

loop_
_atom_site_label
_atom_site_type_symbol
_atom_type_description
_atom_site_fract_x
_atom_site_fract_y
_atom_site_fract_z
_atom_type_partial_charge
O1    O     O_R   0.361600 0.167310 0.164620 -0.512323
O2    O     O_R   0.638400 0.832690 0.835380 -0.512323
O3    O     O_R   0.691080 0.157570 0.338750 -0.552665
O4    O     O_R   0.308920 0.842430 0.661250 -0.552665
O5    O     O_R   0.861410 0.336420 0.339360 -0.552868
O6    O     O_R   0.138590 0.663580 0.660640 -0.552868
C1    C     C_R   0.521741 0.135162 0.367427 0.676884
C2    C     C_R   0.478259 0.864837 0.632573 0.676883
O7    O     O_R   0.691320 0.156280 0.165240 -0.508445
O8    O     O_R   0.308680 0.843720 0.834760 -0.508445
O9    O     O_R   0.861640 0.335130 0.164600 -0.520088
O10   O     O_R   0.138360 0.664870 0.835400 -0.520088
C3    C     C_R   0.522599 0.133792 0.136274 0.890516
C4    C     C_R   0.477401 0.866208 0.863725 0.890521
O11   O     O_R   0.361370 0.168600 0.339370 -0.545132
O12   O     O_R   0.638630 0.831400 0.660630 -0.545132
O13   O     O_3   0.527990 0.310540 0.251980 -0.377116
O14   O     O_3   0.472010 0.689460 0.748020 -0.377115
V1    V     V_3+5 0.802830 0.240980 0.251990 1.562692
V2    V     V_3+5 0.197170 0.759020 0.748010 1.562692
O15   O     O_R   0.191360 0.346160 0.165220 -0.532192
O16   O     O_R   0.808640 0.653840 0.834780 -0.532189
C5    C     C_R   0.023727 0.366934 0.135102 0.744826
C6    C     C_R   0.976273 0.633066 0.864898 0.744828
O17   O     O_R   0.191130 0.347440 0.338740 -0.552758
O18   O     O_R   0.808870 0.652560 0.661260 -0.552758
C7    C     C_R   0.021876 0.369649 0.367632 0.643111
C8    C     C_R   0.978124 0.630351 0.632368 0.643110
V3    V     V_3+5 0.302840 0.262750 0.251990 1.538697
V4    V     V_3+5 0.697160 0.737250 0.748010 1.538699
O19   O     O_3   0.027820 0.193180 0.251990 -0.349372
O20   O     O_3   0.972180 0.806820 0.748010 -0.349372
C9    C     C_3   0.821174 0.472882 0.479212 -0.118133
C10   C     C_3   0.178826 0.527117 0.520788 -0.118133
C11   C     C_3   0.913917 0.461250 0.566490 -0.135372
C12   C     C_3   0.086083 0.538750 0.433510 -0.135372
H1    H     H_    0.842768 0.429728 0.621684 0.121419
H2    H     H_    0.157231 0.570272 0.378316 0.121419
H3    H     H_    0.673294 0.450416 0.461871 0.111698
H4    H     H_    0.326706 0.549584 0.538129 0.111698
C13   C     C_3   0.989825 0.560777 0.562119 -0.004941
C14   C     C_3   0.010175 0.439223 0.437881 -0.004940
C15   C     C_3   0.897169 0.573215 0.475627 -0.138278
C16   C     C_3   0.102831 0.426785 0.524373 -0.138278
H5    H     H_    0.812005 0.633942 0.456008 0.113422
H6    H     H_    0.187995 0.366057 0.543992 0.113422
C17   C     C_R   0.844246 0.562302 0.999454 0.011336
C18   C     C_R   0.155753 0.437699 0.000547 0.011340
C19   C     C_R   0.862736 0.498048 0.064128 -0.134296
C20   C     C_R   0.137264 0.501952 0.935873 -0.134304
H7    H     H_    0.756116 0.497541 0.114064 0.145654
H8    H     H_    0.243884 0.502459 0.885937 0.145649
C21   C     C_R   0.016323 0.435092 0.065891 -0.123069
C22   C     C_R   0.983676 0.564908 0.934110 -0.123068
C23   C     C_R   0.679431 0.026682 0.467937 -0.139313
C24   C     C_R   0.320569 0.973318 0.532063 -0.139313
H9    H     H_    0.820206 0.046155 0.444201 0.121573
H10   H     H_    0.179794 0.953845 0.555799 0.121573
C25   C     C_R   0.668877 0.961569 0.531803 -0.126067
C26   C     C_R   0.331123 0.038431 0.468197 -0.126067
H11   H     H_    0.801870 0.932822 0.555327 0.121159
H12   H     H_    0.198130 0.067177 0.444673 0.121159
C27   C     C_R   0.489310 0.934031 0.564725 -0.035164
C28   C     C_R   0.510690 0.065968 0.435275 -0.035164
C29   C     C_R   0.636193 0.072061 0.996717 0.321768
C30   C     C_R   0.363807 0.927939 0.003283 0.321770
C31   C     C_R   0.623440 0.007974 0.930212 0.336384
C32   C     C_R   0.376560 0.992026 0.069788 0.336385
C33   C     C_R   0.487426 0.935276 0.933012 -0.337007
C34   C     C_R   0.512574 0.064724 0.066988 -0.337006
C35   C     C_2   0.683039 0.628450 0.005649 0.779507
O21   O     O_2   0.550480 0.624891 0.955549 -0.548944
O22   O     O_R   0.678821 0.692212 0.071640 -0.635084
H13   H     H_    0.560868 0.733343 0.070099 0.332683
C36   C     C_2   0.316962 0.371551 0.994353 0.779505
O23   O     O_2   0.449528 0.375118 0.044450 -0.548948
O24   O     O_R   0.321171 0.307781 0.928369 -0.635081
H14   H     H_    0.439127 0.266652 0.929909 0.332681
Cl1   Cl    Cl    0.802902 0.164359 0.989107 -0.549817
Cl2   Cl    Cl    0.197099 0.835641 0.010893 -0.549821
Cl3   Cl    Cl    0.773190 0.022738 0.841167 -0.544884
Cl4   Cl    Cl    0.226810 0.977262 0.158833 -0.544884

loop_
_geom_bond_atom_site_label_1
_geom_bond_atom_site_label_2
_ccdc_geom_bond_type
C30   C32   A    
C29   Cl1   S    
O11   V3    S    
C23   C25   A    
O13   V3    S    
O22   H13   S    
C12   C14   S    
O4    C2    A    
V1    O19   S    
C17   C19   A    
O24   H14   S    
O9    V1    S    
C9    H3    S    
C10   H4    S    
C9    C14   S    
C11   H1    S    
O3    C1    A    
C30   C33   A    
C3    C34   S    
O12   V4    S    
C29   C34   A    
C8    C13   S    
C26   H12   S    
O9    C5    A    
O7    C3    A    
C9    C11   S    
O5    C7    A    
O7    V1    S    
O6    C8    A    
O8    V2    S    
C29   C31   A    
C20   H8    S    
O3    V1    S    
O14   V4    S    
C10   C12   S    
C18   C20   A    
C2    O12   A    
C13   C15   S    
C18   C36   S    
C10   C13   S    
C14   C16   S    
C11   C13   S    
C16   H6    S    
C5    C21   S    
O15   C5    A    
O17   V3    S    
C18   C21   A    
C25   H11   S    
C9    C15   S    
C10   C16   S    
O8    C4    A    
C35   O22   S    
C19   H7    S    
O15   V3    S    
C24   C26   A    
C31   C33   A    
C36   O23   D    
C36   O24   S    
C23   C28   A    
O10   V2    S    
O1    V3    S    
C24   C27   A    
C20   C22   A    
C11   C16   S    
C15   H5    S    
C17   C35   S    
C17   C22   A    
O18   V4    S    
C23   H9    S    
C4    C33   S    
O16   C6    A    
O1    C3    A    
O6    V2    S    
V2    O20   S    
O16   V4    S    
C25   C27   A    
C31   Cl3   S    
O5    V1    S    
O17   C7    A    
C30   Cl2   S    
O10   C6    A    
O18   C8    A    
O2    V4    S    
C26   C28   A    
C32   Cl4   S    
C12   H2    S    
C35   O21   D    
V3    O19   S    
V4    O20   S    
C7    C14   S    
C19   C21   A    
C1    O11   A    
O13   V1    S    
C24   H10   S    
O14   V2    S    
O2    C4    A    
C1    C28   S    
C2    C27   S    
O4    V2    S    
C32   C34   A    
C12   C15   S    
C6    C22   S    
