data_mof_unit_63675.cif
_audit_creation_date              2012-12-10T21:27:24-0500
_audit_creation_method            fapswitch 2.2
_symmetry_space_group_name_H-M    P1
_symmetry_Int_Tables_number       1
_space_group_crystal_system       triclinic
_cell_length_a                    10.431114
_cell_length_b                    16.099134
_cell_length_c                    16.829126
_cell_angle_alpha                 87.64964
_cell_angle_beta                  91.122512
_cell_angle_gamma                 104.391707
_cell_volume                      2735.02836069

loop_
_atom_site_label
_atom_site_type_symbol
_atom_type_description
_atom_site_fract_x
_atom_site_fract_y
_atom_site_fract_z
_atom_type_partial_charge
C1    C     C_R   0.495173 0.488111 0.652948 1.080955
C2    C     C_R   0.502095 0.511450 0.346768 1.078394
C3    C     C_R   0.504887 0.408360 0.781207 0.485703
C4    C     C_R   0.476440 0.590173 0.219238 0.512357
C5    C     C_R   0.437603 0.754875 0.460072 -0.048296
C6    C     C_R   0.564762 0.245756 0.538744 -0.051360
C7    C     C_R   0.441436 0.842551 0.462455 -0.277660
C8    C     C_R   0.561238 0.158104 0.536397 -0.276178
C9    C     C_R   0.526869 0.894674 0.516857 0.114169
C10   C     C_R   0.473902 0.105491 0.483173 0.112735
C11   C     C_R   0.605787 0.855876 0.567177 0.512930
C12   C     C_R   0.393039 0.143786 0.433840 0.514845
C13   C     C_R   0.598734 0.767945 0.562811 0.691922
C14   C     C_R   0.399740 0.231655 0.438171 0.702484
C15   C     C_R   0.745547 0.534461 0.497992 0.903725
C16   C     C_R   0.254478 0.466069 0.495604 0.901296
C17   C     C_2   0.886795 0.551036 0.484366 0.121690
C18   C     C_2   0.113150 0.451697 0.482054 0.156139
C19   C     C_2   0.930801 0.506490 0.429043 0.287080
C20   C     C_2   0.068466 0.503206 0.428838 0.295158
C21   C     C_R   0.472876 0.477232 0.738094 -0.542093
C22   C     C_R   0.504918 0.518722 0.260176 -0.547031
C23   C     C_R   0.412174 0.533290 0.776348 0.517112
C24   C     C_R   0.534374 0.452741 0.217289 0.552609
C25   C     C_R   0.390760 0.523402 0.857472 0.543552
C26   C     C_R   0.530327 0.456464 0.135199 0.534533
C27   C     C_R   0.431146 0.457962 0.901105 -0.136978
C28   C     C_R   0.493117 0.525104 0.094589 -0.143688
C29   C     C_R   0.482966 0.398674 0.862519 0.578899
C30   C     C_R   0.471035 0.593084 0.136603 0.576451
H1    H     H_    0.631777 0.285912 0.579524 0.239638
H2    H     H_    0.372424 0.715308 0.418205 0.256244
H3    H     H_    0.626173 0.132249 0.575788 0.250435
H4    H     H_    0.378324 0.868826 0.422076 0.250785
N1    N     N_2   0.433467 0.455469 0.984431 0.045828
N2    N     N_2   0.479781 0.527796 0.011364 0.031815
N3    N     N_R   0.515370 0.719110 0.509820 -0.192867
N4    N     N_R   0.484630 0.280890 0.490180 -0.190191
N5    N     N_2   0.537197 0.984834 0.523160 -0.055284
N6    N     N_2   0.463726 0.015352 0.476921 -0.055199
O1    O     O_R   0.494500 0.421750 0.612630 -0.586975
O2    O     O_R   0.505500 0.578250 0.387370 -0.578707
O3    O     O_R   0.504370 0.562470 0.618930 -0.519591
O4    O     O_R   0.495630 0.437530 0.381070 -0.516241
O5    O     O_R   0.679100 0.455920 0.498020 -0.601892
O6    O     O_R   0.320900 0.544080 0.501980 -0.600578
O7    O     O_R   0.688960 0.596630 0.504320 -0.559554
O8    O     O_R   0.311040 0.403370 0.495680 -0.561373
Zn1   Zn    Zn3+2 0.493410 0.406040 0.495790 1.123217
Zn2   Zn    Zn3+2 0.506590 0.593960 0.504210 1.124904
Cl1   Cl    Cl    0.170786 0.569423 0.356870 -0.474585
Cl2   Cl    Cl    0.827087 0.446811 0.356265 -0.420386
F1    F     F_    0.675829 0.731464 0.611658 -0.542268
F2    F     F_    0.320989 0.267724 0.390185 -0.548205
Cl3   Cl    Cl    0.005571 0.374268 0.543247 -0.485327
Cl4   Cl    Cl    0.995686 0.621841 0.547248 -0.434163
F3    F     F_    0.567164 0.384212 0.254302 -0.497675
F4    F     F_    0.372485 0.597168 0.735411 -0.526193
F5    F     F_    0.563150 0.393105 0.095344 -0.490192
F6    F     F_    0.333495 0.578517 0.894010 -0.497631
F7    F     F_    0.520494 0.334948 0.904899 -0.482725
F8    F     F_    0.439490 0.660710 0.097239 -0.487821
F9    F     F_    0.561935 0.352605 0.745481 -0.552885
F10   F     F_    0.449755 0.655748 0.258702 -0.536343
F11   F     F_    0.689550 0.903309 0.620371 -0.539841
F12   F     F_    0.307700 0.095905 0.381654 -0.539627

loop_
_geom_bond_atom_site_label_1
_geom_bond_atom_site_label_2
_ccdc_geom_bond_type
O4    Zn1   S    
C2    C22   S    
C23   F4    S    
C2    O4    A    
C29   F7    S    
O3    Zn2   S    
C1    C21   S    
C25   F6    S    
C3    F9    S    
C20   Cl1   S    
C4    C22   A    
C26   F5    S    
O6    Zn2   S    
C26   C28   A    
C19   C20   S    
O2    Zn2   S    
C15   O7    A    
C9    C11   A    
C5    H2    S    
C16   O8    A    
C28   C30   A    
C6    H1    S    
C12   F12   S    
C14   F2    S    
N4    Zn1   S    
N3    Zn2   S    
C11   C13   A    
C17   Cl4   S    
C10   C12   A    
C18   Cl3   S    
C2    O2    A    
O1    Zn1   S    
O8    Zn1   S    
C17   C19   D    
C12   C14   A    
O5    Zn1   S    
O7    Zn2   S    
C13   F1    S    
C8    H3    S    
C30   F8    S    
C21   C23   A    
C8    C10   A    
C7    H4    S    
C22   C24   A    
C3    C21   A    
C25   C27   A    
C5    N3    A    
C15   O5    A    
C16   O6    A    
C14   N4    A    
C7    C9    A    
C9    N5    S    
C23   C25   A    
C27   C29   A    
C28   N2    S    
C18   C20   D    
C3    C29   A    
C1    O1    A    
N5    N6    D    
C5    C7    A    
C4    F10   S    
C10   N6    S    
C6    C8    A    
C27   N1    S    
C6    N4    A    
C15   C17   S    
C13   N3    A    
C19   Cl2   S    
C1    O3    A    
C16   C18   S    
C4    C30   A    
C11   F11   S    
C24   C26   A    
C24   F3    S    
N1    N2    D    
