data_mof_unit_14480.cif
_audit_creation_date              2013-03-05T16:19:11-0500
_audit_creation_method            fapswitch 2.2
_symmetry_space_group_name_H-M    P1
_symmetry_Int_Tables_number       1
_space_group_crystal_system       triclinic
_cell_length_a                    36.287397
_cell_length_b                    39.886033
_cell_length_c                    8.624554
_cell_angle_alpha                 90.031823
_cell_angle_beta                  92.538417
_cell_angle_gamma                 90.175813
_cell_volume                      12470.5267084

loop_
_atom_site_label
_atom_site_type_symbol
_atom_site_description
_atom_site_fract_x
_atom_site_fract_y
_atom_site_fract_z
_atom_type_partial_charge
P1    P     P_3+3 0.075650 0.535480 0.098240 0.472358
P2    P     P_3+3 0.075650 0.464520 0.598240 0.483916
P3    P     P_3+3 0.575650 0.035480 0.098240 0.474833
P4    P     P_3+3 0.575650 0.964520 0.598240 0.473764
O1    O     O_2   0.072110 0.546320 0.923350 -0.350139
O2    O     O_2   0.072110 0.453680 0.423350 -0.347380
O3    O     O_2   0.572110 0.046320 0.923350 -0.352026
O4    O     O_2   0.572110 0.953680 0.423350 -0.353278
O5    O     O_3   0.042000 0.516250 0.155330 -0.423459
O6    O     O_3   0.042000 0.483750 0.655330 -0.402994
O7    O     O_3   0.542000 0.016250 0.155330 -0.421475
O8    O     O_3   0.542000 0.983750 0.655330 -0.401808
O9    O     O_3   0.012540 0.574900 0.645500 -0.393134
O10   O     O_3   0.012540 0.425100 0.145500 -0.391608
O11   O     O_3   0.512540 0.074900 0.645500 -0.398503
O12   O     O_3   0.512540 0.925100 0.145500 -0.396794
O13   O     O_2   0.072192 0.599938 0.784162 -0.379540
O14   O     O_2   0.080241 0.404770 0.230099 -0.317233
O15   O     O_2   0.570820 0.101572 0.790513 -0.383078
O16   O     O_2   0.579940 0.905030 0.231059 -0.316089
O17   O     O_3   0.115598 0.510945 0.112277 -0.553413
O18   O     O_3   0.114453 0.490665 0.608062 -0.570197
O19   O     O_3   0.615399 0.010669 0.111647 -0.553771
O20   O     O_3   0.615094 0.989801 0.609263 -0.566527
O21   O     O_3   0.033250 0.644719 0.652708 -0.528689
O22   O     O_3   0.030412 0.357353 0.200853 -0.461059
O23   O     O_3   0.533896 0.144707 0.633982 -0.517557
O24   O     O_3   0.529910 0.857892 0.208008 -0.488686
C1    C     C_3   0.016023 0.693172 0.508949 -0.926140
C2    C     C_3   0.008211 0.304492 0.098122 -1.040022
C3    C     C_3   0.511168 0.185960 0.455176 -0.915864
C4    C     C_3   0.502890 0.805084 0.131063 -1.045770
H1    H     H_    0.009923 0.705586 0.620164 0.243320
H2    H     H_    0.992096 0.292064 0.187820 0.240743
H3    H     H_    0.512150 0.204284 0.552421 0.259731
H4    H     H_    0.492059 0.797287 0.243837 0.272974
H5    H     H_    0.044733 0.699530 0.481496 0.287417
H6    H     H_    0.037629 0.297824 0.120216 0.285899
H7    H     H_    0.537121 0.187840 0.392908 0.274491
H8    H     H_    0.531597 0.795941 0.128384 0.261262
P5    P     P_3+3 0.924520 0.535770 0.591580 0.476414
P6    P     P_3+3 0.924520 0.464230 0.091580 0.471647
P7    P     P_3+3 0.424520 0.035770 0.591580 0.475219
P8    P     P_3+3 0.424520 0.964230 0.091580 0.470187
P9    P     P_3+3 0.949739 0.602376 0.046815 0.514366
P10   P     P_3+3 0.957143 0.390969 0.563142 0.511556
P11   P     P_3+3 0.449687 0.102437 0.047936 0.512892
P12   P     P_3+3 0.457446 0.890905 0.564574 0.497913
O25   O     O_2   0.928110 0.546600 0.766510 -0.357162
O26   O     O_2   0.928110 0.453400 0.266510 -0.378181
O27   O     O_2   0.428110 0.046600 0.766510 -0.356905
O28   O     O_2   0.428110 0.953400 0.266510 -0.382444
O29   O     O_3   0.987780 0.574950 0.044470 -0.394521
O30   O     O_3   0.987780 0.425050 0.544470 -0.354116
O31   O     O_3   0.487780 0.074950 0.044470 -0.395122
O32   O     O_3   0.487780 0.925050 0.544470 -0.385767
O33   O     O_2   0.932665 0.604652 0.879635 -0.381984
O34   O     O_2   0.923947 0.398047 0.448789 -0.328630
O35   O     O_2   0.431901 0.104325 0.882043 -0.382198
O36   O     O_2   0.424858 0.895599 0.444217 -0.330802
O37   O     O_3   0.884135 0.511715 0.577264 -0.580295
O38   O     O_3   0.888229 0.493611 0.074411 -0.576655
O39   O     O_3   0.384281 0.011493 0.576972 -0.580260
O40   O     O_3   0.388319 0.993694 0.074607 -0.574791
O41   O     O_3   0.967634 0.642705 0.081575 -0.526687
O42   O     O_3   0.978942 0.357086 0.477695 -0.498383
O43   O     O_3   0.466941 0.143052 0.080475 -0.538822
O44   O     O_3   0.480668 0.855422 0.501717 -0.502399
C5    C     C_3   0.002267 0.645547 0.014485 0.457295
C6    C     C_3   0.995244 0.335419 0.589190 0.374326
C7    C     C_3   0.503118 0.144946 0.028647 0.404783
C8    C     C_3   0.514390 0.852912 0.587581 0.480867
H9    H     H_    0.004481 0.629575 0.909617 0.140876
H10   H     H_    0.023231 0.344924 0.623242 0.042452
H11   H     H_    0.505604 0.132418 0.914230 0.160784
H12   H     H_    0.532778 0.874173 0.558812 0.075532
H13   H     H_    0.024340 0.638075 0.101025 0.032849
H14   H     H_    0.978972 0.333070 0.693717 0.057040
H15   H     H_    0.522281 0.132956 0.116166 0.056450
H16   H     H_    0.510108 0.852989 0.714286 -0.045716
C9    C     C_3   0.008643 0.681647 0.961952 -0.393974
C10   C     C_3   0.997978 0.300764 0.513566 -0.314240
C11   C     C_3   0.513810 0.181774 0.009524 -0.405455
C12   C     C_3   0.533827 0.820327 0.546123 -0.361051
H17   H     H_    0.035449 0.683132 0.904782 0.211010
H18   H     H_    0.020252 0.301356 0.429467 0.224171
H19   H     H_    0.497423 0.192765 0.910321 0.215522
H20   H     H_    0.561523 0.819901 0.604709 0.148208
H21   H     H_    0.986390 0.688950 0.876176 0.213192
H22   H     H_    0.971355 0.295097 0.450022 0.218687
H23   H     H_    0.507461 0.195991 0.115553 0.222273
H24   H     H_    0.538505 0.819374 0.420796 0.259986
C13   C     C_3   0.866882 0.495020 0.207159 0.751804
C14   C     C_3   0.882883 0.486504 0.689428 0.674978
C15   C     C_3   0.366871 0.994984 0.207080 0.754962
C16   C     C_3   0.383318 0.986022 0.688118 0.681631
H25   H     H_    0.885041 0.497033 0.312586 0.143936
H26   H     H_    0.904943 0.488477 0.782110 0.121439
H27   H     H_    0.384946 0.996804 0.312778 0.144632
H28   H     H_    0.405668 0.987787 0.779701 0.119216
C17   C     C_3   0.840815 0.464804 0.218051 -1.005922
C18   C     C_3   0.845330 0.488376 0.762216 -0.879427
C19   C     C_3   0.340689 0.964826 0.216775 -1.011273
C20   C     C_3   0.346028 0.987898 0.763094 -0.881094
H29   H     H_    0.856559 0.441556 0.243261 0.279450
H30   H     H_    0.842893 0.512559 0.824690 0.251836
H31   H     H_    0.356337 0.941542 0.242370 0.277707
H32   H     H_    0.343847 0.012014 0.826318 0.252867
H33   H     H_    0.821795 0.468441 0.314089 0.236765
H34   H     H_    0.841969 0.467548 0.845209 0.211137
H35   H     H_    0.321497 0.968450 0.312207 0.237421
H36   H     H_    0.342860 0.966965 0.845659 0.211276
H37   H     H_    0.823816 0.461727 0.108815 0.247353
H38   H     H_    0.822738 0.486833 0.671139 0.243890
H39   H     H_    0.323885 0.961833 0.106993 0.248042
H40   H     H_    0.323161 0.986522 0.673187 0.243373
Ba1   Ba    Ba6+2 0.000060 0.523150 0.844950 1.530653
Ba2   Ba    Ba6+2 0.000060 0.476850 0.344950 1.556820
Ba3   Ba    Ba6+2 0.500060 0.023150 0.844950 1.525212
Ba4   Ba    Ba6+2 0.500060 0.976850 0.344950 1.542050
C21   C     C_3   0.108312 0.479545 0.046930 0.401303
C22   C     C_3   0.108173 0.519380 0.519980 0.437103
C23   C     C_3   0.607883 0.979388 0.045515 0.398476
C24   C     C_3   0.609489 0.018679 0.521890 0.437705
H41   H     H_    0.102427 0.482543 0.920590 0.097955
H42   H     H_    0.096092 0.513102 0.403555 0.116945
H43   H     H_    0.601659 0.982567 0.919499 0.101085
H44   H     H_    0.596786 0.012882 0.405883 0.118330
H45   H     H_    0.085075 0.467197 0.104372 0.128807
H46   H     H_    0.089649 0.536023 0.583373 0.101987
H47   H     H_    0.584789 0.967013 0.103777 0.130984
H48   H     H_    0.591774 0.035629 0.587395 0.097992
C25   C     C_3   0.142266 0.457585 0.071377 -0.906087
C26   C     C_3   0.145139 0.536707 0.499888 -0.976895
C27   C     C_3   0.641845 0.957350 0.067572 -0.894765
C28   C     C_3   0.646880 0.035022 0.499578 -0.983950
H49   H     H_    0.166016 0.468963 0.013555 0.253439
H50   H     H_    0.164945 0.518787 0.451116 0.279895
H51   H     H_    0.665483 0.968866 0.009513 0.253543
H52   H     H_    0.665787 0.016689 0.447888 0.281536
H53   H     H_    0.136827 0.432306 0.021527 0.228870
H54   H     H_    0.142076 0.558145 0.418827 0.220193
H55   H     H_    0.636294 0.932200 0.016490 0.232917
H56   H     H_    0.644104 0.056745 0.419990 0.220131
H57   H     H_    0.149288 0.454933 0.197455 0.273212
H58   H     H_    0.156474 0.545944 0.613827 0.252807
H59   H     H_    0.649115 0.954380 0.193289 0.269962
H60   H     H_    0.659090 0.043626 0.613119 0.251885
O45   O     O_3   0.958050 0.483830 0.034350 -0.382445
O46   O     O_3   0.958050 0.516170 0.534350 -0.407665
O47   O     O_3   0.458050 0.983830 0.034350 -0.381916
O48   O     O_3   0.458050 0.016170 0.534350 -0.407207
P13   P     P_3+3 0.047019 0.394718 0.120931 0.529249
P14   P     P_3+3 0.049322 0.603677 0.630558 0.456643
P15   P     P_3+3 0.546690 0.894555 0.123013 0.516437
P16   P     P_3+3 0.549777 0.103206 0.631489 0.461861
C29   C     C_3   0.011643 0.655175 0.522340 0.738276
C30   C     C_3   0.003470 0.342753 0.097312 0.781439
C31   C     C_3   0.506561 0.150342 0.516243 0.731477
C32   C     C_3   0.501642 0.843289 0.111410 0.742425
H61   H     H_    0.020552 0.643657 0.412400 0.042809
H62   H     H_    0.006253 0.350895 0.974964 -0.027252
H63   H     H_    0.508864 0.133240 0.415813 0.031273
H64   H     H_    0.505373 0.848548 0.986587 -0.008938
H65   H     H_    0.996843 0.703349 0.417371 0.232612
H66   H     H_    0.998894 0.293765 0.984595 0.211709
H67   H     H_    0.487860 0.192531 0.373112 0.234972
H68   H     H_    0.486190 0.792565 0.036937 0.216269
C33   C     C_R   0.830675 0.357109 0.058689 0.543236
C34   C     C_R   0.823356 0.638578 0.523207 0.536480
C35   C     C_R   0.331979 0.855830 0.059737 0.548538
C36   C     C_R   0.323865 0.140000 0.524182 0.545917
O49   O     O_2   0.844788 0.374000 0.163249 -0.570642
O50   O     O_2   0.819345 0.609234 0.558637 -0.599566
O51   O     O_2   0.346023 0.872747 0.164370 -0.569051
O52   O     O_2   0.318859 0.110677 0.557599 -0.600151
N1    N     N_R   0.846832 0.356171 0.915236 -0.165944
N2    N     N_R   0.852385 0.647236 0.431735 -0.157002
N3    N     N_R   0.348136 0.854995 0.916239 -0.163777
N4    N     N_R   0.353533 0.148114 0.435321 -0.155799
C37   C     C_R   0.831075 0.335042 0.802637 0.635090
C38   C     C_R   0.855991 0.680101 0.382862 0.664589
C39   C     C_R   0.332583 0.833691 0.803837 0.651897
C40   C     C_R   0.358819 0.181049 0.390431 0.658927
C41   C     C_2   0.907767 0.364173 0.793945 0.551314
C42   C     C_2   0.888693 0.617130 0.238303 0.510340
C43   C     C_2   0.408301 0.864475 0.792614 0.551666
C44   C     C_2   0.388753 0.117342 0.240437 0.522231
C45   C     C_3   0.942349 0.384861 0.772290 -0.085803
C46   C     C_3   0.916049 0.589628 0.197630 0.032960
C47   C     C_3   0.442612 0.885366 0.772334 -0.044580
C48   C     C_3   0.416209 0.089877 0.199621 0.033578
C49   C     C_1   0.919438 0.425916 0.965063 0.250594
C50   C     C_1   0.918541 0.574079 0.473566 0.286604
C51   C     C_1   0.419371 0.926049 0.964776 0.252733
C52   C     C_1   0.418792 0.074221 0.474751 0.292782
C53   C     C_2   0.887411 0.409308 0.966261 -0.319370
C54   C     C_2   0.895836 0.598485 0.511401 -0.317440
C55   C     C_2   0.387570 0.909018 0.966484 -0.324190
C56   C     C_2   0.395804 0.098391 0.512987 -0.334913
C57   C     C_2   0.880719 0.375796 0.886920 -0.050019
C58   C     C_2   0.879196 0.621622 0.389013 -0.023683
C59   C     C_2   0.381314 0.875473 0.886499 -0.055990
C60   C     C_2   0.379446 0.121845 0.391345 -0.030894
C61   C     C_R   0.789383 0.310783 0.985438 -0.172627
C62   C     C_R   0.800121 0.696141 0.513043 -0.164951
C63   C     C_R   0.290703 0.809530 0.985835 -0.174244
C64   C     C_R   0.303408 0.198511 0.520585 -0.161448
C65   C     C_R   0.798592 0.337488 0.087197 -0.055743
C66   C     C_R   0.798264 0.663341 0.574966 -0.051831
C67   C     C_R   0.299871 0.836192 0.087908 -0.057679
C68   C     C_R   0.299187 0.165239 0.575097 -0.060132
C69   C     C_R   0.776036 0.342859 0.214732 0.254501
C70   C     C_R   0.771239 0.656667 0.685528 0.268382
C71   C     C_R   0.277117 0.841616 0.214863 0.253691
C72   C     C_R   0.269677 0.158437 0.674452 0.264810
C73   C     C_R   0.807512 0.308517 0.844791 -0.250970
C74   C     C_R   0.828229 0.704113 0.410245 -0.257651
C75   C     C_R   0.309048 0.807166 0.845778 -0.249338
C76   C     C_R   0.332590 0.206187 0.422642 -0.251332
C77   C     C_2   0.946231 0.416195 0.873095 -0.135733
C78   C     C_2   0.936035 0.575855 0.342438 -0.151998
C79   C     C_2   0.446145 0.916752 0.871908 -0.158009
C80   C     C_2   0.436490 0.076417 0.344279 -0.158150
H69   H     H_    0.863231 0.422401 0.000890 0.176415
H70   H     H_    0.889703 0.602327 0.631966 0.214694
H71   H     H_    0.363275 0.921685 0.002754 0.177733
H72   H     H_    0.389378 0.101930 0.633426 0.218096
C81   C     C_2   0.064591 0.576624 0.338845 -0.579837
C82   C     C_2   0.066835 0.423785 0.839950 -0.511440
C83   C     C_2   0.565492 0.075858 0.342342 -0.583009
C84   C     C_2   0.566653 0.923166 0.840735 -0.512773
C85   C     C_R   0.210688 0.766652 0.177679 -0.182932
C86   C     C_R   0.230671 0.245820 0.734206 -0.177864
C87   C     C_R   0.710844 0.266965 0.183726 -0.181960
C88   C     C_R   0.725738 0.742556 0.724318 -0.183265
C89   C     C_R   0.237140 0.728962 0.984889 0.137846
C90   C     C_R   0.250193 0.279315 0.512809 0.145498
C91   C     C_R   0.736688 0.229677 0.987636 0.136402
C92   C     C_R   0.742641 0.774327 0.492725 0.135154
C93   C     C_R   0.210920 0.735166 0.098994 0.019989
C94   C     C_R   0.228118 0.275418 0.643235 0.028792
C95   C     C_R   0.711133 0.235463 0.104993 0.018712
C96   C     C_R   0.722442 0.771580 0.628952 0.033975
C97   C     C_R   0.181109 0.772179 0.279937 0.582145
C98   C     C_R   0.212407 0.245723 0.878272 0.590861
C99   C     C_R   0.681833 0.272105 0.289213 0.580007
C100  C     C_R   0.704288 0.742320 0.860663 0.588002
C101  C     C_R   0.151286 0.749081 0.286885 0.136495
C102  C     C_R   0.195571 0.275554 0.932722 0.109982
C103  C     C_R   0.652765 0.248408 0.300909 0.132413
C104  C     C_R   0.687986 0.772184 0.916064 0.129824
C105  C     C_R   0.154793 0.716101 0.226470 -0.187342
C106  C     C_R   0.188150 0.302670 0.828687 -0.196086
C107  C     C_R   0.656696 0.215373 0.241780 -0.182498
C108  C     C_R   0.684476 0.800505 0.816521 -0.200335
C109  C     C_R   0.185248 0.709221 0.135606 -0.117186
C110  C     C_R   0.203088 0.301347 0.681313 -0.115906
C111  C     C_R   0.686194 0.209102 0.144793 -0.113579
C112  C     C_R   0.697998 0.797979 0.666896 -0.116401
C113  C     C_R   0.189650 0.676419 0.077132 -0.014697
C114  C     C_R   0.194256 0.326834 0.573321 -0.019643
C115  C     C_R   0.690346 0.176495 0.083608 -0.013875
C116  C     C_R   0.687466 0.822258 0.555077 -0.030135
C117  C     C_R   0.166370 0.650147 0.123918 0.513758
C118  C     C_R   0.165189 0.349267 0.601864 0.520061
C119  C     C_R   0.667490 0.149910 0.130878 0.521821
C120  C     C_R   0.659166 0.845221 0.587493 0.511231
N5    N     N_R   0.136477 0.656707 0.213267 -0.153762
N6    N     N_R   0.150972 0.351575 0.748751 -0.165243
N7    N     N_R   0.638663 0.155806 0.226984 -0.155855
N8    N     N_R   0.648318 0.849689 0.738953 -0.163230
C121  C     C_R   0.129139 0.689591 0.254120 0.666393
C122  C     C_R   0.166841 0.331529 0.865655 0.652869
C123  C     C_R   0.632161 0.188378 0.275819 0.642483
C124  C     C_R   0.666453 0.830912 0.854519 0.660230
C125  C     C_2   0.104617 0.626230 0.418933 0.549365
C126  C     C_2   0.093445 0.366337 0.884994 0.613797
C127  C     C_2   0.607505 0.123628 0.429551 0.583660
C128  C     C_2   0.593716 0.866116 0.890630 0.583328
C129  C     C_3   0.082087 0.596291 0.471086 0.015248
C130  C     C_3   0.061407 0.390145 0.912495 -0.055791
C131  C     C_3   0.583509 0.094277 0.477541 0.008179
C132  C     C_3   0.561272 0.889585 0.915347 -0.052404
C133  C     C_1   0.080515 0.575727 0.204606 0.350671
C134  C     C_1   0.086661 0.427272 0.717776 0.303203
C135  C     C_1   0.581177 0.075487 0.207450 0.352998
C136  C     C_1   0.585348 0.926300 0.714746 0.282693
C137  C     C_2   0.099504 0.601979 0.155324 -0.288424
C138  C     C_2   0.114756 0.407056 0.692283 -0.222095
C139  C     C_2   0.600329 0.101987 0.161465 -0.296405
C140  C     C_2   0.611726 0.904743 0.681873 -0.226598
C141  C     C_2   0.113068 0.629139 0.266294 -0.041293
C142  C     C_2   0.119843 0.374357 0.780085 -0.080965
C143  C     C_2   0.615198 0.127885 0.276806 -0.057678
C144  C     C_2   0.618010 0.872833 0.775289 -0.094169
O53   O     O_2   0.100262 0.695604 0.315094 -0.613068
O54   O     O_2   0.163035 0.339245 0.000782 -0.542637
O55   O     O_2   0.604933 0.193765 0.349504 -0.588516
O56   O     O_2   0.668395 0.841507 0.987255 -0.555154
C145  C     C_R   0.739421 0.291416 0.151662 0.059673
C146  C     C_R   0.749312 0.715459 0.675102 0.064183
C147  C     C_R   0.239931 0.790660 0.148835 0.059777
C148  C     C_R   0.252164 0.218288 0.677574 0.063748
C149  C     C_R   0.762372 0.286224 0.024287 0.088828
C150  C     C_R   0.773596 0.721031 0.552286 0.101565
C151  C     C_R   0.263317 0.785226 0.023149 0.089227
C152  C     C_R   0.278174 0.224244 0.562567 0.092099
C153  C     C_R   0.759071 0.256424 0.935790 -0.005082
C154  C     C_R   0.771560 0.751356 0.467349 -0.002577
C155  C     C_R   0.259984 0.755461 0.934487 -0.004949
C156  C     C_R   0.278551 0.255648 0.486478 -0.001845
C157  C     C_R   0.746449 0.320941 0.240158 -0.238047
C158  C     C_R   0.750135 0.683089 0.742230 -0.209570
C159  C     C_R   0.247154 0.819981 0.238510 -0.237322
C160  C     C_R   0.247665 0.184834 0.725400 -0.163219
H73   H     H_    0.731485 0.327039 0.339278 0.208286
H74   H     H_    0.733596 0.676427 0.836184 0.209082
H75   H     H_    0.231942 0.826117 0.336955 0.208017
H76   H     H_    0.224977 0.177878 0.793261 0.178260
O57   O     O_2   0.837121 0.339504 0.666074 -0.517896
O58   O     O_2   0.883659 0.688542 0.317088 -0.514848
O59   O     O_2   0.338195 0.838369 0.667026 -0.518690
O60   O     O_2   0.386674 0.188538 0.323718 -0.516096
C161  C     C_R   0.801761 0.280005 0.750291 0.665337
C162  C     C_R   0.828139 0.736069 0.339172 0.691665
C163  C     C_R   0.303080 0.778805 0.750427 0.673888
C164  C     C_R   0.334996 0.238974 0.360730 0.693841
C165  C     C_R   0.240352 0.696035 0.926741 -0.222779
C166  C     C_R   0.242867 0.306673 0.412290 -0.253078
C167  C     C_R   0.739790 0.196864 0.927922 -0.218644
C168  C     C_R   0.732807 0.799813 0.384787 -0.248446
C169  C     C_R   0.217743 0.670245 0.974845 -0.117865
C170  C     C_R   0.214231 0.328990 0.438263 -0.083877
C171  C     C_R   0.717699 0.170822 0.977296 -0.115540
C172  C     C_R   0.704441 0.822252 0.412330 -0.070608
O61   O     O_2   0.173120 0.621336 0.086459 -0.598730
O62   O     O_2   0.152437 0.366247 0.494828 -0.554996
O63   O     O_2   0.673697 0.121373 0.087718 -0.599908
O64   O     O_2   0.644163 0.860732 0.480429 -0.558052
C173  C     C_R   0.778768 0.254095 0.798423 -0.394443
C174  C     C_R   0.799081 0.758281 0.361686 -0.374403
C175  C     C_R   0.279917 0.752973 0.797937 -0.396826
C176  C     C_R   0.307301 0.262444 0.386636 -0.364960
H77   H     H_    0.261573 0.689051 0.849252 0.133920
H78   H     H_    0.257311 0.310046 0.306623 0.140809
H79   H     H_    0.760509 0.190122 0.847723 0.132288
H80   H     H_    0.745148 0.801535 0.273375 0.149112
H81   H     H_    0.222001 0.645340 0.928781 0.162131
H82   H     H_    0.208471 0.348613 0.353869 0.181587
H83   H     H_    0.721856 0.146069 0.929367 0.159256
H84   H     H_    0.696794 0.840448 0.323478 0.199391
H85   H     H_    0.106213 0.603603 0.034758 0.220230
H86   H     H_    0.137358 0.417022 0.628061 0.190659
H87   H     H_    0.605880 0.104898 0.040138 0.219658
H88   H     H_    0.632878 0.913245 0.605963 0.198858
H89   H     H_    0.776187 0.232555 0.723133 0.152122
H90   H     H_    0.799738 0.781833 0.300198 0.153902
H91   H     H_    0.277195 0.731455 0.722509 0.151836
H92   H     H_    0.309908 0.286625 0.331987 0.152372
H93   H     H_    0.047365 0.555948 0.371733 0.176864
H94   H     H_    0.054159 0.445436 0.890219 0.146292
H95   H     H_    0.547752 0.055367 0.372888 0.178050
H96   H     H_    0.554168 0.944939 0.890578 0.149344
C177  C     C_3   0.971090 0.646946 0.545216 -0.929322
H97   H     H_    0.954429 0.652216 0.436888 0.246060
H98   H     H_    0.968098 0.620238 0.574967 0.260387
H99   H     H_    0.960137 0.661870 0.641549 0.251421
C178  C     C_3   0.964603 0.352296 0.144188 -0.766067
H100  H     H_    0.944797 0.348633 0.046178 0.144103
H101  H     H_    0.954730 0.336245 0.238351 0.259347
H102  H     H_    0.963459 0.378979 0.179506 0.279073
C179  C     C_3   0.468565 0.146879 0.583688 -0.893344
H103  H     H_    0.446783 0.151739 0.492267 0.234581
H104  H     H_    0.464974 0.121256 0.629394 0.265606
H105  H     H_    0.465381 0.164935 0.680189 0.247933
C180  C     C_3   0.463541 0.856065 0.154016 -0.735398
H106  H     H_    0.443350 0.851078 0.058153 0.140754
H107  H     H_    0.452937 0.842833 0.255509 0.281122
H108  H     H_    0.463848 0.883311 0.177416 0.270357
C181  C     C_3   0.009485 0.706412 0.096269 -0.848447
H109  H     H_    0.982308 0.706833 0.150471 0.290302
H110  H     H_    0.031514 0.699416 0.183335 0.275658
H111  H     H_    0.015443 0.731955 0.052614 0.248433
C182  C     C_3   0.005684 0.272218 0.627935 -1.045539
H112  H     H_    0.000940 0.247913 0.567328 0.282873
H113  H     H_    0.034817 0.272652 0.671090 0.265667
H114  H     H_    0.987009 0.273376 0.726008 0.267217
C183  C     C_3   0.554786 0.185723 0.981431 -0.903547
H115  H     H_    0.571330 0.174828 0.079705 0.260392
H116  H     H_    0.562068 0.172853 0.873217 0.316193
H117  H     H_    0.561813 0.212728 0.971514 0.265108
C184  C     C_3   0.512033 0.789221 0.590652 -0.915922
H118  H     H_    0.484427 0.789022 0.529747 0.289056
H119  H     H_    0.527154 0.766391 0.556795 0.254953
H120  H     H_    0.508494 0.788411 0.717576 0.237503
C185  C     C_3   0.781532 0.372557 0.322991 -0.838468
H121  H     H_    0.782267 0.396168 0.254971 0.250275
H122  H     H_    0.758908 0.375043 0.404802 0.210984
H123  H     H_    0.807535 0.369656 0.394270 0.305454
C186  C     C_3   0.763427 0.621771 0.745915 -0.882561
H124  H     H_    0.788164 0.610976 0.806204 0.253303
H125  H     H_    0.741100 0.621494 0.829943 0.214997
H126  H     H_    0.754196 0.605281 0.647881 0.271374
C187  C     C_3   0.282746 0.871128 0.324077 -0.837977
H127  H     H_    0.283614 0.894835 0.256822 0.250211
H128  H     H_    0.260129 0.873579 0.405945 0.210755
H129  H     H_    0.308725 0.868017 0.395298 0.306125
C188  C     C_3   0.260036 0.123435 0.727874 -0.875658
H130  H     H_    0.283532 0.112261 0.795891 0.255426
H131  H     H_    0.236128 0.123182 0.803962 0.211807
H132  H     H_    0.252462 0.107440 0.625925 0.269197
O65   O     O_3   0.119268 0.648483 0.528802 -0.578858
C189  C     C_3   0.149367 0.633070 0.608964 -0.196802
H133  H     H_    0.171040 0.625711 0.528138 0.119901
H134  H     H_    0.140447 0.610961 0.676425 0.162550
H135  H     H_    0.161887 0.651381 0.692777 0.174002
O66   O     O_3   0.093465 0.335799 0.961105 -0.555482
C190  C     C_3   0.078748 0.311261 0.858720 -0.322767
H136  H     H_    0.093667 0.309764 0.748995 0.136880
H137  H     H_    0.049130 0.316194 0.833086 0.139220
H138  H     H_    0.081279 0.286425 0.915883 0.185160
O67   O     O_3   0.623666 0.144325 0.542589 -0.571653
C191  C     C_3   0.651630 0.126391 0.624839 -0.199772
H139  H     H_    0.672727 0.116987 0.545696 0.119633
H140  H     H_    0.640083 0.105328 0.691885 0.163721
H141  H     H_    0.665747 0.143632 0.709283 0.178087
O68   O     O_3   0.597585 0.838505 0.987574 -0.549811
C192  C     C_3   0.582898 0.809924 0.911466 -0.285618
H142  H     H_    0.598522 0.803219 0.808279 0.123677
H143  H     H_    0.553257 0.813383 0.879461 0.132128
H144  H     H_    0.585499 0.788324 0.991975 0.179947
C193  C     C_3   0.116231 0.760432 0.361390 -0.793677
H145  H     H_    0.112629 0.746703 0.471688 0.257202
H146  H     H_    0.116007 0.787610 0.388311 0.251914
H147  H     H_    0.092094 0.756219 0.279952 0.250709
C194  C     C_3   0.185406 0.277703 0.100808 -0.782902
H148  H     H_    0.154973 0.278872 0.108663 0.255756
H149  H     H_    0.196054 0.256537 0.172805 0.246913
H150  H     H_    0.198303 0.300280 0.153818 0.262773
C195  C     C_3   0.617670 0.259460 0.376052 -0.781289
H151  H     H_    0.615162 0.246880 0.489923 0.260304
H152  H     H_    0.616509 0.286882 0.396369 0.249180
H153  H     H_    0.593337 0.253639 0.297925 0.248417
C196  C     C_3   0.670906 0.770277 0.073840 -0.793202
H154  H     H_    0.658285 0.793412 0.115573 0.289119
H155  H     H_    0.648566 0.751288 0.071993 0.222221
H156  H     H_    0.692330 0.762543 0.162207 0.244599
O69   O     O_3   0.179258 0.801017 0.367693 -0.626753
C197  C     C_3   0.190673 0.793336 0.522789 -0.320280
H157  H     H_    0.218423 0.781449 0.529928 0.125552
H158  H     H_    0.170468 0.776900 0.579295 0.172468
H159  H     H_    0.192644 0.817025 0.590116 0.186469
O70   O     O_3   0.214582 0.218060 0.975148 -0.611170
C198  C     C_3   0.179471 0.202331 0.975701 -0.324425
H160  H     H_    0.167123 0.198588 0.856243 0.125886
H161  H     H_    0.159846 0.216423 0.045778 0.165531
H162  H     H_    0.182860 0.177200 0.029411 0.183976
O71   O     O_3   0.679567 0.301229 0.374742 -0.627282
C199  C     C_3   0.691497 0.294374 0.530098 -0.316639
H163  H     H_    0.719325 0.282656 0.537122 0.124798
H164  H     H_    0.671595 0.278145 0.589481 0.172818
H165  H     H_    0.693504 0.318400 0.594794 0.185770
O72   O     O_3   0.698124 0.713355 0.943031 -0.621050
C200  C     C_3   0.666584 0.697206 0.874919 -0.316909
H166  H     H_    0.671124 0.689381 0.753373 0.146950
H167  H     H_    0.641607 0.713269 0.876272 0.143007
H168  H     H_    0.660978 0.674259 0.942639 0.186169
O73   O     O_3   0.905589 0.333300 0.719522 -0.555278
C201  C     C_3   0.913153 0.307180 0.826517 -0.190530
H169  H     H_    0.896205 0.308527 0.930539 0.112445
H170  H     H_    0.942701 0.306880 0.863126 0.098619
H171  H     H_    0.906763 0.282944 0.768082 0.199167
O74   O     O_3   0.873553 0.637429 0.122093 -0.553170
C202  C     C_3   0.849145 0.618367 0.026181 -0.188214
H172  H     H_    0.825579 0.608953 0.092308 0.121412
H173  H     H_    0.863215 0.597208 0.969468 0.147373
H174  H     H_    0.838042 0.635055 0.932827 0.183640
O75   O     O_3   0.406071 0.833692 0.718222 -0.537524
C203  C     C_3   0.427845 0.810289 0.802269 -0.190190
H175  H     H_    0.416490 0.805418 0.917853 0.120975
H176  H     H_    0.457071 0.818553 0.814050 0.106146
H177  H     H_    0.427190 0.786244 0.737577 0.188903
O76   O     O_3   0.372889 0.137229 0.124161 -0.554372
C204  C     C_3   0.347950 0.117685 0.032589 -0.184400
H178  H     H_    0.325504 0.107545 0.103176 0.121076
H179  H     H_    0.362054 0.096989 0.972613 0.148472
H180  H     H_    0.335122 0.134077 0.941721 0.182519
O77   O     O_3   0.823331 0.274853 0.624070 -0.589532
C205  C     C_3   0.801061 0.278160 0.487258 -0.114398
H181  H     H_    0.819077 0.278706 0.386662 0.178012
H182  H     H_    0.785547 0.302105 0.487475 0.135051
H183  H     H_    0.781859 0.256544 0.471186 0.093306
O78   O     O_3   0.854247 0.744430 0.233424 -0.574887
C206  C     C_3   0.879247 0.767649 0.303355 -0.137104
H184  H     H_    0.892108 0.757679 0.413546 0.130968
H185  H     H_    0.865701 0.792106 0.324396 0.102525
H186  H     H_    0.901752 0.772259 0.222988 0.170195
O79   O     O_3   0.324309 0.773873 0.622955 -0.582513
C207  C     C_3   0.301616 0.777089 0.487194 -0.112842
H187  H     H_    0.319348 0.778155 0.385769 0.180035
H188  H     H_    0.285564 0.800742 0.488930 0.130623
H189  H     H_    0.282838 0.755173 0.471086 0.093089
O80   O     O_3   0.362410 0.247357 0.261037 -0.573317
C208  C     C_3   0.388691 0.267716 0.341808 -0.140402
H190  H     H_    0.400205 0.255041 0.448289 0.131497
H191  H     H_    0.376840 0.292447 0.371812 0.102251
H192  H     H_    0.411924 0.272444 0.265277 0.171177
C209  C     C_3   0.978565 0.437821 0.837599 -0.601562
H193  H     H_    0.994488 0.449531 0.930502 0.250214
H194  H     H_    0.999765 0.420986 0.797221 0.187084
H195  H     H_    0.969976 0.457773 0.754153 0.236076
C210  C     C_3   0.975442 0.565739 0.333705 -0.655181
H196  H     H_    0.988530 0.556274 0.435499 0.250565
H197  H     H_    0.976994 0.543971 0.254541 0.269886
H198  H     H_    0.992352 0.588033 0.307814 0.191494
C211  C     C_3   0.478601 0.938332 0.837248 -0.591269
H199  H     H_    0.494645 0.949791 0.930552 0.250861
H200  H     H_    0.499776 0.921485 0.796993 0.179510
H201  H     H_    0.470195 0.958321 0.753698 0.238922
C212  C     C_3   0.475278 0.064516 0.332404 -0.636925
H202  H     H_    0.489011 0.055647 0.434384 0.248876
H203  H     H_    0.475453 0.042619 0.253273 0.268711
H204  H     H_    0.492968 0.085804 0.302585 0.181320
C213  C     C_3   0.843556 0.526860 0.198244 -0.986117
H205  H     H_    0.861264 0.548861 0.180205 0.210888
H206  H     H_    0.822805 0.525504 0.099752 0.254918
H207  H     H_    0.829139 0.530571 0.307949 0.256333
C214  C     C_3   0.886820 0.453401 0.606257 -0.910022
H208  H     H_    0.882977 0.431927 0.683801 0.209040
H209  H     H_    0.865927 0.451009 0.509980 0.258956
H210  H     H_    0.914714 0.452893 0.559976 0.277728
C215  C     C_3   0.343694 0.026910 0.198873 -0.987543
H211  H     H_    0.361582 0.048881 0.182980 0.210552
H212  H     H_    0.323185 0.025867 0.099427 0.254690
H213  H     H_    0.329011 0.030401 0.308069 0.255925
C216  C     C_3   0.386768 0.952929 0.603646 -0.917093
H214  H     H_    0.383048 0.931416 0.681223 0.208802
H215  H     H_    0.365469 0.950739 0.508845 0.258351
H216  H     H_    0.414431 0.952086 0.555259 0.279811

loop_
_geom_bond_atom_site_label_1
_geom_bond_atom_site_label_2
_geom_bond_distance
_ccdc_geom_bond_type
C158  H74   1.062879 S    
O71   C199  1.416761 S    
C25   H49   1.110571 S    
C17   H37   1.109529 S    
N6    C122  1.392750 Am   
C206  H184  1.114170 S    
P5    O37   1.748876 S    
C28   H52   1.110823 S    
C203  H175  1.112380 S    
C106  C122  1.432282 A    
P7    O39   1.749418 S    
O31   Ba3   2.738244 S    
C194  H148  1.110542 S    
P8    O40   1.766579 S    
C10   C182  1.525203 S    
C115  C119  1.415469 A    
P9    O33   1.546734 D    
C150  C154  1.414838 A    
C34   N2    1.386687 Am   
C109  C113  1.413984 A    
C111  C115  1.414259 A    
C185  H122  1.110588 S    
C34   O50   1.219729 D    
C15   H27   1.101422 S    
C1    H5    1.107269 S    
C1    H1    1.110467 S    
C92   C96   1.416178 A    
C200  H168  1.109141 S    
C99   O71   1.380340 S    
C2    H6    1.109216 S    
P11   O43   1.752933 S    
C180  H108  1.105156 S    
C83   H95   1.078792 S    
C189  H135  1.109342 S    
C9    C181  1.521182 S    
C20   H40   1.111524 S    
O72   C200  1.416097 S    
C30   C178  1.533331 S    
C6    H10   1.110158 S    
C127  C131  1.525224 S    
P4    O8    1.542838 S    
N5    C141  1.472778 S    
C112  C116  1.408752 A    
C50   C78   1.323025 D    
C178  H102  1.108278 S    
C189  H134  1.111956 S    
C94   C110  1.426234 A    
C43   O75   1.385509 S    
P5    O25   1.568833 D    
C164  C176  1.400578 A    
C41   O73   1.388717 S    
C148  C160  1.408019 A    
C26   H58   1.110599 S    
C78   C210  1.492098 S    
O3    Ba3   2.823965 S    
C190  H138  1.108992 S    
C179  H105  1.110450 S    
C13   C17   1.535269 S    
C209  H194  1.091168 S    
O37   C14   1.397773 S    
C195  H153  1.110621 S    
C119  O63   1.222034 D    
O73   C201  1.411639 S    
O39   C16   1.398597 S    
C65   C69   1.416415 A    
C216  H216  1.104635 S    
C42   C46   1.532603 S    
Ba2   O45   3.036283 S    
C27   H51   1.110573 S    
C18   H38   1.111523 S    
C202  H173  1.111954 S    
C37   O57   1.220613 D    
C145  C149  1.423078 A    
C64   C68   1.418297 A    
C193  H147  1.110484 S    
C72   C188  1.515168 S    
C14   C214  1.512411 S    
C140  H88   1.084378 S    
C87   C95   1.428203 A    
C52   C80   1.322908 D    
C3    H67   1.110622 S    
C201  H170  1.104322 S    
O26   Ba2   2.824365 S    
C215  H212  1.111053 S    
C181  H109  1.110107 S    
C63   C151  1.433066 A    
C177  H99   1.110296 S    
C25   H57   1.110963 S    
C205  H181  1.109386 S    
C92   C168  1.414599 A    
C203  H177  1.108958 S    
C47   C79   1.519587 S    
C91   C153  1.423090 A    
O80   C208  1.410662 S    
C71   C187  1.514877 S    
C194  H150  1.103142 S    
O23   P16   1.754839 S    
C82   C130  1.496956 S    
C39   C75   1.414829 A    
O21   P14   1.752643 S    
C25   H53   1.109595 S    
C12   H20   1.104890 S    
P16   C131  1.879933 S    
C71   C159  1.408000 A    
C26   H50   1.110835 S    
N2    C38   1.384765 Am   
C11   H23   1.108925 S    
C184  H118  1.110324 S    
C146  C150  1.424646 A    
P2    O18   1.748595 S    
C85   C97   1.436532 A    
O74   C202  1.406099 S    
C211  H199  1.073246 S    
C127  C143  1.369211 D    
C169  H81   1.083701 S    
C138  H86   1.084421 S    
O22   C30   1.418091 S    
C196  H154  1.098913 S    
C6    C10   1.533440 S    
O9    P14   1.766792 S    
Ba3   O47   2.767772 S    
C156  C176  1.407638 A    
P11   O35   1.545286 D    
C149  C153  1.414093 A    
C40   C76   1.420318 A    
C14   C18   1.527387 S    
O38   C13   1.411628 S    
C80   C212  1.494566 S    
C198  H161  1.108413 S    
P8    Ba4   3.464410 S    
C108  C124  1.424580 A    
Ba1   O45   2.767772 S    
C188  H130  1.108155 S    
C177  H97   1.110661 S    
C32   C180  1.534723 S    
P7    O48   1.547189 S    
C100  C104  1.423325 A    
C182  H113  1.105203 S    
C197  H158  1.110820 S    
C38   O58   1.221387 D    
P6    C49   1.881118 S    
C88   C100  1.438671 A    
C5    H13   1.111849 S    
C190  H136  1.112511 S    
C96   C112  1.426046 A    
C7    H15   1.112640 S    
C186  H124  1.105812 S    
O42   C6    1.405376 S    
C192  H142  1.109185 S    
C61   C73   1.408292 A    
C4    H4    1.109350 S    
C83   C131  1.501778 S    
C70   C158  1.404934 A    
O29   Ba1   2.738244 S    
C46   C78   1.520024 S    
C197  H159  1.109214 S    
C1    H65   1.107406 S    
C126  C142  1.383394 D    
C133  C137  1.331887 D    
O24   C32   1.416191 S    
C207  H187  1.109400 S    
C24   H48   1.106306 S    
P11   C48   1.891017 S    
C22   C26   1.523822 S    
P12   C47   1.906398 S    
C128  C132  1.528584 S    
C62   C150  1.435603 A    
O25   Ba1   2.829918 S    
C120  N8    1.392402 Am   
C54   C58   1.509480 S    
C183  H117  1.110387 S    
O27   Ba3   2.829918 S    
O70   C198  1.418634 S    
P6    O38   1.766894 S    
C137  H85   1.080327 S    
P8    O28   1.569516 D    
C27   H55   1.109650 S    
P9    O29   1.764736 S    
C213  H205  1.101235 S    
P10   O34   1.549402 D    
C63   C67   1.409753 A    
O5    Ba2   2.769285 S    
C35   N3    1.393154 Am   
C110  C114  1.407217 A    
C139  H87   1.080571 S    
O7    Ba4   2.769285 S    
C33   N1    1.392900 Am   
O76   C204  1.407840 S    
C15   C19   1.535151 S    
C7    C11   1.529045 S    
C184  H120  1.108284 S    
C208  H191  1.112256 S    
C2    H2    1.106745 S    
C140  C144  1.519126 S    
P3    O7    1.539377 S    
C187  H129  1.109464 S    
C20   H36   1.106665 S    
C201  H169  1.111308 S    
O19   C23   1.392727 S    
C44   C60   1.370876 D    
C23   C27   1.521107 S    
C210  H197  1.107355 S    
C196  H156  1.108905 S    
C21   H41   1.107642 S    
C204  H178  1.113440 S    
C15   C215  1.528159 S    
N6    C142  1.485852 S    
O8    Ba3   2.773548 S    
C62   C66   1.415888 A    
C84   H96   1.078640 S    
C23   H43   1.107650 S    
C34   C66   1.429999 A    
C2    C30   1.536233 S    
C56   C60   1.509137 S    
C214  H208  1.099334 S    
C180  H106  1.097823 S    
P1    Ba1   3.463752 S    
C188  H132  1.110207 S    
C212  H203  1.108326 S    
N7    C143  1.475438 S    
C28   H60   1.110510 S    
P3    Ba3   3.463752 S    
C168  H80   1.080077 S    
C127  O67   1.386123 S    
C191  H139  1.113749 S    
C86   C94   1.418851 A    
C27   H59   1.110954 S    
C37   C73   1.415982 A    
N1    C57   1.485024 S    
C172  H84   1.083507 S    
P10   C45   1.920090 S    
C113  C169  1.399659 A    
C162  C174  1.399314 A    
C13   H25   1.101780 S    
C186  H126  1.110223 S    
C173  H89   1.077983 S    
O68   C192  1.406739 S    
C87   C99   1.436646 A    
C115  C171  1.399585 A    
C192  H144  1.108417 S    
Ba3   O48   3.035153 S    
C97   C101  1.422379 A    
Ba4   O47   3.036283 S    
P13   C130  1.902852 S    
C138  C142  1.516151 S    
C3    C31   1.526693 S    
C7    H11   1.113191 S    
N3    C59   1.484562 S    
P14   C129  1.881137 S    
C201  H171  1.109031 S    
C203  H176  1.109925 S    
C19   H31   1.107258 S    
C41   C45   1.518264 S    
C99   C103  1.421106 A    
C216  H215  1.103189 S    
C73   C161  1.408388 A    
C207  H189  1.111547 S    
C89   C93   1.420937 A    
C44   C48   1.534256 S    
C166  H78   1.079512 S    
C213  H206  1.111072 S    
C8    H16   1.110561 S    
O6    Ba1   2.773548 S    
C76   C164  1.416748 A    
Ba1   Ba2   4.690126 S    
P9    O41   1.753518 S    
C50   C54   1.327114 D    
C55   H71   1.075784 S    
N1    C37   1.388233 Am   
C16   H28   1.108787 S    
C128  C144  1.383836 D    
O11   Ba3   2.737110 S    
C206  H186  1.109282 S    
C31   H63   1.108437 S    
C121  O53   1.217519 D    
C180  H107  1.105388 S    
C147  C159  1.419048 A    
C54   H70   1.083862 S    
P9    C46   1.892805 S    
C148  C152  1.418774 A    
O69   C197  1.416623 S    
C85   C147  1.456819 A    
C213  H207  1.111288 S    
C116  C172  1.400804 A    
C4    H68   1.108932 S    
C165  C169  1.388788 A    
O22   P13   1.758363 S    
C12   H24   1.102205 S    
C195  H152  1.108805 S    
P5    Ba1   3.467205 S    
C9    H17   1.111285 S    
C36   O52   1.219687 D    
P7    Ba3   3.467205 S    
C178  H101  1.105746 S    
P2    O6    1.542838 S    
C102  C106  1.424359 A    
C11   H19   1.111193 S    
O65   C189  1.409429 S    
O16   P15   1.547770 D    
C122  O54   1.219053 D    
C39   O59   1.220580 D    
O75   C203  1.405560 S    
P1    C133  1.852542 S    
P2    Ba2   3.466485 S    
P3    C135  1.858317 S    
C145  C157  1.419251 A    
C51   C55   1.337940 D    
P1    O1    1.569221 D    
C32   H64   1.110973 S    
C190  H137  1.105906 S    
P10   O42   1.747108 S    
C204  H180  1.108359 S    
P3    O3    1.569221 D    
C179  H104  1.105014 S    
C98   C102  1.427828 A    
C209  H193  1.072814 S    
P4    O20   1.747407 S    
C114  C170  1.401447 A    
O43   C7    1.407211 S    
C14   H26   1.108524 S    
C17   H33   1.111100 S    
C100  O72   1.379431 S    
C43   C59   1.370957 D    
C79   C211  1.497530 S    
C214  H210  1.104617 S    
C19   H35   1.111108 S    
C56   H72   1.083869 S    
C41   C57   1.375989 D    
Ba2   O46   2.772043 S    
P6    O45   1.543691 S    
C117  N5    1.383654 Am   
C101  C193  1.520399 S    
C42   C58   1.371197 D    
C176  H92   1.079463 S    
C119  N7    1.383721 Am   
C191  H141  1.109031 S    
C123  O55   1.217787 D    
C193  H146  1.108609 S    
O24   P15   1.755524 S    
N4    C40   1.384910 Am   
C5    H9    1.111952 S    
C164  O80   1.383718 S    
C178  H100  1.094449 S    
C16   C216  1.515505 S    
C52   C56   1.327750 D    
C24   H44   1.106872 S    
C9    H21   1.110388 S    
C36   N4    1.386475 Am   
C49   C77   1.339783 D    
C198  H160  1.114934 S    
C40   O60   1.221400 D    
C215  H211  1.101182 S    
C146  C158  1.415138 A    
C55   C59   1.516843 S    
O15   P16   1.541441 D    
C83   C135  1.317699 D    
C205  H182  1.110182 S    
C84   C136  1.312044 D    
O13   P14   1.539351 D    
C124  O56   1.219108 D    
C194  H149  1.108545 S    
C92   C154  1.419410 A    
C181  H110  1.108660 S    
C11   C183  1.524765 S    
C134  C138  1.327655 D    
C70   C186  1.516691 S    
C107  C123  1.433803 A    
C81   H93   1.078945 S    
C13   C213  1.528471 S    
C48   C80   1.519280 S    
C185  H123  1.109504 S    
C154  C174  1.408295 A    
C24   C28   1.523407 S    
P6    Ba2   3.464410 S    
C1    C29   1.528371 S    
P5    O46   1.547189 S    
P3    O19   1.751360 S    
C10   H18   1.109850 S    
C118  O62   1.220561 D    
C88   C146  1.455117 A    
C205  H183  1.111640 S    
C19   H39   1.109436 S    
C113  C117  1.414124 A    
P5    C50   1.844464 S    
C26   H54   1.107536 S    
C103  C107  1.422449 A    
N8    C124  1.390369 Am   
P10   O30   1.765381 S    
P1    O5    1.539377 S    
C95   C111  1.436795 A    
P12   O44   1.747535 S    
C157  H73   1.061378 S    
N8    C144  1.481997 S    
C189  H133  1.113722 S    
C3    H3    1.111453 S    
C18   H34   1.106846 S    
C97   O69   1.379975 S    
C29   H61   1.114531 S    
C20   H32   1.110210 S    
C211  H200  1.090424 S    
C182  H112  1.110456 S    
C125  C129  1.524443 S    
P8    C51   1.878404 S    
C209  H195  1.109358 S    
C23   H47   1.110615 S    
C21   H45   1.110724 S    
N4    C60   1.470713 S    
C211  H201  1.109321 S    
O9    Ba1   2.737110 S    
Ba3   Ba4   4.690126 S    
C159  H75   1.061894 S    
C10   H22   1.111926 S    
N5    C121  1.387533 Am   
C160  H76   1.067130 S    
C75   C163  1.408705 A    
O12   Ba4   2.737766 S    
C28   H56   1.107756 S    
C105  C121  1.433681 A    
C86   C98   1.433870 A    
C202  H174  1.107769 S    
P7    O27   1.568833 D    
C170  H82   1.083630 S    
O41   C5    1.410886 S    
C89   C165  1.412583 A    
C207  H188  1.110682 S    
C151  C155  1.413759 A    
C155  C175  1.412716 A    
C137  C141  1.511835 S    
C5    C9    1.529741 S    
C163  O79   1.384368 S    
C199  H163  1.113249 S    
C215  H213  1.111283 S    
C91   C167  1.412834 A    
C183  H116  1.107482 S    
O18   C22   1.388562 S    
C153  C173  1.413641 A    
C87   C145  1.456856 A    
C185  H121  1.110685 S    
C167  C171  1.388704 A    
C102  C194  1.514055 S    
O2    Ba2   2.829459 S    
C53   H69   1.075925 S    
C64   C76   1.416384 A    
C67   C71   1.417165 A    
P1    O17   1.751268 S    
C6    H14   1.103203 S    
C139  C143  1.515124 S    
P6    O26   1.569516 D    
P4    O4    1.568542 D    
C62   C74   1.416283 A    
N7    C123  1.389608 Am   
C184  H119  1.110167 S    
C120  O64   1.220631 D    
C208  H190  1.114153 S    
P4    C136  1.852325 S    
C93   C109  1.434870 A    
C64   C152  1.434484 A    
C104  C196  1.521874 S    
C12   C184  1.527642 S    
C82   H94   1.079346 S    
C177  H98   1.102025 S    
C126  O66   1.383971 S    
C45   C77   1.524627 S    
C187  H128  1.110584 S    
C136  C140  1.328420 D    
C106  C110  1.404736 A    
O79   C207  1.407451 S    
C108  C112  1.404436 A    
C101  C105  1.422740 A    
O20   C24   1.387348 S    
C210  H196  1.050410 S    
C69   C185  1.515073 S    
P15   C132  1.900332 S    
C196  H155  1.107324 S    
C161  O77   1.384255 S    
C200  H167  1.112007 S    
O67   C191  1.409192 S    
C68   C72   1.426298 A    
C44   O76   1.385193 S    
C103  C195  1.520649 S    
C198  H162  1.109360 S    
C53   C57   1.515314 S    
Ba1   O46   3.035153 S    
C74   C162  1.414622 A    
C81   C129  1.500334 S    
C188  H131  1.110752 S    
O77   C205  1.406794 S    
C43   C47   1.512690 S    
O44   C8    1.405865 S    
P2    C134  1.843512 S    
C182  H114  1.108026 S    
C89   C155  1.421354 A    
C191  H140  1.111562 S    
C197  H157  1.113578 S    
C90   C156  1.424114 A    
C69   C157  1.407259 A    
O32   Ba4   2.737624 S    
P2    O2    1.568542 D    
O12   P15   1.757225 S    
C29   C177  1.528046 S    
C186  H125  1.110693 S    
P12   O36   1.550405 D    
N3    C39   1.388546 Am   
C192  H143  1.107600 S    
C17   H29   1.107252 S    
C107  C111  1.410216 A    
Ba4   O48   2.772043 S    
P8    O47   1.543691 S    
C98   O70   1.384715 S    
C2    H66   1.106971 S    
C118  N6    1.391961 Am   
C202  H172  1.113116 S    
C30   H62   1.112982 S    
C31   C179  1.525915 S    
C147  C151  1.422842 A    
O10   Ba2   2.737766 S    
C216  H214  1.100018 S    
C66   C70   1.422443 A    
C35   O51   1.218952 D    
C61   C149  1.433911 A    
O1    Ba1   2.823965 S    
P7    C52   1.842726 S    
C22   H42   1.105982 S    
C125  O65   1.385595 S    
C171  H83   1.083683 S    
C105  C109  1.410355 A    
C181  H111  1.110266 S    
C35   C67   1.431696 A    
C199  H165  1.109229 S    
C61   C65   1.409711 A    
C116  C120  1.415135 A    
C33   C65   1.431174 A    
C82   C134  1.309160 D    
C200  H166  1.112963 S    
C8    H12   1.112370 S    
C206  H185  1.112092 S    
C8    C12   1.530333 S    
C84   C132  1.502230 S    
C42   O74   1.384463 S    
O11   P16   1.766456 S    
O14   P13   1.548108 D    
C163  C175  1.400576 A    
O28   Ba4   2.824365 S    
C85   C93   1.427381 A    
C166  C170  1.395826 A    
C38   C74   1.419376 A    
N2    C58   1.470860 S    
O10   P13   1.763871 S    
O21   C29   1.406173 S    
C135  C139  1.333372 D    
C90   C166  1.412592 A    
C174  H90   1.079715 S    
O30   Ba2   2.737624 S    
C161  C173  1.400824 A    
O4    Ba4   2.829459 S    
P11   O31   1.768197 S    
O66   C190  1.406016 S    
C212  H202  1.053410 S    
P12   O32   1.761959 S    
O78   C206  1.410730 S    
C208  H192  1.109257 S    
C33   O49   1.218891 D    
C168  C172  1.394293 A    
O40   C15   1.411629 S    
C199  H164  1.110466 S    
C36   C68   1.431093 A    
C114  C118  1.415016 A    
C167  H79   1.078466 S    
C90   C94   1.417890 A    
C63   C75   1.408061 A    
C104  C108  1.421826 A    
C210  H198  1.107305 S    
C88   C96   1.422713 A    
C16   C20   1.527356 S    
C165  H77   1.078855 S    
C204  H179  1.111981 S    
C179  H103  1.109008 S    
C51   C79   1.339313 D    
C195  H151  1.110292 S    
C183  H115  1.106600 S    
C49   C53   1.336387 D    
C214  H209  1.103217 S    
C3    H7    1.106971 S    
C18   H30   1.110262 S    
C187  H127  1.110675 S    
C4    H8    1.105931 S    
O17   C21   1.392889 S    
C128  O68   1.386793 S    
C212  H204  1.100312 S    
C77   C209  1.496772 S    
C175  H91   1.078329 S    
O23   C31   1.406416 S    
C81   C133  1.317146 D    
C152  C156  1.414692 A    
C72   C160  1.405475 A    
C125  C141  1.369755 D    
C91   C95   1.421906 A    
C193  H145  1.110415 S    
C126  C130  1.529851 S    
C117  O61   1.221972 D    
P4    Ba4   3.466485 S    
C162  O78   1.384001 S    
C21   C25   1.521020 S    
C22   H46   1.107381 S    
C86   C148  1.446079 A    
C4    C32   1.533930 S    
