data_mof_unit_66403.cif
_audit_creation_date              2012-12-10T20:16:01-0500
_audit_creation_method            fapswitch 2.2
_symmetry_space_group_name_H-M    P1
_symmetry_Int_Tables_number       1
_space_group_crystal_system       triclinic
_cell_length_a                    16.639616
_cell_length_b                    18.587926
_cell_length_c                    19.011252
_cell_angle_alpha                 88.704584
_cell_angle_beta                  94.629305
_cell_angle_gamma                 85.850769
_cell_volume                      5843.16545836

loop_
_atom_site_label
_atom_site_type_symbol
_atom_type_description
_atom_site_fract_x
_atom_site_fract_y
_atom_site_fract_z
_atom_type_partial_charge
C1    C     C_R   0.498167 0.499538 0.634927 0.830636
C2    C     C_R   0.421302 0.577859 0.797198 -0.189099
C3    C     C_R   0.451337 0.472242 0.246824 -0.246040
C4    C     C_R   0.429126 0.561255 0.727344 -0.201297
C5    C     C_R   0.508659 0.505640 0.289996 -0.065930
C6    C     C_R   0.481415 0.502624 0.709436 -0.084509
C7    C     C_R   0.401381 0.560629 0.031868 -0.193296
C8    C     C_R   0.542311 0.561296 0.961308 -0.195443
C9    C     C_R   0.396336 0.559730 0.958420 -0.184218
C10   C     C_R   0.547489 0.561618 0.034299 -0.186945
C11   C     C_R   0.467298 0.556517 0.923499 0.113309
C12   C     C_R   0.503360 0.500890 0.365739 0.834368
C13   C     C_R   0.477421 0.558016 0.070207 0.118973
C14   C     C_R   0.444859 0.276477 0.456170 0.220721
C15   C     C_R   0.547457 0.724048 0.550060 0.217623
C16   C     C_R   0.653549 0.490371 0.496135 0.842862
C17   C     C_R   0.346585 0.509074 0.504222 0.852403
C18   C     C_R   0.446025 0.200423 0.455671 -0.323339
C19   C     C_R   0.547423 0.800019 0.549581 -0.324382
C20   C     C_R   0.500152 0.157211 0.500929 0.007161
C21   C     C_R   0.497089 0.843009 0.501197 0.010192
C22   C     C_R   0.553976 0.191504 0.547354 0.019525
C23   C     C_R   0.559963 0.554117 0.260610 0.095951
C24   C     C_R   0.448024 0.808622 0.450940 0.012801
C25   C     C_R   0.555656 0.268002 0.544368 0.195188
C26   C     C_R   0.451727 0.731849 0.449398 0.198499
C27   C     C_R   0.566010 0.033207 0.481139 -0.194860
C28   C     C_R   0.430688 0.966878 0.521302 -0.194619
C29   C     C_R   0.565775 0.957583 0.482567 -0.192266
C30   C     C_R   0.430954 0.042564 0.519945 -0.193633
C31   C     C_R   0.497989 0.923535 0.502318 0.137018
C32   C     C_R   0.498858 0.076624 0.500330 0.139084
C33   C     C_R   0.741087 0.481748 0.487036 -0.158494
C34   C     C_R   0.518846 0.454265 0.763109 0.072743
C35   C     C_R   0.260322 0.508267 0.517494 -0.133187
C36   C     C_R   0.795859 0.522536 0.527534 0.069399
C37   C     C_R   0.237987 0.449119 0.558241 0.080401
C38   C     C_R   0.872493 0.490487 0.548037 -0.229193
C39   C     C_R   0.163980 0.421157 0.541180 -0.238667
C40   C     C_R   0.899618 0.425443 0.520375 0.107123
C41   C     C_R   0.108054 0.456066 0.491096 0.117330
C42   C     C_R   0.850614 0.390056 0.471109 0.121756
C43   C     C_R   0.123102 0.523330 0.461464 0.094743
C44   C     C_R   0.771336 0.420220 0.450538 0.032370
C45   C     C_R   0.544264 0.574893 0.189488 -0.195343
C46   C     C_R   0.199384 0.551356 0.476460 0.008370
C47   C     C_2   0.986529 0.407658 0.529520 -0.195852
C48   C     C_2   0.028929 0.427333 0.476301 -0.186341
C49   C     C_3   0.777319 0.600250 0.547884 -0.433615
C50   C     C_3   0.840270 0.650407 0.523908 -0.335019
C51   C     C_3   0.814383 0.729501 0.535360 -0.923483
C52   C     C_3   0.292477 0.413274 0.618913 -0.382601
C53   C     C_3   0.253130 0.420108 0.689081 -0.372095
C54   C     C_3   0.305998 0.380975 0.749473 -0.875185
C55   C     C_3   0.381780 0.316975 0.405492 -0.385500
C56   C     C_R   0.511865 0.473662 0.833461 -0.174402
C57   C     C_3   0.295866 0.307667 0.426445 -0.363268
C58   C     C_3   0.233111 0.353607 0.378579 -0.877362
C59   C     C_3   0.601998 0.684343 0.607759 -0.407763
C60   C     C_3   0.568888 0.694496 0.680220 -0.332485
C61   C     C_3   0.619658 0.648579 0.737450 -0.875832
C62   C     C_3   0.618534 0.300287 0.593635 -0.381168
C63   C     C_3   0.705126 0.283282 0.573224 -0.346378
C64   C     C_3   0.765965 0.322610 0.619681 -0.882060
C65   C     C_3   0.398252 0.699507 0.391906 -0.376202
C66   C     C_3   0.428466 0.708731 0.318353 -0.344470
C67   C     C_R   0.485499 0.542624 0.146521 0.078066
C68   C     C_3   0.373108 0.675232 0.262180 -0.880506
C69   C     C_3   0.212449 0.628769 0.456778 -0.421257
C70   C     C_3   0.213361 0.674472 0.523221 -0.301412
C71   C     C_3   0.222235 0.754081 0.506754 -0.912814
C72   C     C_3   0.718842 0.387925 0.390829 -0.373745
C73   C     C_3   0.757777 0.384390 0.320150 -0.391099
C74   C     C_3   0.695226 0.373647 0.258624 -0.885274
C75   C     C_3   0.630466 0.584302 0.304032 -0.397948
C76   C     C_3   0.708950 0.581358 0.266298 -0.370682
C77   C     C_3   0.781324 0.596848 0.316885 -0.894424
C78   C     C_R   0.465931 0.536010 0.850026 0.074496
C79   C     C_3   0.564660 0.383795 0.745728 -0.435248
C80   C     C_3   0.591648 0.332927 0.810062 -0.358554
C81   C     C_3   0.626972 0.259212 0.789378 -0.894043
C82   C     C_R   0.440467 0.489984 0.175267 -0.170114
H1    H     H_    0.346531 0.559309 0.058758 0.128385
H2    H     H_    0.378488 0.074611 0.535082 0.133459
H3    H     H_    0.997537 0.439516 0.424468 0.172602
H4    H     H_    0.014499 0.403589 0.583265 0.140183
H5    H     H_    0.150163 0.371452 0.566925 0.145683
H6    H     H_    0.913991 0.518674 0.582479 0.146770
H7    H     H_    0.578499 0.615723 0.167032 0.125251
H8    H     H_    0.542727 0.441504 0.876857 0.130104
H9    H     H_    0.396501 0.462820 0.142491 0.134710
H10   H     H_    0.383850 0.625157 0.809829 0.133478
H11   H     H_    0.412408 0.434959 0.269079 0.143252
H12   H     H_    0.597424 0.559309 0.934434 0.132802
H13   H     H_    0.396431 0.596323 0.686732 0.145622
H14   H     H_    0.756162 0.745584 0.504278 0.262039
H15   H     H_    0.807534 0.738411 0.592211 0.261075
H16   H     H_    0.861100 0.764091 0.517851 0.253343
H17   H     H_    0.899766 0.637494 0.553948 0.218091
H18   H     H_    0.847922 0.643235 0.466874 0.233900
H19   H     H_    0.719327 0.622869 0.521978 0.240119
H20   H     H_    0.774870 0.602381 0.606057 0.192613
H21   H     H_    0.315509 0.322638 0.738650 0.257117
H22   H     H_    0.365394 0.404323 0.756431 0.278787
H23   H     H_    0.338076 0.556174 0.929376 0.131258
H24   H     H_    0.275960 0.386853 0.799311 0.247200
H25   H     H_    0.243587 0.478114 0.701559 0.225217
H26   H     H_    0.193452 0.396656 0.685285 0.219331
H27   H     H_    0.305859 0.355434 0.607561 0.196928
H28   H     H_    0.350426 0.438739 0.625691 0.217640
H29   H     H_    0.243128 0.411769 0.383648 0.261089
H30   H     H_    0.236802 0.338513 0.322673 0.253122
H31   H     H_    0.171591 0.344586 0.393957 0.257161
H32   H     H_    0.281931 0.250269 0.422587 0.212160
H33   H     H_    0.291135 0.323723 0.481886 0.238490
H34   H     H_    0.606905 0.559033 0.062445 0.126137
H35   H     H_    0.390060 0.374540 0.401824 0.262223
H36   H     H_    0.387731 0.296388 0.351536 0.169202
H37   H     H_    0.620710 0.590568 0.724583 0.262469
H38   H     H_    0.682602 0.665215 0.742413 0.250300
H39   H     H_    0.593263 0.655829 0.788867 0.255042
H40   H     H_    0.569274 0.752052 0.694749 0.208388
H41   H     H_    0.505441 0.679533 0.678165 0.241173
H42   H     H_    0.611873 0.626800 0.597719 0.255906
H43   H     H_    0.662635 0.705913 0.609174 0.175415
H44   H     H_    0.644565 0.114524 0.576476 0.182178
H45   H     H_    0.404052 0.174605 0.419565 0.156034
H46   H     H_    0.567849 0.119720 0.630399 0.194962
H47   H     H_    0.427344 0.886735 0.373675 0.192931
H48   H     H_    0.351035 0.880376 0.427349 0.187360
H49   H     H_    0.752015 0.381902 0.614340 0.262019
H50   H     H_    0.764841 0.305514 0.675815 0.253384
H51   H     H_    0.827783 0.309381 0.603450 0.259960
H52   H     H_    0.722534 0.224583 0.578389 0.229579
H53   H     H_    0.708974 0.299933 0.517702 0.227175
H54   H     H_    0.607671 0.358396 0.597032 0.256488
H55   H     H_    0.613975 0.278365 0.647372 0.202660
H56   H     H_    0.586252 0.825963 0.588293 0.157401
H57   H     H_    0.369180 0.616992 0.274518 0.267805
H58   H     H_    0.311505 0.703009 0.259454 0.254783
H59   H     H_    0.397503 0.680935 0.209841 0.256868
H60   H     H_    0.431543 0.766519 0.303856 0.232336
H61   H     H_    0.489826 0.682414 0.318271 0.231163
H62   H     H_    0.392355 0.642460 0.402412 0.249696
H63   H     H_    0.336188 0.725903 0.390717 0.193102
H64   H     H_    0.284275 0.762068 0.492630 0.264464
H65   H     H_    0.177657 0.774700 0.463012 0.260807
H66   H     H_    0.211605 0.785835 0.554336 0.246123
H67   H     H_    0.618681 0.057952 0.464754 0.129022
H68   H     H_    0.155655 0.669859 0.548147 0.213450
H69   H     H_    0.263865 0.654005 0.562037 0.226697
H70   H     H_    0.268873 0.630630 0.431035 0.200592
H71   H     H_    0.164921 0.652899 0.417351 0.191101
H72   H     H_    0.666010 0.322555 0.266696 0.265451
H73   H     H_    0.648045 0.419056 0.253678 0.273672
H74   H     H_    0.725368 0.370870 0.208634 0.245993
H75   H     H_    0.788630 0.434154 0.310577 0.235754
H76   H     H_    0.802970 0.337745 0.320604 0.218397
H77   H     H_    0.703535 0.332992 0.405908 0.185467
H78   H     H_    0.377921 0.942063 0.537371 0.131009
H79   H     H_    0.660902 0.421069 0.380692 0.221480
H80   H     H_    0.906834 0.332041 0.397540 0.172379
H81   H     H_    0.837220 0.286456 0.439572 0.178886
H82   H     H_    0.044214 0.611645 0.442092 0.186175
H83   H     H_    0.079511 0.573224 0.368547 0.173685
H84   H     H_    0.771740 0.651275 0.339093 0.264188
H85   H     H_    0.790337 0.555976 0.360798 0.270106
H86   H     H_    0.836850 0.595019 0.288084 0.247611
H87   H     H_    0.720232 0.527801 0.243073 0.234984
H88   H     H_    0.703680 0.622587 0.222657 0.213873
H89   H     H_    0.618193 0.925541 0.467314 0.135356
H90   H     H_    0.614980 0.641330 0.316231 0.193005
H91   H     H_    0.643057 0.553699 0.354905 0.210932
H92   H     H_    0.581466 0.231572 0.755999 0.262353
H93   H     H_    0.681970 0.264856 0.761121 0.263492
H94   H     H_    0.644296 0.225219 0.837762 0.250046
H95   H     H_    0.638506 0.357798 0.844603 0.219897
H96   H     H_    0.538768 0.323857 0.840513 0.227355
H97   H     H_    0.523620 0.354441 0.709501 0.222004
H98   H     H_    0.618640 0.396534 0.718371 0.195701
N1    N     N_R   0.499990 0.310560 0.500020 -0.132154
N2    N     N_R   0.500010 0.689440 0.499980 -0.129462
N3    N     N_3   0.604428 0.149859 0.600715 -0.483433
N4    N     N_3   0.394137 0.850869 0.400504 -0.483733
N5    N     N_3   0.882324 0.322638 0.445434 -0.464555
N6    N     N_3   0.059357 0.562952 0.418212 -0.487326
O1    O     O_R   0.500000 0.439160 0.601820 -0.648391
O2    O     O_R   0.500000 0.560840 0.398180 -0.620975
O3    O     O_R   0.500030 0.560790 0.601820 -0.608615
O4    O     O_R   0.499970 0.439210 0.398180 -0.634976
O5    O     O_R   0.615780 0.432000 0.500010 -0.614443
O6    O     O_R   0.384220 0.568000 0.499990 -0.629316
O7    O     O_R   0.615820 0.553620 0.500010 -0.643123
O8    O     O_R   0.384180 0.446380 0.499990 -0.615958
Zn1   Zn    Zn3+2 0.499980 0.418790 0.500000 0.899936
Zn2   Zn    Zn3+2 0.500020 0.581210 0.500000 0.901750

loop_
_geom_bond_atom_site_label_1
_geom_bond_atom_site_label_2
_ccdc_geom_bond_type
C51   H15   S    
C40   C47   S    
C66   C68   S    
C8    C10   A    
C34   C56   A    
C23   C45   A    
C24   N4    S    
C41   C43   A    
C73   C74   S    
C14   C18   A    
C7    H1    S    
C70   H68   S    
C39   H5    S    
C17   O8    A    
C39   C41   A    
C53   C54   S    
C77   H86   S    
C15   C19   A    
C21   C31   S    
C50   H17   S    
C22   N3    S    
C72   H77   S    
C58   H30   S    
C81   H93   S    
C54   H22   S    
C35   C37   A    
C24   C26   A    
C16   O5    A    
H82   N6    S    
C8    C11   A    
C49   H19   S    
C34   C79   S    
C61   H37   S    
C9    H23   S    
C12   O2    A    
C15   N2    A    
C73   H75   S    
C28   H78   S    
C33   C36   A    
C56   C78   A    
C27   C29   A    
C74   H72   S    
C61   H39   S    
C62   H54   S    
C46   C69   S    
C16   O7    A    
C64   H50   S    
C25   N1    A    
C75   H91   S    
C33   C44   A    
C22   C25   A    
C45   C67   A    
C58   H31   S    
C72   H79   S    
C44   C72   S    
C70   C71   S    
C45   H7    S    
C51   H14   S    
C51   H16   S    
C40   C42   A    
C14   C55   S    
C59   C60   S    
C27   H67   S    
C38   C40   A    
C61   H38   S    
C69   H70   S    
C71   H66   S    
H44   N3    S    
C76   H87   S    
H46   N3    S    
C42   C44   A    
C20   C32   S    
C1    O1    A    
C17   O6    A    
C54   H24   S    
C1    C6    S    
C81   H94   S    
C54   H21   S    
C8    H12   S    
C76   C77   S    
C5    C12   S    
C57   H33   S    
C49   H20   S    
C37   C52   S    
C72   C73   S    
C66   H61   S    
C43   N6    S    
C55   H35   S    
C77   H84   S    
C63   C64   S    
C73   H76   S    
C69   H71   S    
C82   H9    S    
C6    C34   A    
C38   H6    S    
C60   C61   S    
C80   H96   S    
C60   H41   S    
C2    H10   S    
C75   C76   S    
C63   H52   S    
C62   C63   S    
C2    C78   A    
C11   C78   S    
C18   H45   S    
C4    H13   S    
C53   H25   S    
C47   C48   D    
C5    C23   A    
C64   H49   S    
C52   H28   S    
O7    Zn2   S    
C3    C82   A    
C50   C51   S    
C74   H74   S    
C68   H59   S    
C3    H11   S    
C29   H89   S    
C76   H88   S    
C9    C11   A    
C71   H65   S    
O4    Zn1   S    
C26   N2    A    
C42   N5    S    
C4    C6    A    
H47   N4    S    
C20   C22   A    
C49   C50   S    
C55   C57   S    
C79   H97   S    
C68   H58   S    
C77   H85   S    
C65   H63   S    
O6    Zn2   S    
C14   N1    A    
C10   H34   S    
C52   C53   S    
C13   C67   S    
C59   H42   S    
C7    C9    A    
C64   H51   S    
C56   H8    S    
O1    Zn1   S    
C27   C32   A    
C79   H98   S    
C26   C65   S    
C15   C59   S    
C28   C31   A    
C70   H69   S    
C23   C75   S    
C80   C81   S    
C3    C5    A    
C10   C13   A    
H80   N5    S    
C58   H29   S    
C57   H32   S    
C66   H60   S    
C59   H43   S    
C12   O4    A    
C50   H18   S    
H83   N6    S    
H81   N5    S    
C80   H95   S    
C36   C38   A    
C47   H4    S    
C29   C31   A    
C16   C33   S    
H48   N4    S    
C81   H92   S    
C30   C32   A    
O3    Zn2   S    
C57   C58   S    
C52   H27   S    
C19   H56   S    
C53   H26   S    
C2    C4    A    
C28   C30   A    
C41   C48   S    
C74   H73   S    
O8    Zn1   S    
C18   C20   A    
C25   C62   S    
C62   H55   S    
C30   H2    S    
C69   C70   S    
N1    Zn1   S    
C43   C46   A    
O5    Zn1   S    
C79   C80   S    
C60   H40   S    
C7    C13   A    
C71   H64   S    
N2    Zn2   S    
O2    Zn2   S    
C67   C82   A    
C37   C39   A    
C65   C66   S    
C21   C24   A    
C75   H90   S    
C48   H3    S    
C65   H62   S    
C68   H57   S    
C17   C35   S    
C35   C46   A    
C36   C49   S    
C63   H53   S    
C19   C21   A    
C55   H36   S    
C1    O3    A    
