data_mof_unit_67114.cif
_audit_creation_date              2013-03-05T15:58:40-0500
_audit_creation_method            fapswitch 2.2
_symmetry_space_group_name_H-M    P1
_symmetry_Int_Tables_number       1
_space_group_crystal_system       triclinic
_cell_length_a                    8.289466
_cell_length_b                    12.811433
_cell_length_c                    14.938593
_cell_angle_alpha                 97.637781
_cell_angle_beta                  97.127277
_cell_angle_gamma                 98.480166
_cell_volume                      1538.41747344

loop_
_atom_site_label
_atom_site_type_symbol
_atom_site_description
_atom_site_fract_x
_atom_site_fract_y
_atom_site_fract_z
_atom_type_partial_charge
P1    P     P_3+3 0.998770 0.403620 0.291990 0.454005
O1    O     O_2   0.827930 0.435360 0.277760 -0.376006
O2    O     O_3   0.100310 0.439010 0.391180 -0.400805
O3    O     O_3   0.625610 0.634200 0.333270 -0.329828
O4    O     O_2   0.689786 0.550232 0.172320 -0.401739
O5    O     O_3   0.962161 0.264990 0.257749 -0.560853
O6    O     O_3   0.649096 0.747654 0.185941 -0.508024
H1    H     H_    0.671274 0.881977 0.280449 0.120169
C1    C     C_3   0.497279 0.887468 0.161711 -0.888535
H2    H     H_    0.438763 0.950672 0.196602 0.270689
H3    H     H_    0.592975 0.924689 0.124541 0.274218
P2    P     P_3+3 0.687370 0.751000 0.571300 0.535186
P3    P     P_3+3 0.105600 0.827665 0.380562 0.548954
O7    O     O_2   0.857120 0.766320 0.543890 -0.366118
O8    O     O_3   0.056570 0.691100 0.379020 -0.406947
O9    O     O_2   0.984414 0.880492 0.435112 -0.322735
O10   O     O_3   0.726927 0.786310 0.689636 -0.516192
O11   O     O_3   0.051709 0.850094 0.268640 -0.463711
C2    C     C_3   0.069756 0.759027 0.209337 0.370997
H4    H     H_    0.983281 0.687796 0.218842 0.158386
H5    H     H_    0.198743 0.744575 0.219637 0.010020
C3    C     C_3   0.027319 0.775336 0.111604 -0.720047
H6    H     H_    0.034758 0.702499 0.064251 0.193976
H7    H     H_    0.899932 0.792498 0.100881 0.307324
C4    C     C_3   0.339685 0.798196 0.772975 0.925461
H8    H     H_    0.450732 0.759872 0.771386 0.074358
C5    C     C_3   0.302255 0.821561 0.871557 -0.989925
H9    H     H_    0.222977 0.753672 0.889779 0.195728
H10   H     H_    0.417697 0.840656 0.920849 0.295822
H11   H     H_    0.234581 0.889533 0.882070 0.306885
Ba1   Ba    Ba6+2 0.843760 0.550230 0.455610 1.619303
C6    C     C_3   0.869410 0.211652 0.314698 0.375574
H12   H     H_    0.786474 0.261266 0.345641 0.056328
C7    C     C_3   0.763486 0.111645 0.257363 -0.715969
H13   H     H_    0.683572 0.134186 0.200315 0.236801
H14   H     H_    0.685124 0.069030 0.300535 0.179463
H15   H     H_    0.841127 0.056350 0.227862 0.304871
C8    C     C_3   0.780152 0.704070 0.731984 0.195372
H16   H     H_    0.853983 0.657801 0.689560 0.066895
H17   H     H_    0.673030 0.649466 0.746490 0.098966
C9    C     C_3   0.890678 0.755410 0.820604 0.197636
H18   H     H_    0.989978 0.812751 0.802797 0.118118
H19   H     H_    0.942299 0.694062 0.855000 0.015059
P4    P     P_3+3 0.190950 0.596470 0.708020 0.453217
O12   O     O_2   0.361790 0.564680 0.722290 -0.406248
O13   O     O_3   0.089410 0.561080 0.608830 -0.340993
O14   O     O_3   0.564100 0.365890 0.666740 -0.367318
O15   O     O_3   0.204693 0.735674 0.714678 -0.627703
P5    P     P_3+3 0.084065 0.171222 0.623089 0.490888
O16   O     O_3   0.601940 0.368260 0.453780 -0.331393
O17   O     O_3   0.133140 0.308990 0.620990 -0.420894
O18   O     O_2   0.204671 0.118032 0.568123 -0.293179
O19   O     O_3   0.138610 0.144929 0.734032 -0.490774
Ba2   Ba    Ba6+2 0.346080 0.449860 0.544400 1.621047
P6    P     P_3+3 0.577274 0.623288 0.214833 0.467740
C10   C     C_3   0.574313 0.826547 0.231664 0.381580
H20   H     H_    0.477893 0.796286 0.271778 0.015790
H21   H     H_    0.402661 0.831910 0.111552 0.257684
O20   O     O_3   0.587770 0.631830 0.546230 -0.372309
C11   C     C_3   0.373768 0.258290 0.260484 0.211977
H22   H     H_    0.259605 0.264373 0.290658 0.145777
C12   C     C_3   0.329763 0.213773 0.158224 0.064329
H23   H     H_    0.279427 0.274027 0.120552 -0.000140
H24   H     H_    0.442582 0.196752 0.129860 0.093835
P7    P     P_3+3 0.506085 0.232279 0.424666 0.459442
O21   O     O_2   0.332600 0.233710 0.456170 -0.357366
O22   O     O_3   0.467628 0.191979 0.305068 -0.602872
H25   H     H_    0.115208 0.842389 0.097128 0.300098
C13   C     C_3   0.150572 0.239078 0.796259 0.486747
H26   H     H_    0.247109 0.301632 0.782518 0.172622
H27   H     H_    0.031960 0.269390 0.791980 -0.004070
C14   C     C_3   0.196726 0.216760 0.892934 -0.865514
H28   H     H_    0.323993 0.198884 0.902751 0.306611
H29   H     H_    0.189891 0.287633 0.943007 0.189252
H30   H     H_    0.111533 0.147005 0.905996 0.274705
P8    P     P_3+3 0.609373 0.383562 0.785130 0.452709
C15   C     C_3   0.666618 0.191340 0.775601 0.466272
H31   H     H_    0.761062 0.231673 0.739217 -0.017316
O23   O     O_2   0.484357 0.446176 0.826214 -0.403595
O24   O     O_3   0.565020 0.257247 0.815707 -0.522514
H32   H     H_    0.587886 0.129749 0.723257 0.184607
H33   H     H_    0.837230 0.203010 0.899556 0.195435
C16   C     C_3   0.754329 0.140163 0.849342 -0.795161
H34   H     H_    0.828104 0.083417 0.818084 0.258672
H35   H     H_    0.663615 0.097316 0.886117 0.309914
C17   C     C_R   0.354953 0.570523 0.171195 0.133775
H36   H     H_    0.295474 0.565817 0.306966 0.203829
H37   H     H_    0.508189 0.631225 0.033315 0.219955
C18   C     C_R   0.102189 0.474045 0.206950 0.312215
C19   C     C_R   0.921206 0.481445 0.766629 -0.504205
C20   C     C_R   0.822465 0.445246 0.828347 0.254568
C21   C     C_R   0.886184 0.450968 0.920250 -0.292688
C22   C     C_R   0.053060 0.494249 0.953062 0.065748
C23   C     C_R   0.151513 0.537477 0.889798 -0.036575
C24   C     C_R   0.123097 0.500366 0.047476 0.036745
C25   C     C_R   0.288392 0.553675 0.077331 -0.028555
C26   C     C_R   0.382082 0.592040 0.013496 -0.139057
C27   C     C_R   0.315260 0.584745 0.922765 -0.112768
C28   C     C_R   0.036403 0.454431 0.113446 -0.312623
C29   C     C_R   0.252353 0.541997 0.234807 -0.451860
C30   C     C_R   0.082478 0.532741 0.795638 0.177262
H38   H     H_    0.918882 0.402541 0.094149 0.161411
H39   H     H_    0.868895 0.473681 0.695542 0.168889
H40   H     H_    0.802465 0.421360 0.964371 0.159737
H41   H     H_    0.394620 0.620796 0.879735 0.192413
C31   C     C_R   0.766772 0.180223 0.536725 -0.525822
C32   C     C_R   0.418878 0.810132 0.468263 -0.411172
C33   C     C_R   0.388927 0.985397 0.432721 -0.166698
C34   C     C_R   0.322582 0.878549 0.430336 0.236496
C35   C     C_R   0.579898 0.847898 0.513059 0.306994
C36   C     C_R   0.646174 0.959250 0.520063 -0.014133
C37   C     C_R   0.548758 0.028169 0.478506 -0.069308
C38   C     C_R   0.612043 0.138891 0.486203 0.244683
C39   C     C_R   0.867042 0.113638 0.573612 0.194954
C40   C     C_R   0.805137 0.004481 0.567825 -0.094788
H42   H     H_    0.311785 0.034752 0.400684 0.225472
H43   H     H_    0.882570 0.956257 0.600649 0.157679
H44   H     H_    0.814539 0.264505 0.542142 0.151662
H45   H     H_    0.365579 0.727240 0.465684 0.166541
C41   C     C_2   0.984939 0.183484 0.388845 0.497049
H46   H     H_    0.041719 0.245793 0.444525 0.066236
O25   O     O_2   0.016033 0.093152 0.387799 -0.530642
S1    S     S_3+6 0.788454 0.827828 0.899667 -0.067121
O26   O     O_2   0.684668 0.896103 0.853028 -0.271060
O27   O     O_2   0.683815 0.751232 0.945195 -0.374846
O28   O     O_3   0.928886 0.909502 0.977639 -0.480469
H47   H     H_    0.862989 0.942281 0.021131 0.404309
C42   C     C_2   0.472432 0.365930 0.265192 0.420826
H48   H     H_    0.548028 0.381386 0.212962 0.054500
O29   O     O_2   0.465202 0.436988 0.326165 -0.510130
S2    S     S_3+6 0.180523 0.095767 0.133910 -0.013636
O30   O     O_2   0.173316 0.041901 0.216921 -0.226065
O31   O     O_2   0.229168 0.022440 0.058560 -0.272487
O32   O     O_3   0.994684 0.126640 0.099852 -0.511556
H49   H     H_    0.012230 0.172677 0.052563 0.335659
S3    S     S_3+6 0.373543 0.921865 0.728298 0.002179
O33   O     O_2   0.368666 0.016016 0.798982 -0.284226
O34   O     O_2   0.537772 0.936049 0.696013 -0.310301
O35   O     O_3   0.227344 0.919146 0.639078 -0.475355
H50   H     H_    0.123759 0.916579 0.665933 0.355640

loop_
_geom_bond_atom_site_label_1
_geom_bond_atom_site_label_2
_geom_bond_distance
_ccdc_geom_bond_type
O5    C6    1.394177 S    
O28   H47   0.989993 S    
C5    H10   1.107264 S    
C7    H15   1.110037 S    
C32   C34   1.397367 A    
C9    H18   1.102697 S    
C36   C37   1.431331 A    
P8    O23   1.538260 D    
O6    P6    1.745337 S    
O7    Ba1   2.884170 S    
S2    O32   1.681420 S    
O19   C13   1.404502 S    
C42   H48   1.080031 S    
H1    C10   1.109130 S    
P5    O17   1.757223 S    
P2    C35   1.874212 S    
C39   C40   1.404158 A    
S1    O26   1.491945 D    
C15   H31   1.111872 S    
C10   H20   1.112400 S    
O16   Ba2   2.900711 S    
C27   H41   1.074034 S    
P3    O11   1.748652 S    
C18   C28   1.410272 A    
C2    H5    1.107408 S    
O14   P8    1.738898 S    
O11   C2    1.406422 S    
C14   H30   1.108982 S    
C8    H16   1.109501 S    
C7    H13   1.109163 S    
O2    Ba2   2.843184 S    
C24   C28   1.427989 A    
S1    O27   1.500222 D    
C23   C27   1.401473 A    
P1    Ba1   3.379976 S    
C33   C34   1.392007 A    
C11   C12   1.536472 S    
P1    O1    1.527809 D    
Ba1   O20   2.901619 S    
C13   H27   1.106911 S    
C4    S3    1.797473 S    
C35   C36   1.436243 A    
P3    C34   1.845666 S    
P2    O20   1.597612 S    
C24   C25   1.426258 A    
C23   C30   1.441202 A    
C41   O25   1.220731 D    
P7    O22   1.767807 S    
Ba1   O13   2.842577 S    
P2    O10   1.742709 S    
C12   H24   1.111586 S    
C17   C29   1.400404 A    
C1    H2    1.108602 S    
H37   C26   1.077662 S    
P5    C39   1.860281 S    
C22   C24   1.444468 A    
C31   H44   1.082568 S    
C5    H11   1.107823 S    
C9    H19   1.103094 S    
O6    C10   1.406685 S    
C6    C41   1.489698 S    
S3    O35   1.679498 S    
C32   H45   1.082120 S    
C37   C38   1.422247 A    
P4    O13   1.583991 S    
C26   C27   1.384698 A    
Ba2   O20   2.835762 S    
C31   C38   1.395837 A    
P1    O5    1.751892 S    
C11   C42   1.484200 S    
C2    C3    1.508087 S    
C11   O22   1.409752 S    
C8    C9    1.521346 S    
S3    O34   1.494062 D    
C20   C21   1.396817 A    
S3    O33   1.502645 D    
S1    O28   1.669443 S    
C18   C29   1.391431 A    
C40   H43   1.074027 S    
C4    H8    1.106617 S    
C33   C37   1.408855 A    
C11   H22   1.105933 S    
P1    O2    1.583990 S    
C6    C7    1.528396 S    
C13   C14   1.522743 S    
C19   C30   1.388625 A    
C12   H23   1.113065 S    
C16   H34   1.110099 S    
C15   H32   1.103397 S    
P4    C30   1.883592 S    
P5    O18   1.547251 D    
C25   C26   1.396394 A    
O13   Ba2   2.919138 S    
C1    C10   1.518943 S    
O2    Ba1   2.918304 S    
C1    H3    1.110457 S    
C4    O15   1.400217 S    
C3    H25   1.104265 S    
C17   C25   1.417612 A    
O14   Ba2   2.835493 S    
C14   H29   1.110102 S    
C16   H35   1.108832 S    
C31   C39   1.393788 A    
O12   Ba2   2.839233 S    
P7    O21   1.569517 D    
P3    O8    1.733213 S    
P2    Ba1   3.411921 S    
C32   C35   1.401901 A    
C3    H7    1.106766 S    
Ba1   O16   2.836392 S    
S2    O30   1.500420 D    
C41   H46   1.079887 S    
H36   C29   1.080575 S    
C15   O24   1.407718 S    
C1    H21   1.109507 S    
P1    C18   1.873412 S    
P7    C38   1.857402 S    
C12   S2    1.771696 S    
O4    P6    1.547789 D    
P4    O12   1.528115 D    
P8    O24   1.739352 S    
P2    O7    1.506356 D    
C14   H28   1.108477 S    
S2    O31   1.501809 D    
C42   O29   1.212947 D    
O35   H50   0.989945 S    
O8    Ba1   2.790863 S    
O32   H49   0.989460 S    
Ba2   O21   2.884459 S    
C4    C5    1.542161 S    
C22   C23   1.436369 A    
O17   Ba2   2.791496 S    
C6    H12   1.104527 S    
C9    S1    1.778411 S    
C2    H4    1.110654 S    
O3    P6    1.747071 S    
C8    H17   1.108916 S    
C33   H42   1.077748 S    
C19   C20   1.387100 A    
P6    C17   1.869648 S    
P5    O19   1.752723 S    
C21   C22   1.412278 A    
C7    H14   1.108563 S    
O10   C8    1.396408 S    
Ba1   Ba2   4.547445 S    
C13   H26   1.104587 S    
O16   P7    1.777656 S    
C19   H39   1.081935 S    
O3    Ba1   2.836152 S    
C21   H40   1.078081 S    
P8    C20   1.825168 S    
P4    Ba2   3.380523 S    
C28   H38   1.078164 S    
H33   C16   1.109761 S    
P3    O9    1.545425 D    
C5    H9    1.095984 S    
C15   C16   1.518509 S    
C3    H6    1.107830 S    
O1    Ba1   2.838823 S    
C36   C40   1.418745 A    
P4    O15   1.758841 S    
