data_mof_unit_66531.cif
_audit_creation_date              2012-10-26T21:25:50-0400
_audit_creation_method            fapswitch 2.2
_symmetry_space_group_name_H-M    P1
_symmetry_Int_Tables_number       1
_space_group_crystal_system       triclinic
_cell_length_a                    10.901211
_cell_length_b                    10.821532
_cell_length_c                    12.771575
_cell_angle_alpha                 92.945862
_cell_angle_beta                  91.625702
_cell_angle_gamma                 90.249724
_cell_volume                      1504.01253011

loop_
_atom_site_label
_atom_site_type_symbol
_atom_type_description
_atom_site_fract_x
_atom_site_fract_y
_atom_site_fract_z
_atom_type_partial_charge
C1    C     C_R   0.261784 0.500023 0.501842 0.533655
C2    C     C_R   0.855736 0.565232 0.238100 -0.054906
C3    C     C_R   0.120299 0.532903 0.703475 0.068897
C4    C     C_R   0.877414 0.461714 0.297464 0.061254
C5    C     C_R   0.120635 0.643322 0.768954 0.030870
C6    C     C_R   0.855026 0.341392 0.251551 0.038049
C7    C     C_R   0.170901 0.640202 0.871381 -0.088098
C8    C     C_R   0.812329 0.328280 0.146631 -0.079747
C9    C     C_R   0.212044 0.529547 0.910660 -0.094944
C10   C     C_R   0.793858 0.432264 0.087915 -0.093923
C11   C     C_R   0.935464 0.525147 0.591468 -0.165535
C12   C     C_R   0.737919 0.501002 0.498181 0.537551
C13   C     C_R   0.063370 0.480316 0.408399 -0.163353
C14   C     C_R   0.871308 0.503486 0.495783 -0.016369
C15   C     C_R   0.127810 0.500845 0.504219 -0.021212
C16   C     C_R   0.503699 0.262120 0.500529 0.540405
C17   C     C_R   0.498122 0.737848 0.499212 0.536546
C18   C     C_R   0.936321 0.481865 0.402770 -0.044991
C19   C     C_R   0.062429 0.524019 0.597274 -0.040312
C20   C     C_2   0.490814 0.451565 0.032902 -0.050407
C21   C     C_2   0.515596 0.546250 0.967941 -0.048014
C22   C     C_1   0.518101 0.528142 0.852196 0.140279
C23   C     C_R   0.497729 0.871399 0.497375 -0.010148
C24   C     C_1   0.484612 0.470944 0.148083 0.135818
C25   C     C_R   0.841475 0.240694 0.705071 -0.125956
C26   C     C_R   0.159066 0.758113 0.303536 -0.074058
C27   C     C_R   0.754710 0.194020 0.630694 -0.133908
C28   C     C_R   0.253213 0.800221 0.372401 -0.150150
C29   C     C_R   0.651283 0.128835 0.661561 0.036217
C30   C     C_R   0.350771 0.870544 0.337668 0.030666
C31   C     C_R   0.634760 0.112390 0.769951 0.214614
C32   C     C_R   0.356815 0.891872 0.229040 0.227174
C33   C     C_R   0.723721 0.157967 0.843299 -0.011091
C34   C     C_R   0.506343 0.128369 0.500951 -0.011294
C35   C     C_R   0.261217 0.849131 0.160545 -0.068165
C36   C     C_R   0.826685 0.222248 0.812137 0.208328
C37   C     C_R   0.160596 0.784290 0.197890 0.212619
C38   C     C_R   0.565727 0.937367 0.576149 -0.152443
C39   C     C_R   0.439352 0.062235 0.421403 -0.156759
C40   C     C_3   0.064942 0.763570 0.734968 -0.256882
C41   C     C_3   0.135012 0.817426 0.645593 -0.290256
C42   C     C_3   0.105256 0.953763 0.633575 -0.460872
C43   C     C_3   0.878961 0.226486 0.311076 -0.255005
C44   C     C_3   0.001915 0.168743 0.280797 -0.296403
C45   C     C_R   0.434360 0.933765 0.417927 -0.036040
C46   C     C_3   0.034267 0.061705 0.349260 -0.448585
C47   C     C_3   0.535239 0.678585 0.012364 -0.251923
C48   C     C_3   0.629447 0.750255 0.950619 -0.295275
C49   C     C_3   0.672024 0.869447 0.009953 -0.419472
C50   C     C_3   0.475525 0.318006 0.990835 -0.253388
C51   C     C_3   0.373113 0.249459 0.045831 -0.296807
C52   C     C_3   0.341504 0.124874 0.990054 -0.403945
C53   C     C_R   0.570989 0.065707 0.579279 -0.036990
C54   C     C_R   0.208667 0.421329 0.846720 -0.127015
C55   C     C_R   0.815368 0.550348 0.133762 -0.092894
C56   C     C_R   0.164414 0.422988 0.743773 -0.088259
Cu1   Cu    Cu3+1 0.492140 0.492110 0.395880 0.974074
Cu2   Cu    Cu3+1 0.507860 0.507890 0.604120 0.974508
H1    H     H_    0.176558 0.723421 0.921762 0.087521
H2    H     H_    0.265220 0.866928 0.078088 0.097507
H3    H     H_    0.617353 0.888358 0.634774 0.147926
H4    H     H_    0.386824 0.111288 0.363377 0.149100
H5    H     H_    0.245831 0.527920 0.991012 0.133035
H6    H     H_    0.762830 0.421362 0.006724 0.150453
H7    H     H_    0.238155 0.334982 0.876558 0.115099
H8    H     H_    0.802713 0.630765 0.088301 0.131095
H9    H     H_    0.161385 0.337311 0.695883 0.098846
H10   H     H_    0.873029 0.657654 0.272019 0.124316
H11   H     H_    0.976916 0.309876 0.853691 0.328836
H12   H     H_    0.795106 0.237194 0.109864 0.119071
H13   H     H_    0.069371 0.785529 0.065605 0.309381
H14   H     H_    0.005671 0.965405 0.616064 0.157206
H15   H     H_    0.131544 0.009263 0.706421 0.155741
H16   H     H_    0.158042 0.988847 0.568090 0.141159
H17   H     H_    0.235673 0.808152 0.659646 0.180357
H18   H     H_    0.107508 0.765498 0.571643 0.158576
H19   H     H_    0.967256 0.748503 0.710479 0.137503
H20   H     H_    0.065016 0.832710 0.802553 0.137781
H21   H     H_    0.036128 0.093417 0.433358 0.145103
H22   H     H_    0.966356 0.985299 0.335827 0.163117
H23   H     H_    0.886629 0.539570 0.663865 0.142378
H24   H     H_    0.126630 0.026970 0.329302 0.156097
H25   H     H_    0.997463 0.134406 0.197204 0.172275
H26   H     H_    0.076156 0.239415 0.290657 0.167807
H27   H     H_    0.879718 0.248716 0.396833 0.142530
H28   H     H_    0.803329 0.158465 0.293954 0.137098
H29   H     H_    0.593852 0.933532 0.020330 0.209100
H30   H     H_    0.712622 0.849470 0.087982 0.151523
H31   H     H_    0.742926 0.915253 0.964469 0.148035
H32   H     H_    0.710966 0.691777 0.934509 0.153965
H33   H     H_    0.587681 0.774339 0.873911 0.193586
H34   H     H_    0.111939 0.463565 0.336141 0.149576
H35   H     H_    0.445968 0.727595 0.009432 0.158128
H36   H     H_    0.567119 0.679397 0.095765 0.165863
H37   H     H_    0.263688 0.082088 0.029401 0.145497
H38   H     H_    0.314143 0.136139 0.906748 0.152948
H39   H     H_    0.421477 0.062248 0.993595 0.220776
H40   H     H_    0.403226 0.232552 0.127764 0.191553
H41   H     H_    0.288956 0.306789 0.049584 0.156722
H42   H     H_    0.456726 0.312403 0.904874 0.170484
H43   H     H_    0.563261 0.269523 0.005481 0.144741
H44   H     H_    0.469214 0.044468 0.752322 0.330664
H45   H     H_    0.921432 0.288557 0.678963 0.103053
H46   H     H_    0.522749 0.959433 0.238101 0.329391
H47   H     H_    0.081984 0.709440 0.333448 0.131141
H48   H     H_    0.769857 0.205625 0.548437 0.100806
H49   H     H_    0.248435 0.781806 0.454133 0.104303
H50   H     H_    0.712920 0.142910 0.925641 0.124436
N1    N     N_1   0.480320 0.480250 0.239400 -0.199749
N2    N     N_1   0.519680 0.519750 0.760600 -0.198365
O1    O     O_R   0.313000 0.493330 0.412070 -0.505397
O2    O     O_3   0.062090 0.746961 0.133808 -0.729314
O3    O     O_3   0.534849 0.051545 0.807453 -0.757081
O4    O     O_3   0.452760 0.954379 0.186956 -0.756039
O5    O     O_R   0.687000 0.506670 0.587930 -0.505724
O6    O     O_R   0.326280 0.506660 0.587930 -0.488452
O7    O     O_R   0.673720 0.493340 0.412070 -0.492662
O8    O     O_R   0.493370 0.312980 0.412070 -0.506109
O9    O     O_R   0.506630 0.687020 0.587930 -0.508660
O10   O     O_R   0.506650 0.326310 0.587930 -0.488743
O11   O     O_R   0.493350 0.673690 0.412070 -0.487831
O12   O     O_3   0.911374 0.264525 0.887924 -0.734803

loop_
_geom_bond_atom_site_label_1
_geom_bond_atom_site_label_2
_ccdc_geom_bond_type
C46   H22   S    
C23   C45   A    
C27   C29   A    
C41   C42   S    
C49   H29   S    
C30   C45   S    
C2    C4    A    
C44   H25   S    
C9    H5    S    
C54   H7    S    
C11   H23   S    
C15   C19   A    
C11   C19   A    
C17   C23   S    
C13   C18   A    
C35   C37   A    
C2    H10   S    
C2    C55   A    
C16   O10   A    
C46   H21   S    
C11   C14   A    
C28   H49   S    
C52   H39   S    
C33   C36   A    
C52   H37   S    
C14   C18   A    
C37   O2    S    
C20   C50   S    
C16   C34   S    
C46   H24   S    
Cu1   N1    S    
C20   C24   S    
C22   N2    T    
C48   H33   S    
C31   C33   A    
C3    C19   S    
C1    C15   S    
C1    O6    A    
C39   C45   A    
C12   O5    A    
C4    C18   S    
C51   H40   S    
C48   H32   S    
C21   C22   S    
Cu2   O6    S    
C49   H30   S    
C33   H50   S    
C26   H47   S    
C7    H1    S    
C44   C46   S    
C51   H41   S    
C54   C56   A    
C42   H16   S    
C51   C52   S    
C43   H27   S    
C32   C35   A    
C4    C6    A    
C5    C7    A    
C25   H45   S    
C6    C8    A    
C27   H48   S    
C3    C5    A    
C34   C39   A    
C35   H2    S    
C36   O12   S    
C43   C44   S    
C16   O8    A    
C41   H17   S    
C3    C56   A    
C47   C48   S    
H13   O2    S    
C42   H14   S    
C50   C51   S    
C47   H35   S    
C10   C55   A    
C50   H43   S    
H46   O4    S    
C17   O11   A    
C48   C49   S    
C12   C14   S    
C6    C43   S    
C13   C15   A    
C13   H34   S    
Cu2   O5    S    
C40   H20   S    
Cu2   O10   S    
C23   C38   A    
C55   H8    S    
Cu1   O7    S    
C7    C9    A    
C39   H4    S    
C40   C41   S    
C42   H15   S    
Cu2   N2    S    
C43   H28   S    
C8    H12   S    
C10   H6    S    
C24   N1    T    
C49   H31   S    
C44   H26   S    
C26   C37   A    
C25   C27   A    
C56   H9    S    
C26   C28   A    
C38   H3    S    
C28   C30   A    
C29   C31   A    
H44   O3    S    
C1    O1    A    
C41   H18   S    
C30   C32   A    
Cu1   Cu2   S    
Cu1   O1    S    
C38   C53   A    
C29   C53   S    
H11   O12   S    
Cu2   O9    S    
C47   H36   S    
C52   H38   S    
C50   H42   S    
C17   O9    A    
C25   C36   A    
Cu1   O11   S    
C12   O7    A    
C20   C21   D    
C34   C53   A    
C8    C10   A    
C5    C40   S    
C40   H19   S    
C9    C54   A    
C32   O4    S    
C31   O3    S    
Cu1   O8    S    
C21   C47   S    
