data_mof_unit_52343.cif
_audit_creation_date              2012-12-10T18:43:12-0500
_audit_creation_method            fapswitch 2.2
_symmetry_space_group_name_H-M    P1
_symmetry_Int_Tables_number       1
_space_group_crystal_system       triclinic
_cell_length_a                    10.757683
_cell_length_b                    9.841943
_cell_length_c                    10.705287
_cell_angle_alpha                 90.188057
_cell_angle_beta                  90.27131
_cell_angle_gamma                 90.908504
_cell_volume                      1133.2767714

loop_
_atom_site_label
_atom_site_type_symbol
_atom_type_description
_atom_site_fract_x
_atom_site_fract_y
_atom_site_fract_z
_atom_type_partial_charge
C1    C     C_R   0.259940 0.498701 0.493927 0.975096
C2    C     C_R   0.740081 0.501393 0.506255 0.965356
C3    C     C_R   0.497982 0.499479 0.262530 0.995993
C4    C     C_R   0.493965 0.499799 0.737735 0.962130
C5    C     C_2   0.455797 0.386362 0.935747 0.466752
C6    C     C_2   0.428455 0.403712 0.068790 0.446459
C7    C     C_2   0.465799 0.500357 0.867975 -0.526581
C8    C     C_2   0.498361 0.495830 0.130397 -0.513326
C9    C     C_R   0.060638 0.377321 0.518276 0.344536
C10   C     C_R   0.935525 0.384785 0.542564 0.351232
C11   C     C_R   0.873055 0.504875 0.513046 -0.442760
C12   C     C_R   0.127005 0.496657 0.487758 -0.445888
C13   C     C_R   0.938870 0.624071 0.479052 0.382965
C14   C     C_R   0.065002 0.617165 0.458715 0.389213
C15   C     C_R   0.546599 0.073007 0.599314 -0.018360
C16   C     C_R   0.454626 0.070715 0.399998 -0.098061
C17   C     C_R   0.546810 0.929266 0.599328 -0.087607
C18   C     C_R   0.453883 0.926938 0.400316 -0.028015
H1    H     H_    0.449088 0.599322 0.909757 0.120829
H2    H     H_    0.564024 0.563498 0.083813 0.108579
H3    H     H_    0.583955 0.128156 0.678535 0.147604
H4    H     H_    0.419206 0.123930 0.319509 0.154777
H5    H     H_    0.584675 0.876007 0.678725 0.118055
H6    H     H_    0.416869 0.871801 0.320568 0.126323
N1    N     N_R   0.500000 0.857200 0.500000 -0.070431
N2    N     N_R   0.500000 0.142810 0.500000 -0.078384
O1    O     O_R   0.316770 0.614620 0.499990 -0.576508
O2    O     O_R   0.683230 0.614620 0.500010 -0.580428
O3    O     O_R   0.316800 0.385290 0.500000 -0.583425
O4    O     O_R   0.683200 0.385290 0.500000 -0.589144
O5    O     O_R   0.500000 0.614630 0.319080 -0.641034
O6    O     O_R   0.500000 0.614630 0.680920 -0.650496
O7    O     O_R   0.500030 0.385300 0.319080 -0.593090
O8    O     O_R   0.499970 0.385300 0.680920 -0.566658
Zn1   Zn    Zn3+2 0.500000 0.653120 0.500000 0.968274
Zn2   Zn    Zn3+2 0.500000 0.346880 0.500000 0.999198
O9    O     O_3   0.468588 0.258222 0.881773 -0.583981
C19   C     C_3   0.542431 0.174503 0.958006 -0.335509
H7    H     H_    0.489557 0.137834 0.040466 0.202819
H8    H     H_    0.630157 0.227166 0.987749 0.150645
H9    H     H_    0.568692 0.083558 0.903352 0.164025
O10   O     O_3   0.343926 0.320467 0.132410 -0.616474
C20   C     C_3   0.237550 0.293164 0.058202 -0.364999
H10   H     H_    0.257192 0.216324 0.985067 0.221945
H11   H     H_    0.199927 0.387327 0.015842 0.157918
H12   H     H_    0.163937 0.249384 0.118320 0.178873
O11   O     O_3   0.114962 0.250817 0.515737 -0.599607
C21   C     C_3   0.111773 0.200715 0.391106 0.140043
H13   H     H_    0.207347 0.172241 0.364601 0.170744
H14   H     H_    0.080705 0.276204 0.319979 0.106525
C22   C     C_3   0.028156 0.074094 0.382915 -0.303988
H15   H     H_    0.072117 0.990750 0.435832 0.264344
H16   H     H_    0.936438 0.095109 0.424934 0.262782
C23   C     C_3   0.007100 0.029675 0.247722 -0.959022
H17   H     H_    0.956068 0.109166 0.196026 0.260397
H18   H     H_    0.950447 0.934451 0.245396 0.301045
H19   H     H_    0.097238 0.011686 0.200897 0.248741
O12   O     O_3   0.873329 0.270108 0.585701 -0.614997
C24   C     C_3   0.864038 0.276140 0.717538 0.107575
H20   H     H_    0.771229 0.234660 0.743355 0.160326
H21   H     H_    0.869088 0.381465 0.756882 0.093982
C25   C     C_3   0.963784 0.187988 0.777611 -0.307475
H22   H     H_    0.961395 0.085389 0.733842 0.225481
H23   H     H_    0.057024 0.234703 0.761700 0.245107
C26   C     C_3   0.943477 0.173347 0.917876 -1.048183
H24   H     H_    0.017411 0.109115 0.958126 0.273598
H25   H     H_    0.851923 0.123925 0.936520 0.267256
H26   H     H_    0.947423 0.274530 0.964147 0.264413
O13   O     O_3   0.879985 0.745586 0.456362 -0.554245
C27   C     C_3   0.880905 0.821889 0.568331 -0.242851
H27   H     H_    0.832128 0.766820 0.644949 0.138548
H28   H     H_    0.830611 0.917770 0.552112 0.182657
H29   H     H_    0.977406 0.848966 0.598122 0.158618
O14   O     O_3   0.126744 0.729927 0.411098 -0.564151
C28   C     C_3   0.144429 0.709339 0.281853 -0.261611
H30   H     H_    0.200082 0.617303 0.262439 0.145749
H31   H     H_    0.197199 0.797503 0.244041 0.170277
H32   H     H_    0.053765 0.702376 0.231558 0.159484

loop_
_geom_bond_atom_site_label_1
_geom_bond_atom_site_label_2
_ccdc_geom_bond_type
C3    O5    A    
C20   H10   S    
O7    Zn2   S    
O9    C19   S    
C5    O9    S    
C4    O6    A    
C20   H11   S    
C9    C10   A    
C7    H1    S    
O11   C21   S    
O4    Zn2   S    
C28   H30   S    
C26   H26   S    
C17   N1    A    
O1    Zn1   S    
C22   C23   S    
C27   H29   S    
C1    O3    A    
C25   H23   S    
C24   H20   S    
C16   C18   A    
C8    H2    S    
C13   C14   A    
C19   H8    S    
C5    C6    S    
C28   H31   S    
O3    Zn2   S    
C17   H5    S    
C18   N1    A    
C13   O13   S    
C15   C17   A    
N1    Zn1   S    
C4    C7    S    
C18   H6    S    
C2    C11   S    
C6    C8    D    
O5    Zn1   S    
C21   H14   S    
C21   H13   S    
C28   H32   S    
C12   C14   A    
C9    O11   S    
O8    Zn2   S    
C4    O8    A    
C16   N2    A    
O13   C27   S    
C20   H12   S    
C23   H18   S    
C24   H21   S    
C11   C13   A    
C2    O2    A    
C10   C11   A    
C3    O7    A    
C22   H16   S    
C22   H15   S    
O6    Zn1   S    
C14   O14   S    
C15   H3    S    
C27   H27   S    
C2    O4    A    
O14   C28   S    
C3    C8    S    
C19   H9    S    
C1    O1    A    
C26   H24   S    
C6    O10   S    
N2    Zn2   S    
C5    C7    D    
C23   H17   S    
C15   N2    A    
C16   H4    S    
C24   C25   S    
C25   C26   S    
C10   O12   S    
O12   C24   S    
C9    C12   A    
O2    Zn1   S    
C27   H28   S    
C21   C22   S    
C1    C12   S    
C25   H22   S    
O10   C20   S    
C26   H25   S    
C23   H19   S    
C19   H7    S    
