data_mof_unit_35021.cif
_audit_creation_date              2012-12-11T14:44:09-0500
_audit_creation_method            fapswitch 2.2
_symmetry_space_group_name_H-M    P1
_symmetry_Int_Tables_number       1
_space_group_crystal_system       triclinic
_cell_length_a                    19.716103
_cell_length_b                    11.30342
_cell_length_c                    18.776628
_cell_angle_alpha                 90.041168
_cell_angle_beta                  89.783915
_cell_angle_gamma                 90.050292
_cell_volume                      4184.51547663

loop_
_atom_site_label
_atom_site_type_symbol
_atom_type_description
_atom_site_fract_x
_atom_site_fract_y
_atom_site_fract_z
_atom_type_partial_charge
Br1   Br    Br    0.460865 0.922867 0.084649 -0.394878
Br2   Br    Br    0.388779 0.855767 0.929965 -0.384909
Br3   Br    Br    0.111283 0.355058 0.069977 -0.384753
Br4   Br    Br    0.888779 0.355767 0.929964 -0.384913
Br5   Br    Br    0.532462 0.406289 0.595053 -0.510402
Br6   Br    Br    0.524472 0.431410 0.421727 -0.517940
Br7   Br    Br    0.032434 0.906316 0.595044 -0.510535
Br8   Br    Br    0.024438 0.931410 0.421716 -0.517978
Br9   Br    Br    0.539435 0.923844 0.915241 -0.389219
Br10  Br    Br    0.960865 0.422867 0.084649 -0.394862
Br11  Br    Br    0.039435 0.423843 0.915241 -0.389229
Br12  Br    Br    0.987204 0.130363 0.914079 -0.402401
Br13  Br    Br    0.012847 0.129298 0.089021 -0.405072
Br14  Br    Br    0.487204 0.630363 0.914080 -0.402387
Br15  Br    Br    0.512847 0.629297 0.089023 -0.405093
Br16  Br    Br    0.611283 0.855057 0.069977 -0.384760
C1    C     C_R   0.729554 0.378199 0.147752 0.532599
C2    C     C_R   0.997025 0.985782 0.038475 0.236091
C3    C     C_R   0.996642 0.772711 0.038301 -0.084892
C4    C     C_R   0.494413 0.059711 0.036743 0.212317
C5    C     C_R   0.505342 0.060002 0.963435 0.211787
C6    C     C_R   0.994413 0.559711 0.036743 0.212314
C7    C     C_R   0.005342 0.560002 0.963435 0.211788
C8    C     C_3   0.584645 0.810984 0.460980 -0.098040
C9    C     C_3   0.378637 0.720676 0.558050 -0.086124
C10   C     C_3   0.084590 0.310828 0.461186 -0.098209
C11   C     C_3   0.878491 0.220536 0.558178 -0.086035
C12   C     C_3   0.529431 0.443614 0.806925 0.008251
C13   C     C_R   0.502525 0.486194 0.963772 0.235731
C14   C     C_3   0.469067 0.441831 0.194944 -0.000790
C15   C     C_3   0.029432 0.943613 0.806924 0.008237
C16   C     C_3   0.969068 0.941832 0.194944 -0.000773
C17   C     C_3   0.799955 0.150724 0.869706 -0.021922
C18   C     C_3   0.200230 0.150641 0.130201 -0.028763
C19   C     C_3   0.299955 0.650724 0.869706 -0.021921
C20   C     C_3   0.700230 0.650641 0.130201 -0.028775
C21   C     C_3   0.857562 0.147492 0.068433 0.004645
C22   C     C_3   0.142528 0.146964 0.931719 0.003712
C23   C     C_3   0.357562 0.647492 0.068433 0.004645
C24   C     C_R   0.497025 0.485782 0.038476 0.236093
C25   C     C_3   0.642528 0.646964 0.931719 0.003712
C26   C     C_R   0.691456 0.905737 0.028601 0.085606
C27   C     C_R   0.308541 0.905970 0.971348 0.084203
C28   C     C_R   0.191456 0.405738 0.028601 0.085601
C29   C     C_R   0.808541 0.405969 0.971348 0.084204
C30   C     C_R   0.695364 0.896836 0.955407 -0.180896
C31   C     C_R   0.304626 0.897073 0.044544 -0.181927
C32   C     C_R   0.195364 0.396836 0.955407 -0.180898
C33   C     C_R   0.270436 0.378279 0.852234 0.538901
C34   C     C_R   0.804626 0.397073 0.044544 -0.181927
C35   C     C_R   0.751062 0.932913 0.919335 -0.062999
C36   C     C_R   0.248874 0.932728 0.080616 -0.061627
C37   C     C_R   0.251063 0.432913 0.919335 -0.063000
C38   C     C_R   0.748874 0.432728 0.080616 -0.061625
C39   C     C_R   0.797503 0.003650 0.954525 0.278056
C40   C     C_R   0.202414 0.003245 0.045463 0.280195
C41   C     C_R   0.297503 0.503650 0.954525 0.278055
C42   C     C_R   0.702414 0.503244 0.045463 0.280198
C43   C     C_R   0.803297 0.987996 0.028310 0.259180
C44   C     C_R   0.229554 0.878199 0.147752 0.532599
C45   C     C_R   0.196627 0.987561 0.971665 0.258983
C46   C     C_R   0.303298 0.487996 0.028310 0.259182
C47   C     C_R   0.696627 0.487561 0.971665 0.258981
C48   C     C_R   0.746957 0.946350 0.067874 -0.021285
C49   C     C_R   0.253011 0.946272 0.932078 -0.023158
C50   C     C_R   0.246957 0.446350 0.067874 -0.021285
C51   C     C_R   0.753011 0.446272 0.932078 -0.023159
C52   C     C_R   0.477574 0.069474 0.455695 -0.155065
C53   C     C_R   0.469599 0.065403 0.528197 -0.171425
C54   C     C_R   0.977601 0.569455 0.455703 -0.155181
C55   C     C_R   0.770436 0.878279 0.852234 0.538903
C56   C     C_R   0.969627 0.565389 0.528205 -0.171546
C57   C     C_R   0.484993 0.163920 0.570804 0.015676
C58   C     C_R   0.501533 0.172036 0.423148 0.014599
C59   C     C_R   0.985001 0.663920 0.570807 0.015664
C60   C     C_R   0.001537 0.672028 0.423150 0.014535
C61   C     C_R   0.531792 0.155220 0.147120 0.586757
C62   C     C_R   0.468060 0.155380 0.853044 0.596081
C63   C     C_R   0.031792 0.655220 0.147120 0.586751
C64   C     C_R   0.968060 0.655380 0.853044 0.596086
C65   C     C_R   0.505628 0.270793 0.538669 0.167025
C66   C     C_R   0.511966 0.379959 0.925889 0.305319
C67   C     C_R   0.510096 0.277044 0.464174 0.173568
C68   C     C_R   0.005620 0.770799 0.538667 0.166992
C69   C     C_R   0.010086 0.777044 0.464172 0.173555
C70   C     C_R   0.812179 0.922041 0.455014 -0.196631
C71   C     C_R   0.221961 0.030170 0.525306 -0.144219
C72   C     C_R   0.312188 0.422125 0.455021 -0.196612
C73   C     C_R   0.722035 0.530238 0.525293 -0.144227
C74   C     C_R   0.819951 0.906927 0.527179 -0.149923
C75   C     C_R   0.219147 0.012641 0.452825 -0.125549
C76   C     C_R   0.319955 0.407036 0.527187 -0.149882
C77   C     C_R   0.486966 0.379128 0.075636 0.307100
C78   C     C_R   0.719217 0.512683 0.452813 -0.125543
C79   C     C_R   0.762900 0.895388 0.571446 0.001110
C80   C     C_R   0.247706 0.911258 0.423565 -0.004352
C81   C     C_R   0.262903 0.395376 0.571439 0.001119
C82   C     C_R   0.747700 0.411220 0.423574 -0.004294
C83   C     C_R   0.698124 0.890322 0.542675 -0.120823
C84   C     C_R   0.282972 0.830522 0.466865 -0.125947
C85   C     C_R   0.198138 0.390148 0.542648 -0.121007
C86   C     C_R   0.782886 0.330407 0.466894 -0.125842
C87   C     C_R   0.689227 0.902832 0.469238 0.262536
C88   C     C_R   0.011967 0.879959 0.925888 0.305322
C89   C     C_R   0.287925 0.848983 0.540565 0.259106
C90   C     C_R   0.189245 0.402613 0.469202 0.262599
C91   C     C_R   0.787836 0.348885 0.540591 0.259107
C92   C     C_R   0.747248 0.925742 0.425927 0.034021
C93   C     C_R   0.254258 0.947307 0.569622 0.071253
C94   C     C_R   0.247263 0.425684 0.425913 0.034124
C95   C     C_R   0.754254 0.447308 0.569626 0.071302
C96   C     C_R   0.739837 0.976936 0.144735 0.559489
C97   C     C_R   0.260151 0.976968 0.855245 0.567228
C98   C     C_R   0.239837 0.476936 0.144735 0.559482
C99   C     C_R   0.986966 0.879128 0.075635 0.307097
C100  C     C_R   0.760151 0.476968 0.855245 0.567241
C101  C     C_R   0.728725 0.375701 0.352273 0.553470
C102  C     C_R   0.273713 0.371330 0.645900 0.552582
C103  C     C_R   0.228727 0.875710 0.352270 0.553472
C104  C     C_R   0.773711 0.871336 0.645904 0.552580
C105  C     C_R   0.532616 0.158136 0.352822 0.567608
C106  C     C_R   0.464804 0.156600 0.645491 0.564493
C107  C     C_R   0.032617 0.658135 0.352822 0.567523
C108  C     C_R   0.964807 0.656600 0.645493 0.564498
C109  C     C_R   0.739983 0.974151 0.354619 0.555529
C110  C     C_R   0.002525 0.986194 0.963771 0.235732
C111  C     C_R   0.260212 0.977756 0.644347 0.581016
C112  C     C_R   0.239987 0.474133 0.354614 0.555527
C113  C     C_R   0.760210 0.477753 0.644349 0.581070
C114  C     C_R   0.499865 0.164606 0.924950 0.003103
C115  C     C_R   0.499535 0.164153 0.075508 0.003692
C116  C     C_R   0.999865 0.664606 0.924950 0.003103
C117  C     C_R   0.999535 0.664153 0.075508 0.003690
C118  C     C_R   0.502232 0.273046 0.962600 -0.085289
C119  C     C_R   0.496642 0.272711 0.038302 -0.084893
C120  C     C_R   0.002232 0.773046 0.962599 -0.085289
Cr1   Cr    Cr6+3 0.772000 0.169640 0.250110 1.014452
Cr2   Cr    Cr6+3 0.383330 0.010620 0.749160 1.099234
Cr3   Cr    Cr6+3 0.116670 0.510620 0.250840 1.111251
Cr4   Cr    Cr6+3 0.883330 0.510620 0.749160 1.099136
Cr5   Cr    Cr6+3 0.228000 0.169640 0.749890 1.023142
Cr6   Cr    Cr6+3 0.272000 0.669640 0.250110 1.014408
Cr7   Cr    Cr6+3 0.728000 0.669640 0.749890 1.023178
Cr8   Cr    Cr6+3 0.614960 0.323350 0.249260 1.051000
Cr9   Cr    Cr6+3 0.385040 0.323350 0.750740 1.035288
Cr10  Cr    Cr6+3 0.114960 0.823350 0.249260 1.051008
Cr11  Cr    Cr6+3 0.885040 0.823350 0.750740 1.035261
Cr12  Cr    Cr6+3 0.616670 0.010620 0.250840 1.111107
H1    H     H_    0.856914 0.936260 0.422406 0.171836
H2    H     H_    0.302363 0.749348 0.444075 0.142104
H3    H     H_    0.154758 0.379585 0.577595 0.131619
H4    H     H_    0.802210 0.249169 0.444125 0.142144
H5    H     H_    0.657420 0.857314 0.924766 0.186858
H6    H     H_    0.342590 0.857912 0.075203 0.186479
H7    H     H_    0.157420 0.357314 0.924766 0.186858
H8    H     H_    0.842590 0.357912 0.075203 0.186479
H9    H     H_    0.467893 0.989621 0.425403 0.146630
H10   H     H_    0.450558 0.983737 0.550668 0.147626
H11   H     H_    0.967939 0.489587 0.425417 0.146760
H12   H     H_    0.199039 0.109819 0.546663 0.148559
H13   H     H_    0.950603 0.483713 0.550678 0.147524
H14   H     H_    0.614084 0.727039 0.461370 0.125514
H15   H     H_    0.560406 0.826440 0.513636 0.115803
H16   H     H_    0.543320 0.799990 0.421613 0.154745
H17   H     H_    0.409270 0.684968 0.602557 0.173694
H18   H     H_    0.410004 0.788783 0.530577 0.084302
H19   H     H_    0.367682 0.645973 0.521536 0.140963
H20   H     H_    0.113988 0.226839 0.461937 0.125578
H21   H     H_    0.060271 0.326884 0.513734 0.115813
H22   H     H_    0.043320 0.299492 0.421779 0.154874
H23   H     H_    0.356923 0.436449 0.422428 0.171823
H24   H     H_    0.909026 0.184692 0.602729 0.173732
H25   H     H_    0.909928 0.288723 0.530835 0.084364
H26   H     H_    0.867597 0.145922 0.521559 0.140940
H27   H     H_    0.559868 0.525942 0.803386 0.164851
H28   H     H_    0.539164 0.393969 0.757032 0.173141
H29   H     H_    0.474153 0.463122 0.808531 0.164564
H30   H     H_    0.458898 0.392347 0.244859 0.143420
H31   H     H_    0.438720 0.524216 0.198219 0.162296
H32   H     H_    0.524373 0.461261 0.193833 0.168950
H33   H     H_    0.059869 0.025942 0.803386 0.164848
H34   H     H_    0.699178 0.609953 0.546635 0.148523
H35   H     H_    0.039165 0.893968 0.757031 0.173131
H36   H     H_    0.974154 0.963121 0.808530 0.164562
H37   H     H_    0.958898 0.892348 0.244858 0.143435
H38   H     H_    0.938721 0.024217 0.198219 0.162304
H39   H     H_    0.024373 0.961261 0.193832 0.168957
H40   H     H_    0.834402 0.203467 0.835548 0.204624
H41   H     H_    0.765144 0.209567 0.899750 0.111791
H42   H     H_    0.769233 0.099978 0.831061 0.111916
H43   H     H_    0.235016 0.209429 0.100055 0.111765
H44   H     H_    0.230991 0.100054 0.168802 0.099876
H45   H     H_    0.870974 0.904808 0.548342 0.183778
H46   H     H_    0.165893 0.203469 0.164417 0.199315
H47   H     H_    0.334402 0.703466 0.835548 0.204633
H48   H     H_    0.265144 0.709567 0.899751 0.111787
H49   H     H_    0.269232 0.599979 0.831061 0.111905
H50   H     H_    0.735016 0.709428 0.100054 0.111770
H51   H     H_    0.730992 0.600054 0.168802 0.099868
H52   H     H_    0.665893 0.703469 0.164417 0.199295
H53   H     H_    0.878205 0.174524 0.120833 0.188048
H54   H     H_    0.889279 0.186371 0.026566 0.260945
H55   H     H_    0.804715 0.182020 0.065778 0.103526
H56   H     H_    0.192113 0.075490 0.419971 0.149593
H57   H     H_    0.195428 0.181516 0.934088 0.101680
H58   H     H_    0.111179 0.185668 0.973926 0.260663
H59   H     H_    0.121559 0.174104 0.879514 0.187937
H60   H     H_    0.378205 0.674525 0.120833 0.188046
H61   H     H_    0.389279 0.686371 0.026566 0.260945
H62   H     H_    0.304715 0.682020 0.065778 0.103527
H63   H     H_    0.695428 0.681516 0.934088 0.101678
H64   H     H_    0.611180 0.685668 0.973927 0.260664
H65   H     H_    0.621559 0.674104 0.879514 0.187938
H66   H     H_    0.370976 0.405031 0.548360 0.183794
H67   H     H_    0.692245 0.575583 0.419939 0.149348
H68   H     H_    0.654737 0.879863 0.577624 0.131728
O1    O     O_R   0.787540 0.042690 0.170470 -0.496008
O2    O     O_R   0.454130 0.051100 0.669160 -0.523552
O3    O     O_R   0.045870 0.551100 0.330840 -0.489556
O4    O     O_R   0.954130 0.551100 0.669160 -0.523603
O5    O     O_R   0.681340 0.959300 0.325510 -0.450619
O6    O     O_R   0.318660 0.959300 0.674490 -0.475813
O7    O     O_R   0.181340 0.459300 0.325510 -0.450470
O8    O     O_R   0.818660 0.459300 0.674490 -0.475954
O9    O     O_3   0.667880 0.167870 0.250070 -0.296805
O10   O     O_3   0.332120 0.167870 0.749930 -0.309288
O11   O     O_3   0.167880 0.667870 0.250070 -0.296831
O12   O     O_R   0.212460 0.042690 0.829530 -0.491563
O13   O     O_3   0.832120 0.667870 0.749930 -0.309277
O14   O     O_R   0.765660 0.292160 0.175050 -0.534559
O15   O     O_R   0.234340 0.292160 0.824950 -0.531330
O16   O     O_R   0.265660 0.792160 0.175050 -0.534562
O17   O     O_R   0.734340 0.792160 0.824950 -0.531330
O18   O     O_R   0.670190 0.408980 0.168550 -0.480528
O19   O     O_R   0.329810 0.408980 0.831450 -0.478492
O20   O     O_R   0.170190 0.908980 0.168550 -0.480522
O21   O     O_R   0.829810 0.908980 0.831450 -0.478496
O22   O     O_R   0.556580 0.251450 0.175160 -0.515543
O23   O     O_R   0.287540 0.542690 0.170470 -0.496011
O24   O     O_R   0.443420 0.251450 0.824840 -0.512225
O25   O     O_R   0.056580 0.751450 0.175160 -0.515546
O26   O     O_R   0.943420 0.751450 0.824840 -0.512219
O27   O     O_R   0.545920 0.049510 0.170320 -0.434689
O28   O     O_R   0.454080 0.049510 0.829680 -0.428273
O29   O     O_R   0.045920 0.549510 0.170320 -0.434681
O30   O     O_R   0.954080 0.549510 0.829680 -0.428272
O31   O     O_R   0.681390 0.957840 0.176710 -0.475472
O32   O     O_R   0.318610 0.957840 0.823290 -0.468099
O33   O     O_R   0.181390 0.457840 0.176710 -0.475469
O34   O     O_R   0.712460 0.542690 0.829530 -0.491561
O35   O     O_R   0.818610 0.457840 0.823290 -0.468093
O36   O     O_R   0.787500 0.044280 0.330990 -0.536581
O37   O     O_R   0.212500 0.044280 0.669010 -0.514137
O38   O     O_R   0.287500 0.544280 0.330990 -0.536628
O39   O     O_R   0.712500 0.544280 0.669010 -0.514067
O40   O     O_R   0.765610 0.293630 0.323860 -0.515077
O41   O     O_R   0.234390 0.293630 0.676140 -0.514745
O42   O     O_R   0.265610 0.793630 0.323860 -0.515077
O43   O     O_R   0.734390 0.793630 0.676140 -0.514742
O44   O     O_R   0.670140 0.410570 0.329080 -0.482000
O45   O     O_R   0.556540 0.252920 0.323970 -0.476901
O46   O     O_R   0.329860 0.410570 0.670920 -0.508815
O47   O     O_R   0.170140 0.910570 0.329080 -0.482022
O48   O     O_R   0.829860 0.910570 0.670920 -0.508826
O49   O     O_3   0.624340 0.909674 0.440808 -0.533966
O50   O     O_3   0.317833 0.767484 0.586380 -0.550371
O51   O     O_3   0.124366 0.409240 0.440717 -0.533967
O52   O     O_3   0.817639 0.267297 0.586419 -0.550413
O53   O     O_3   0.552165 0.373835 0.864359 -0.537265
O54   O     O_3   0.446745 0.372107 0.137180 -0.540907
O55   O     O_3   0.052166 0.873834 0.864358 -0.537266
O56   O     O_R   0.443460 0.252920 0.676030 -0.487640
O57   O     O_3   0.946745 0.872108 0.137179 -0.540913
O58   O     O_3   0.839277 0.080949 0.917422 -0.505299
O59   O     O_3   0.160763 0.080656 0.082597 -0.502396
O60   O     O_3   0.339278 0.580948 0.917423 -0.505298
O61   O     O_3   0.660763 0.580656 0.082597 -0.502393
O62   O     O_3   0.860554 0.024702 0.062552 -0.528984
O63   O     O_3   0.139407 0.024183 0.937437 -0.527378
O64   O     O_3   0.360554 0.524702 0.062552 -0.528983
O65   O     O_3   0.639407 0.524183 0.937437 -0.527377
O66   O     O_R   0.056540 0.752920 0.323970 -0.476892
O67   O     O_R   0.943460 0.752920 0.676030 -0.487631
O68   O     O_R   0.545870 0.051100 0.330840 -0.489583

loop_
_geom_bond_atom_site_label_1
_geom_bond_atom_site_label_2
_ccdc_geom_bond_type
C96   O31   A    
C83   C87   A    
Cr11  O48   S    
C108  O4    A    
Br15  C24   S    
C33   O15   A    
C64   C116  S    
Cr7   O34   S    
C39   C43   A    
C8    O49   S    
C71   C75   A    
C80   C103  S    
C28   C50   A    
Cr8   O18   S    
C44   O20   A    
C20   H51   S    
C58   C67   A    
C51   C100  S    
C11   H25   S    
C18   O59   S    
C9    O50   S    
C41   C46   A    
C102  O41   A    
Cr3   O33   S    
C1    O18   A    
Br10  C6    S    
C74   H45   S    
C10   H20   S    
C84   C89   A    
C34   C38   A    
C35   C55   S    
C16   H37   S    
Cr9   O56   S    
Cr4   O30   S    
C55   O21   A    
Cr3   O11   S    
C18   H43   S    
C22   H57   S    
C20   H50   S    
C11   H26   S    
C54   H11   S    
C25   O65   S    
C56   C59   A    
Cr6   O42   S    
C15   H36   S    
C101  O40   A    
C79   C83   A    
C116  C120  A    
C48   C96   S    
Br12  C110  S    
C17   O58   S    
Cr2   O6    S    
C52   C58   A    
Cr9   O24   S    
C87   O49   S    
C81   C102  S    
Cr11  O67   S    
C71   H12   S    
C23   H61   S    
C17   H41   S    
Br8   C69   S    
C26   C30   A    
C73   C78   A    
Cr2   O10   S    
Cr1   O9    S    
C16   O57   S    
C36   C44   S    
C111  O6    A    
C105  O45   A    
C75   C80   A    
C25   H64   S    
C11   H24   S    
C23   O64   S    
Cr4   O4    S    
Cr9   O46   S    
C103  O47   A    
C77   O54   S    
C72   C76   A    
C10   H21   S    
C34   H8    S    
C52   C53   A    
C104  O48   A    
C14   O54   S    
C29   C51   A    
Cr12  O27   S    
C112  O38   A    
C96   O1    A    
C76   H66   S    
C87   C92   A    
C12   O53   S    
C105  O68   A    
C92   C109  S    
C17   H40   S    
C94   C112  S    
C50   C98   S    
C12   H29   S    
C24   C77   A    
C75   H56   S    
Cr10  O66   S    
C19   H47   S    
C21   O62   S    
C72   C94   A    
C18   H46   S    
Cr5   O12   S    
C63   O25   A    
Br7   C68   S    
Cr4   O13   S    
C72   H23   S    
C111  O37   A    
Cr7   O39   S    
C15   H33   S    
C45   O63   S    
C88   C120  A    
C8    H16   S    
Cr4   O35   S    
C46   O64   S    
C113  O8    A    
Cr8   O44   S    
Cr8   O45   S    
C112  O7    A    
C57   C65   A    
C65   C67   A    
C95   C113  S    
C76   C81   A    
Cr10  O20   S    
Br4   C29   S    
Cr11  O21   S    
C21   H55   S    
C32   C37   A    
C63   C117  S    
C47   C51   A    
Br3   C28   S    
C22   H59   S    
C46   C50   A    
C6    C117  A    
C59   C108  S    
C108  O67   A    
C113  O39   A    
Cr6   O11   S    
Cr7   O43   S    
C68   C69   A    
C70   C74   A    
C70   H1    S    
C101  O44   A    
C37   C41   A    
Cr4   O8    S    
C97   O12   A    
Cr11  O26   S    
C84   H2    S    
C89   O50   S    
C82   C86   A    
C98   O33   A    
C30   C35   A    
C85   H3    S    
Cr12  O31   S    
C9    H19   S    
C23   H62   S    
C17   H42   S    
C25   H63   S    
C59   C68   A    
C66   C118  A    
Cr12  O5    S    
C22   H58   S    
Cr3   O3    S    
C25   H65   S    
C91   C95   A    
C99   O57   S    
Cr6   O16   S    
C11   O52   S    
C102  O46   A    
C42   O61   S    
C3    C99   A    
Br2   C27   S    
C27   C49   A    
C33   O19   A    
C23   H60   S    
C103  O42   A    
C40   O59   S    
C21   H53   S    
C53   H10   S    
C14   H30   S    
Cr8   O22   S    
Cr10  O47   S    
C14   H32   S    
C90   O51   S    
Cr7   O13   S    
C53   C57   A    
C5    C114  A    
Cr2   O2    S    
C107  O3    A    
C118  C119  A    
C19   H48   S    
Br13  C2    S    
C12   H28   S    
C31   H6    S    
C32   H7    S    
C106  O2    A    
C27   C31   A    
C109  O5    A    
C19   O60   S    
Cr9   O19   S    
C19   H49   S    
C54   C60   A    
C61   O22   A    
C79   C104  S    
C64   O30   A    
Cr8   O9    S    
C8    H15   S    
Cr5   O15   S    
Br14  C13   S    
C52   H9    S    
Cr3   O29   S    
Br5   C65   S    
C86   C91   A    
C85   C90   A    
Cr1   O36   S    
Cr2   O28   S    
C47   O65   S    
C82   C101  S    
C10   O51   S    
C38   C42   A    
C41   O60   S    
Cr3   O7    S    
C42   C47   A    
C30   H5    S    
C89   C93   A    
Cr10  O11   S    
C39   O58   S    
C62   O24   A    
Br6   C67   S    
Cr12  O68   S    
C16   H39   S    
C15   H35   S    
C61   O27   A    
C60   C107  S    
C49   C97   S    
C78   H67   S    
C109  O36   A    
C61   C115  S    
Cr12  O9    S    
C20   H52   S    
C66   O53   S    
Cr1   O14   S    
Br1   C4    S    
C107  O66   A    
C74   C79   A    
C2    C99   A    
C26   C48   A    
C1    O14   A    
C12   H27   S    
C77   C119  A    
C31   C36   A    
C71   C93   A    
C100  O35   A    
C106  O56   A    
C9    H18   S    
C3    C117  A    
C97   O32   A    
Cr9   O10   S    
C73   C95   A    
C21   H54   S    
C115  C119  A    
Cr6   O38   S    
C16   H38   S    
Cr5   O10   S    
C9    H17   S    
C73   H34   S    
Cr7   O17   S    
C18   H44   S    
C3    C120  A    
C88   O55   S    
Cr5   O37   S    
C13   C66   A    
C43   C48   A    
C28   C32   A    
C2    C110  A    
C15   O55   S    
Cr11  O13   S    
Br9   C5    S    
C6    C7    A    
C14   H31   S    
C100  O34   A    
C29   C34   A    
C60   C69   A    
C33   C37   S    
C80   C84   A    
Cr10  O25   S    
Br11  C7    S    
C93   C111  S    
C7    C116  A    
C64   O26   A    
C56   H13   S    
C35   C39   A    
Br16  C26   S    
C55   O17   A    
C62   C114  S    
C114  C118  A    
C62   O28   A    
C20   O61   S    
Cr1   O40   S    
Cr2   O32   S    
C44   O16   A    
C63   O29   A    
C104  O43   A    
C45   C49   A    
C22   O63   S    
C58   C105  S    
C88   C110  A    
C4    C5    A    
C10   H22   S    
C90   C94   A    
C57   C106  S    
C83   H68   S    
C43   O62   S    
Cr1   O1    S    
C91   O52   S    
Cr5   O41   S    
C40   C45   A    
C98   O23   A    
C54   C56   A    
C4    C115  A    
C13   C24   A    
C70   C92   A    
C8    H14   S    
C1    C38   S    
C81   C85   A    
C36   C40   A    
C86   H4    S    
Cr6   O23   S    
C78   C82   A    
