data_mof_unit_68379.cif
_audit_creation_date              2012-12-11T18:15:36-0500
_audit_creation_method            fapswitch 2.2
_symmetry_space_group_name_H-M    P1
_symmetry_Int_Tables_number       1
_space_group_crystal_system       triclinic
_cell_length_a                    19.888031
_cell_length_b                    21.393371
_cell_length_c                    8.558985
_cell_angle_alpha                 90.025789
_cell_angle_beta                  92.216615
_cell_angle_gamma                 89.949857
_cell_volume                      3638.88211496

loop_
_atom_site_label
_atom_site_type_symbol
_atom_type_description
_atom_site_fract_x
_atom_site_fract_y
_atom_site_fract_z
_atom_type_partial_charge
Ba1   Ba    Ba6+2 0.999980 0.452130 0.155200 1.728033
Ba2   Ba    Ba6+2 0.999980 0.547870 0.655200 1.730657
Ba3   Ba    Ba6+2 0.499980 0.952130 0.155200 1.739283
Ba4   Ba    Ba6+2 0.499980 0.047870 0.655200 1.730579
C1    C     C_3   0.979797 0.138019 0.430051 1.165122
C2    C     C_R   0.113527 0.660774 0.183261 -0.134135
C3    C     C_3   0.811601 0.943984 0.350384 -0.279014
C4    C     C_3   0.194240 0.197781 0.497512 -0.403478
C5    C     C_3   0.195128 0.801557 0.996676 -0.411733
C6    C     C_3   0.694475 0.697596 0.497871 -0.408347
C7    C     C_3   0.695133 0.301581 0.996977 -0.412548
C8    C     C_3   0.276572 0.362745 0.041935 -0.416509
C9    C     C_3   0.276067 0.637529 0.544053 -0.412295
C10   C     C_3   0.776550 0.862938 0.043124 -0.421294
C11   C     C_3   0.775904 0.136947 0.546958 -0.412237
C12   C     C_3   0.706963 0.626151 0.798039 -0.296192
C13   C     C_R   0.613602 0.839241 0.683286 -0.146520
C14   C     C_3   0.707861 0.373682 0.296173 -0.343959
C15   C     C_3   0.207307 0.125994 0.796685 -0.349648
C16   C     C_3   0.207426 0.874008 0.295492 -0.347608
C17   C     C_3   0.814882 0.419945 0.882686 -0.280537
C18   C     C_3   0.814431 0.580013 0.383128 -0.281656
C19   C     C_3   0.314448 0.920021 0.883115 -0.279948
C20   C     C_3   0.314741 0.080022 0.383119 -0.278631
C21   C     C_R   0.613424 0.160938 0.183724 -0.132490
C22   C     C_R   0.125834 0.289833 0.579824 0.062365
C23   C     C_R   0.125633 0.710425 0.079935 0.033084
C24   C     C_R   0.625633 0.789477 0.580117 0.018676
C25   C     C_R   0.625357 0.210687 0.080451 0.031673
C26   C     C_R   0.171549 0.242347 0.623196 0.001434
C27   C     C_R   0.171848 0.757511 0.122803 -0.019835
C28   C     C_R   0.671707 0.742242 0.623329 -0.027107
C29   C     C_3   0.977765 0.866712 0.894155 1.093659
C30   C     C_R   0.671816 0.257599 0.123246 -0.019249
C31   C     C_R   0.202977 0.242280 0.775512 0.068148
C32   C     C_R   0.203112 0.757669 0.275217 0.078452
C33   C     C_R   0.703282 0.742377 0.775443 0.095051
C34   C     C_R   0.703566 0.257398 0.275290 0.076947
C35   C     C_R   0.200570 0.297919 0.868039 -0.009274
C36   C     C_R   0.200555 0.702137 0.368072 -0.004384
C37   C     C_R   0.700939 0.798091 0.867750 0.008408
C38   C     C_R   0.701192 0.201729 0.367848 -0.006705
C39   C     C_R   0.791811 0.693584 0.950918 -0.036983
C40   C     C_3   0.482259 0.631031 0.395006 1.109126
C41   C     C_R   0.792273 0.306167 0.450338 -0.036869
C42   C     C_R   0.291619 0.193499 0.950938 -0.032701
C43   C     C_R   0.291537 0.806591 0.450748 -0.035166
C44   C     C_R   0.790188 0.749023 0.040591 0.039726
C45   C     C_R   0.790586 0.250843 0.540360 0.022600
C46   C     C_R   0.289861 0.248878 0.040793 0.030356
C47   C     C_R   0.289588 0.751379 0.541088 0.033398
C48   C     C_R   0.844990 0.647988 0.989893 0.047832
C49   C     C_R   0.845371 0.351817 0.489378 0.048998
C50   C     C_R   0.344918 0.148000 0.989821 0.054220
C51   C     C_3   0.475095 0.365774 0.896252 1.076650
C52   C     C_R   0.344829 0.852056 0.489633 0.055806
C53   C     C_R   0.887071 0.658262 0.123819 -0.242488
C54   C     C_R   0.887621 0.341466 0.623064 -0.251338
C55   C     C_R   0.387019 0.158348 0.123696 -0.243508
C56   C     C_R   0.386817 0.841785 0.623660 -0.246576
C57   C     C_3   0.987371 0.190905 0.865711 0.848827
C58   C     C_3   0.988780 0.807209 0.367024 0.784418
C59   C     C_3   0.487512 0.692584 0.863297 0.857717
C60   C     C_3   0.488768 0.307141 0.366976 0.781681
C61   C     C_R   0.875125 0.707714 0.225794 -0.018972
C62   C     C_R   0.152122 0.347954 0.823508 0.006126
C63   C     C_R   0.875686 0.292103 0.725167 -0.011405
C64   C     C_R   0.374993 0.207749 0.225799 -0.018544
C65   C     C_R   0.374554 0.792646 0.726085 -0.020658
C66   C     C_R   0.827639 0.751978 0.183324 -0.143003
C67   C     C_R   0.827925 0.248148 0.683212 -0.159983
C68   C     C_R   0.327341 0.251914 0.183504 -0.145429
C69   C     C_R   0.326808 0.748588 0.684123 -0.139575
C70   C     C_R   0.740073 0.688357 0.830951 0.045514
C71   C     C_R   0.740507 0.311351 0.330425 0.047573
C72   C     C_R   0.239921 0.188289 0.830805 0.041417
C73   C     C_R   0.152109 0.652119 0.323520 0.011758
C74   C     C_R   0.239984 0.811693 0.330314 0.045994
C75   C     C_3   0.016841 0.128472 0.919773 0.587255
C76   C     C_3   0.017025 0.870501 0.417826 0.568451
C77   C     C_3   0.509904 0.626417 0.905470 0.626153
C78   C     C_3   0.516811 0.370576 0.417164 0.575610
C79   C     C_3   0.795983 0.474464 0.778244 0.288511
C80   C     C_3   0.795581 0.525452 0.278773 0.267414
C81   C     C_3   0.295897 0.974516 0.778386 0.286612
C82   C     C_3   0.295903 0.025566 0.278453 0.291558
C83   C     C_3   0.725691 0.463057 0.704299 -0.319611
C84   C     C_R   0.652329 0.847996 0.823299 0.011825
C85   C     C_3   0.725154 0.536696 0.205291 -0.289882
C86   C     C_3   0.225665 0.963297 0.703886 -0.316113
C87   C     C_3   0.225608 0.037029 0.204508 -0.325487
C88   C     C_3   0.203379 0.535057 0.002503 0.884389
C89   C     C_3   0.202864 0.464657 0.501045 0.880668
C90   C     C_3   0.702542 0.035367 0.002532 0.879861
C91   C     C_3   0.702589 0.964383 0.499523 0.883325
C92   C     C_3   0.273443 0.571601 0.996488 0.021060
C93   C     C_3   0.272945 0.428201 0.495583 0.000746
C94   C     C_3   0.772544 0.072144 0.997761 -0.006868
C95   C     C_R   0.652385 0.151996 0.323487 0.012343
C96   C     C_3   0.772798 0.928129 0.494901 -0.000915
C97   C     C_3   0.990889 0.208047 0.412368 0.390529
C98   C     C_3   0.009976 0.805131 0.945122 0.302203
C99   C     C_3   0.509483 0.695037 0.441984 0.328800
C100  C     C_3   0.509540 0.305252 0.947629 0.325505
C101  C     C_R   0.250388 0.301242 0.991637 0.048121
C102  C     C_R   0.250165 0.698971 0.492177 0.045066
C103  C     C_R   0.750729 0.801427 0.991493 0.043777
C104  C     C_R   0.750918 0.198456 0.492064 0.053161
C105  C     C_3   0.322049 0.556329 0.132893 -0.423811
C106  C     C_R   0.113668 0.339468 0.683133 -0.144036
C107  C     C_3   0.321009 0.443849 0.632531 -0.382275
C108  C     C_3   0.819777 0.058993 0.138433 -0.358677
C109  C     C_3   0.819975 0.943407 0.633716 -0.375929
C110  C     C_3   0.263086 0.642261 0.001880 -0.383918
C111  C     C_3   0.262964 0.357516 0.501250 -0.397884
C112  C     C_3   0.761864 0.142734 0.997045 -0.394180
C113  C     C_3   0.762918 0.857417 0.499004 -0.397772
C114  C     C_3   0.311324 0.556372 0.850397 -0.337766
C115  C     C_3   0.310887 0.443473 0.349615 -0.284349
C116  C     C_3   0.811669 0.055241 0.854755 -0.293917
F1    F     F_    0.154386 0.566869 0.915267 -0.721590
F2    F     F_    0.026320 0.907233 0.842213 -0.659647
F3    F     F_    0.534890 0.590919 0.365573 -0.639035
F4    F     F_    0.521394 0.406247 0.834661 -0.668158
F5    F     F_    0.039909 0.229886 0.828714 -0.789671
F6    F     F_    0.042188 0.767762 0.339336 -0.794840
F7    F     F_    0.543944 0.729156 0.843995 -0.738347
F8    F     F_    0.542298 0.267754 0.339980 -0.794577
F9    F     F_    0.966066 0.087988 0.958700 -0.664428
F10   F     F_    0.965610 0.910268 0.457342 -0.693278
F11   F     F_    0.554010 0.627434 0.034446 -0.636690
F12   F     F_    0.154283 0.433169 0.411989 -0.719510
F13   F     F_    0.465209 0.410502 0.454426 -0.687711
F14   F     F_    0.653770 0.066811 0.913766 -0.719388
F15   F     F_    0.654455 0.933179 0.408592 -0.718270
F16   F     F_    0.032562 0.111928 0.517446 -0.713685
F17   F     F_    0.946319 0.893995 0.018223 -0.742181
F18   F     F_    0.445380 0.606401 0.513807 -0.775285
F19   F     F_    0.446425 0.394218 0.022478 -0.756447
F20   F     F_    0.975833 0.109754 0.284938 -0.654987
H1    H     H_    0.946889 0.228877 0.347290 -0.031713
H2    H     H_    0.721490 0.584087 0.154008 0.093408
H3    H     H_    0.706311 0.722933 0.389646 0.131526
H4    H     H_    0.742187 0.674769 0.531924 0.136895
H5    H     H_    0.742647 0.324647 0.031219 0.142943
H6    H     H_    0.656432 0.337500 0.967924 0.142805
H7    H     H_    0.707484 0.275570 0.890033 0.126296
H8    H     H_    0.279985 0.392123 0.940044 0.134788
H9    H     H_    0.243742 0.379078 0.132177 0.167882
H10   H     H_    0.329687 0.361727 0.084331 0.152760
H11   H     H_    0.243166 0.621791 0.634757 0.167632
H12   H     H_    0.279466 0.607666 0.442943 0.134908
H13   H     H_    0.222473 0.916119 0.651163 0.067140
H14   H     H_    0.329168 0.638472 0.586683 0.156342
H15   H     H_    0.780185 0.892638 0.941899 0.134856
H16   H     H_    0.743497 0.878964 0.133312 0.168641
H17   H     H_    0.829572 0.862062 0.086273 0.154509
H18   H     H_    0.742198 0.121379 0.636118 0.173540
H19   H     H_    0.780698 0.106796 0.446983 0.130828
H20   H     H_    0.828381 0.137400 0.593470 0.094413
H21   H     H_    0.702217 0.599469 0.906777 0.153613
H22   H     H_    0.654301 0.631439 0.752248 0.133124
H23   H     H_    0.734445 0.599978 0.710495 0.114034
H24   H     H_    0.222368 0.084290 0.152356 0.067228
H25   H     H_    0.702117 0.400322 0.404750 0.131546
H26   H     H_    0.736154 0.399686 0.210002 0.134522
H27   H     H_    0.655679 0.368687 0.247512 0.108771
H28   H     H_    0.201677 0.099343 0.905211 0.128065
H29   H     H_    0.155104 0.131077 0.748220 0.139469
H30   H     H_    0.235567 0.099964 0.710380 0.136219
H31   H     H_    0.201535 0.900772 0.403856 0.131631
H32   H     H_    0.235909 0.899923 0.209554 0.135408
H33   H     H_    0.155327 0.868977 0.246320 0.109197
H34   H     H_    0.869926 0.420160 0.907693 0.135153
H35   H     H_    0.687010 0.466126 0.794386 0.158633
H36   H     H_    0.788203 0.424230 0.992753 0.120763
H37   H     H_    0.798701 0.375390 0.828809 0.028663
H38   H     H_    0.869496 0.579813 0.407851 0.135752
H39   H     H_    0.798128 0.624538 0.329244 0.028238
H40   H     H_    0.787887 0.575763 0.493406 0.123483
H41   H     H_    0.369505 0.919956 0.907908 0.134029
H42   H     H_    0.287920 0.924592 0.993285 0.120745
H43   H     H_    0.297829 0.875533 0.829666 0.027090
H44   H     H_    0.369808 0.079838 0.407789 0.133441
H45   H     H_    0.298337 0.124589 0.329654 0.026502
H46   H     H_    0.686554 0.533128 0.295433 0.170228
H47   H     H_    0.288220 0.075625 0.493347 0.121517
H48   H     H_    0.186868 0.966328 0.793711 0.160461
H49   H     H_    0.186922 0.033961 0.294562 0.154472
H50   H     H_    0.187108 0.532167 0.124633 -0.066025
H51   H     H_    0.186045 0.467162 0.622818 -0.065617
H52   H     H_    0.685566 0.032596 0.124084 -0.062723
H53   H     H_    0.969535 0.771828 0.975776 -0.109253
H54   H     H_    0.685162 0.966357 0.620869 -0.067727
H55   H     H_    0.994324 0.228813 0.531559 -0.142602
H56   H     H_    0.043367 0.814500 0.049476 -0.006821
H57   H     H_    0.540850 0.689080 0.551055 -0.031173
H58   H     H_    0.543892 0.315964 0.049446 -0.009197
H59   H     H_    0.932399 0.129403 0.490100 -0.181187
H60   H     H_    0.940109 0.857711 0.797960 -0.032721
H61   H     H_    0.449508 0.635629 0.287972 -0.024340
H62   H     H_    0.435308 0.355122 0.805966 -0.038094
H63   H     H_    0.045275 0.107061 0.824611 0.034094
H64   H     H_    0.466486 0.726893 0.463232 -0.115850
H65   H     H_    0.044297 0.891753 0.320495 0.008906
H66   H     H_    0.465587 0.597285 0.932005 -0.037258
H67   H     H_    0.544547 0.391492 0.320136 0.007897
H68   H     H_    0.077748 0.375110 0.646721 0.054161
H69   H     H_    0.077450 0.625285 0.147047 0.054192
H70   H     H_    0.577529 0.874772 0.647012 0.051473
H71   H     H_    0.577160 0.125576 0.147755 0.052685
H72   H     H_    0.819857 0.789367 0.264294 0.053105
H73   H     H_    0.819744 0.211266 0.765047 0.059949
H74   H     H_    0.319457 0.289326 0.264451 0.054920
H75   H     H_    0.470389 0.271328 0.982346 -0.121013
H76   H     H_    0.318748 0.711395 0.765489 0.049018
H77   H     H_    0.925624 0.624462 0.156471 0.045550
H78   H     H_    0.926202 0.375205 0.655586 0.048652
H79   H     H_    0.425662 0.124619 0.156235 0.044395
H80   H     H_    0.425551 0.875394 0.656052 0.043170
H81   H     H_    0.954063 0.182317 0.760781 -0.154408
H82   H     H_    0.957446 0.813953 0.258093 -0.066161
H83   H     H_    0.456997 0.689991 0.752074 -0.157542
H84   H     H_    0.457515 0.313656 0.257889 -0.064920
H85   H     H_    0.051567 0.135500 0.023082 0.069445
H86   H     H_    0.713680 0.498198 0.612268 0.120966
H87   H     H_    0.052438 0.864734 0.520422 0.068938
H88   H     H_    0.535515 0.605086 0.805504 0.006680
H89   H     H_    0.551764 0.365134 0.520684 0.071790
H90   H     H_    0.832703 0.479788 0.684724 0.054332
H91   H     H_    0.832197 0.520155 0.184973 0.054995
H92   H     H_    0.332779 0.979698 0.685152 0.052479
H93   H     H_    0.332634 0.020230 0.184919 0.052406
H94   H     H_    0.294768 0.559765 0.240399 0.101638
H95   H     H_    0.344754 0.509500 0.118812 0.165705
H96   H     H_    0.364993 0.589412 0.140310 0.155671
H97   H     H_    0.713401 0.501754 0.112567 0.115936
H98   H     H_    0.293007 0.441173 0.738993 0.083239
H99   H     H_    0.363698 0.410542 0.642574 0.205202
H100  H     H_    0.343948 0.490507 0.617899 0.168740
H101  H     H_    0.789854 0.059486 0.242030 0.066517
H102  H     H_    0.846522 0.013983 0.125953 0.182177
H103  H     H_    0.859792 0.094910 0.153840 0.230688
H104  H     H_    0.790949 0.940836 0.738637 0.080994
H105  H     H_    0.862317 0.909802 0.645536 0.201586
H106  H     H_    0.843460 0.989904 0.620567 0.149428
H107  H     H_    0.229936 0.658434 0.904085 0.165268
H108  H     H_    0.213831 0.998537 0.611994 0.122910
H109  H     H_    0.242907 0.654015 0.114449 0.075314
H110  H     H_    0.311461 0.667994 0.998433 0.126261
H111  H     H_    0.230052 0.341159 0.403272 0.163869
H112  H     H_    0.311510 0.331964 0.498164 0.141732
H113  H     H_    0.242798 0.345750 0.613787 0.073005
H114  H     H_    0.729175 0.157752 0.897408 0.167834
H115  H     H_    0.741233 0.155628 0.108170 0.075497
H116  H     H_    0.810201 0.168476 0.993676 0.139775
H117  H     H_    0.730481 0.841241 0.400096 0.165317
H118  H     H_    0.811560 0.831992 0.496890 0.140490
H119  H     H_    0.213653 0.001911 0.112348 0.119688
H120  H     H_    0.742195 0.845311 0.610707 0.073959
H121  H     H_    0.345502 0.515967 0.869573 0.152565
H122  H     H_    0.274413 0.544623 0.756381 0.122228
H123  H     H_    0.345099 0.594865 0.816857 0.109404
H124  H     H_    0.345566 0.483410 0.369369 0.179369
H125  H     H_    0.344110 0.404708 0.314960 0.164289
H126  H     H_    0.274103 0.456003 0.255912 0.099488
H127  H     H_    0.843542 0.013438 0.876632 0.177171
H128  H     H_    0.775363 0.044766 0.758629 0.099495
H129  H     H_    0.847176 0.092559 0.822543 0.155308
H130  H     H_    0.722494 0.415813 0.651960 0.068560
H131  H     H_    0.845333 0.984512 0.371676 0.168559
H132  H     H_    0.845682 0.905662 0.316950 0.167592
H133  H     H_    0.775451 0.955937 0.254976 0.097042
H134  H     H_    0.154996 0.162254 0.469891 0.181793
H135  H     H_    0.206616 0.223259 0.389872 0.117702
H136  H     H_    0.241685 0.174489 0.531575 0.135150
H137  H     H_    0.242568 0.824684 0.031175 0.142607
H138  H     H_    0.156368 0.837427 0.967674 0.145968
H139  H     H_    0.207564 0.775620 0.889685 0.125007
H140  H     H_    0.655662 0.661564 0.471239 0.160198
O1    O     O_2   0.130070 0.404060 0.104920 -0.399939
O2    O     O_3   0.949852 0.782979 0.486144 -0.583406
O3    O     O_3   0.449305 0.716756 0.983857 -0.601093
O4    O     O_3   0.449765 0.283009 0.486073 -0.582166
O5    O     O_3   0.924190 0.533610 0.949240 -0.499101
O6    O     O_3   0.924190 0.466390 0.449240 -0.498539
O7    O     O_3   0.424190 0.033610 0.949240 -0.499982
O8    O     O_3   0.424190 0.966390 0.449240 -0.500339
O9    O     O_3   0.075780 0.466370 0.861070 -0.446406
O10   O     O_3   0.075780 0.533630 0.361070 -0.446113
O11   O     O_3   0.575780 0.966370 0.861070 -0.446861
O12   O     O_2   0.130070 0.595940 0.604920 -0.400741
O13   O     O_3   0.575780 0.033630 0.361070 -0.447083
O14   O     O_3   0.022320 0.344950 0.359800 -0.447177
O15   O     O_3   0.022320 0.655050 0.859800 -0.431996
O16   O     O_3   0.522320 0.844950 0.359800 -0.438596
O17   O     O_3   0.522320 0.155050 0.859800 -0.431338
O18   O     O_2   0.134636 0.302107 0.250557 -0.451456
O19   O     O_2   0.134128 0.697647 0.751575 -0.443110
O20   O     O_2   0.634397 0.802604 0.252088 -0.431084
O21   O     O_2   0.633423 0.198509 0.751031 -0.443827
O22   O     O_3   0.210096 0.474226 0.941313 -0.696820
O23   O     O_2   0.630070 0.904060 0.104920 -0.397781
O24   O     O_3   0.209974 0.525655 0.441531 -0.700052
O25   O     O_3   0.709844 0.974448 0.942272 -0.698175
O26   O     O_3   0.709897 0.025623 0.441959 -0.700069
O27   O     O_3   0.049179 0.217685 0.327621 -0.575260
O28   O     O_3   0.047144 0.781641 0.821877 -0.592717
O29   O     O_3   0.548021 0.718185 0.320874 -0.544441
O30   O     O_3   0.545879 0.281757 0.823033 -0.590506
O31   O     O_2   0.869860 0.403670 0.205810 -0.473829
O32   O     O_2   0.869860 0.596330 0.705810 -0.472664
O33   O     O_2   0.369860 0.903670 0.205810 -0.472713
O34   O     O_2   0.630070 0.095940 0.604920 -0.401183
O35   O     O_2   0.369860 0.096330 0.705810 -0.473204
O36   O     O_3   0.977590 0.344880 0.951200 -0.437419
O37   O     O_3   0.977590 0.655120 0.451200 -0.431254
O38   O     O_3   0.477590 0.844880 0.951200 -0.433350
O39   O     O_3   0.477590 0.155120 0.451200 -0.431421
O40   O     O_2   0.863785 0.301944 0.049063 -0.495954
O41   O     O_2   0.863489 0.697860 0.549905 -0.493762
O42   O     O_2   0.363584 0.802121 0.050382 -0.493196
O43   O     O_2   0.363424 0.197866 0.549905 -0.492653
O44   O     O_3   0.791665 0.473196 0.375060 -0.658087
O45   O     O_3   0.791765 0.526767 0.874446 -0.662115
O46   O     O_3   0.291723 0.973274 0.374522 -0.659581
O47   O     O_3   0.291747 0.026810 0.874576 -0.658836
O48   O     O_3   0.950632 0.216906 0.986610 -0.574563
P1    P     P_3+3 0.136530 0.426510 0.931350 1.042785
P2    P     P_3+3 0.915425 0.711344 0.424636 1.012008
P3    P     P_3+3 0.415283 0.788840 0.924392 1.005837
P4    P     P_3+3 0.415372 0.211344 0.424631 1.012842
P5    P     P_3+3 0.084070 0.710940 0.881149 1.058806
P6    P     P_3+3 0.084761 0.289638 0.380962 1.064108
P7    P     P_3+3 0.583631 0.211310 0.881512 1.058250
P8    P     P_3+3 0.584211 0.789063 0.381122 1.082464
P9    P     P_3+3 0.136530 0.573490 0.431350 1.041784
P10   P     P_3+3 0.636530 0.926510 0.931350 1.043892
P11   P     P_3+3 0.636530 0.073490 0.431350 1.041217
P12   P     P_3+3 0.863410 0.426100 0.379280 0.954936
P13   P     P_3+3 0.863410 0.573900 0.879280 0.953375
P14   P     P_3+3 0.363410 0.926100 0.379280 0.955195
P15   P     P_3+3 0.363410 0.073900 0.879280 0.955844
P16   P     P_3+3 0.915900 0.288379 0.924154 1.014108

loop_
_geom_bond_atom_site_label_1
_geom_bond_atom_site_label_2
_ccdc_geom_bond_type
C1    F16   S    
C20   H44   S    
C85   H46   S    
C68   H74   S    
C73   P9    S    
C14   H26   S    
C112  H114  S    
Ba1   O14   S    
C80   O44   S    
O15   P5    S    
Ba2   O9    S    
Ba3   O16   S    
C115  H125  S    
C51   F19   S    
O33   P14   D    
C99   H57   S    
O23   P10   D    
C21   H71   S    
C46   C68   A    
C17   C79   S    
C29   F17   S    
O16   P8    S    
C93   C111  S    
Ba1   P1    S    
C17   H37   S    
C116  H127  S    
C92   C110  S    
Ba1   O6    S    
O48   P16   S    
C65   P3    S    
C21   C25   A    
Ba3   O8    S    
C81   C86   S    
C1    C97   S    
C82   H93   S    
C23   C27   A    
C29   C98   S    
O44   P12   S    
C8    H10   S    
C24   C28   A    
C94   C108  S    
C9    H11   S    
C19   H42   S    
C13   H70   S    
C58   F6    S    
C9    C102  S    
C12   H22   S    
C20   H45   S    
C11   C104  S    
C110  H107  S    
C111  H113  S    
C64   C68   A    
O21   P7    D    
C62   C106  A    
C86   H13   S    
C4    H136  S    
C10   C103  S    
C16   H32   S    
C78   H89   S    
C12   H21   S    
C87   H24   S    
O4    P4    S    
C57   O48   S    
C112  H116  S    
C37   C103  A    
C10   H16   S    
C100  H58   S    
Ba2   O15   S    
C44   C66   A    
C18   H39   S    
O17   P7    S    
C49   C54   A    
C94   C116  S    
C79   H90   S    
C92   C105  S    
C40   F3    S    
Ba4   O11   S    
C11   H20   S    
Ba1   O1    S    
C109  H105  S    
C76   H87   S    
O6    P12   S    
C9    H14   S    
C54   C63   A    
C45   C67   A    
C27   C32   A    
C96   C113  S    
C14   C71   S    
C66   H72   S    
C25   P7    S    
Ba3   P10   S    
C87   H49   S    
C20   H47   S    
C12   C70   S    
C58   C76   S    
C3    H132  S    
C39   C48   A    
C77   F11   S    
C44   C103  A    
C111  H111  S    
O39   P4    S    
C61   C66   A    
C88   C92   S    
Ba2   O12   S    
C114  H123  S    
C2    C23   A    
C23   P5    S    
C46   C101  A    
C100  O30   S    
C69   H76   S    
C89   F12   S    
C41   C49   A    
Ba4   P11   S    
C82   O46   S    
C40   C99   S    
C45   C104  A    
C57   H81   S    
C50   C55   A    
C24   P8    S    
C31   C72   A    
Ba4   O7    S    
O7    P15   S    
C59   H83   S    
C11   H18   S    
O14   P6    S    
C99   O29   S    
C110  H109  S    
C51   C100  S    
O25   P10   S    
C93   C115  S    
C19   H43   S    
C60   O4    S    
C115  H124  S    
C83   H86   S    
O8    P14   S    
C6    H4    S    
C28   C33   A    
Ba2   O5    S    
C105  H95   S    
O18   P6    D    
C91   H54   S    
C50   P15   S    
O38   P3    S    
Ba3   Ba4   S    
O46   P14   S    
C89   C93   S    
C36   C102  A    
O30   P7    S    
C40   F18   S    
C36   C73   A    
C14   H27   S    
C7    H6    S    
C22   C26   A    
C97   O27   S    
O19   P5    D    
C83   H35   S    
C107  H100  S    
C113  H118  S    
C54   H78   S    
C29   F2    S    
C114  H121  S    
C56   C65   A    
C57   C75   S    
C108  H102  S    
O2    P2    S    
C58   H82   S    
C33   C37   A    
C87   H119  S    
Ba1   O36   S    
O13   P11   S    
O43   P4    D    
C43   C74   A    
C62   P1    S    
C20   C82   S    
C43   C52   A    
C79   C83   S    
C33   C70   A    
C116  H128  S    
C77   H88   S    
C79   O45   S    
C89   O24   S    
C15   H30   S    
Ba1   O5    S    
C1    H59   S    
C2    H69   S    
Ba3   O7    S    
C1    F20   S    
Ba3   O33   S    
C15   C72   S    
C19   H41   S    
C82   C87   S    
C56   H80   S    
C83   H130  S    
C8    C101  S    
C93   C107  S    
C90   C94   S    
C85   H2    S    
C75   F9    S    
O24   P9    S    
C60   H84   S    
C99   H64   S    
C47   C69   A    
C21   C95   A    
C86   H108  S    
C65   C69   A    
O10   P9    S    
O5    P13   S    
C5    H137  S    
O3    P3    S    
Ba4   O35   S    
C100  H75   S    
C14   H25   S    
C88   H50   S    
O26   P11   S    
C89   H51   S    
C107  H98   S    
C3    C96   S    
C10   H17   S    
C55   H79   S    
C85   H97   S    
C81   O47   S    
Ba3   O13   S    
C18   H40   S    
C113  H120  S    
C91   C96   S    
Ba2   P9    S    
C43   C47   A    
C29   H60   S    
C67   H73   S    
C115  H126  S    
C25   C30   A    
C116  H129  S    
C52   C56   A    
C31   C35   A    
C11   H19   S    
C41   C45   A    
C109  H104  S    
C42   C50   A    
Ba4   P15   S    
Ba1   P12   S    
C22   P6    S    
C49   P12   S    
O9    P1    S    
C108  H101  S    
C35   C62   A    
C15   H28   S    
O28   P5    S    
C98   H53   S    
C98   O28   S    
C37   C84   A    
C51   F4    S    
C8    H9    S    
C58   O2    S    
C9    H12   S    
C53   C61   A    
O37   P2    S    
C4    C26   S    
C78   F13   S    
C3    H131  S    
O27   P6    S    
C95   P11   S    
C7    H7    S    
C53   H77   S    
Ba1   O10   S    
C63   C67   A    
O35   P15   D    
C4    H135  S    
C48   C53   A    
O41   P2    D    
C16   H31   S    
C17   H34   S    
C5    H139  S    
C106  H68   S    
C6    H140  S    
C88   F1    S    
O22   P1    S    
C97   H55   S    
C112  H115  S    
C10   H15   S    
C13   C84   A    
C52   P14   S    
C18   H38   S    
C42   C72   A    
O36   P16   S    
C59   O3    S    
Ba4   O8    S    
C26   C31   A    
C59   C77   S    
C92   C114  S    
C34   C38   A    
C109  H106  S    
C110  H110  S    
Ba1   Ba2   S    
Ba3   O38   S    
C80   H91   S    
C97   H1    S    
C108  H103  S    
C60   F8    S    
C90   O25   S    
C64   P4    S    
C39   C44   A    
C22   C106  A    
C91   O26   S    
Ba2   O6    S    
C59   F7    S    
C105  H94   S    
C39   C70   A    
C76   H65   S    
Ba1   O31   S    
Ba2   O32   S    
C81   H92   S    
Ba3   O23   S    
C78   H67   S    
O11   P10   S    
C34   C71   A    
C12   H23   S    
C76   F10   S    
C32   C36   A    
O29   P8    S    
Ba4   O34   S    
C7    H5    S    
C2    C73   A    
C111  H112  S    
C51   H62   S    
C107  H99   S    
C18   C80   S    
C55   C64   A    
C113  H117  S    
O34   P11   D    
C94   C112  S    
C16   H33   S    
C114  H122  S    
O12   P9    D    
C17   H36   S    
C91   F15   S    
C84   P10   S    
Ba4   O39   S    
C60   C78   S    
C63   P16   S    
O47   P15   S    
C75   H63   S    
C19   C81   S    
C40   H61   S    
C80   C85   S    
O45   P13   S    
Ba2   P13   S    
C35   C101  A    
C48   P13   S    
C88   O22   S    
C30   C34   A    
C13   C24   A    
C7    C30   S    
C96   C109  S    
C15   H29   S    
C3    H133  S    
C98   H56   S    
C42   C46   A    
Ba2   O37   S    
C16   C74   S    
C41   C71   A    
C8    H8    S    
C32   C74   A    
C38   C95   A    
Ba3   P14   S    
O32   P13   D    
C86   H48   S    
C47   C102  A    
O42   P3    D    
O20   P8    D    
C90   F14   S    
C75   H85   S    
O1    P1    D    
C6    H3    S    
C5    H138  S    
C90   H52   S    
C5    C27   S    
C105  H96   S    
C6    C28   S    
Ba4   O17   S    
C77   H66   S    
C57   F5    S    
O31   P12   D    
C38   C104  A    
O40   P16   D    
C4    H134  S    
C61   P2    S    
