data_mof_unit_50578.cif
_audit_creation_date              2012-12-10T20:27:52-0500
_audit_creation_method            fapswitch 2.2
_symmetry_space_group_name_H-M    P1
_symmetry_Int_Tables_number       1
_space_group_crystal_system       triclinic
_cell_length_a                    12.905689
_cell_length_b                    10.683248
_cell_length_c                    9.858182
_cell_angle_alpha                 89.679346
_cell_angle_beta                  96.921853
_cell_angle_gamma                 90.124766
_cell_volume                      1349.26442167

loop_
_atom_site_label
_atom_site_type_symbol
_atom_type_description
_atom_site_fract_x
_atom_site_fract_y
_atom_site_fract_z
_atom_type_partial_charge
C1    C     C_R   0.503463 0.259835 0.500775 0.884966
C2    C     C_R   0.029324 0.511306 0.567622 0.087598
C3    C     C_R   0.971281 0.500534 0.436882 0.121132
C4    C     C_R   0.864249 0.496142 0.425688 -0.272120
C5    C     C_R   0.870339 0.512806 0.672442 -0.236320
C6    C     C_R   0.978325 0.517354 0.685942 0.374957
C7    C     C_R   0.526495 0.062797 0.626590 0.142954
C8    C     C_R   0.521160 0.128456 0.503561 -0.105832
C9    C     C_R   0.537033 0.065429 0.383166 -0.219008
C10   C     C_R   0.537301 0.935965 0.382787 -0.215747
C11   C     C_R   0.521690 0.871233 0.502790 -0.106631
C12   C     C_R   0.298183 0.501389 0.473561 0.890049
C13   C     C_R   0.526710 0.935031 0.626106 0.133277
C14   C     C_3   0.458035 0.926095 0.737441 -0.456531
C15   C     C_3   0.457655 0.067851 0.737953 -0.497837
C16   C     C_R   0.410103 0.477094 0.057396 0.228746
C17   C     C_R   0.586379 0.534249 0.085240 -0.135306
C18   C     C_R   0.586427 0.534065 0.941340 -0.136671
C19   C     C_R   0.409947 0.477610 0.914773 0.236035
C20   C     C_3   0.345290 0.361658 0.899836 -0.495498
C21   C     C_3   0.345988 0.360797 0.053848 -0.489170
C22   C     C_R   0.503757 0.740036 0.500229 0.884916
C23   C     C_R   0.701811 0.500252 0.526554 0.911518
C24   C     C_R   0.813820 0.502509 0.542655 -0.121251
C25   C     C_R   0.186136 0.504355 0.458442 -0.089363
C26   C     C_R   0.020776 0.493936 0.318564 -0.162825
C27   C     C_R   0.128459 0.495677 0.329362 -0.170932
C28   C     C_R   0.136728 0.514607 0.576327 -0.227686
H1    H     H_    0.820422 0.487631 0.325099 0.166248
H2    H     H_    0.499271 0.884471 0.832555 0.207558
H3    H     H_    0.379627 0.108499 0.703186 0.206669
H4    H     H_    0.498837 0.107733 0.833582 0.205283
H5    H     H_    0.656641 0.560310 0.149912 0.153751
H6    H     H_    0.656677 0.559661 0.898123 0.154650
H7    H     H_    0.266623 0.378735 0.843892 0.232564
H8    H     H_    0.387958 0.281952 0.861805 0.205899
H9    H     H_    0.267676 0.377510 0.086016 0.219927
H10   H     H_    0.389283 0.280293 0.105182 0.209200
H11   H     H_    0.830840 0.517843 0.763212 0.186864
H12   H     H_    0.976350 0.486366 0.218334 0.167240
H13   H     H_    0.166262 0.489410 0.237456 0.177058
H14   H     H_    0.182398 0.524368 0.675057 0.206178
H15   H     H_    0.541451 0.114893 0.287785 0.172140
H16   H     H_    0.541821 0.887783 0.287272 0.174713
H17   H     H_    0.380310 0.884601 0.702573 0.211717
N1    N     N_R   0.499290 0.499140 0.142710 -0.113967
N2    N     N_R   0.499290 0.499180 0.857070 -0.113938
O1    O     O_R   0.500010 0.316790 0.614690 -0.615079
O2    O     O_R   0.500000 0.316760 0.385350 -0.624564
O3    O     O_R   0.346360 0.499990 0.595720 -0.625974
O4    O     O_R   0.346350 0.499960 0.366370 -0.619357
O5    O     O_R   0.500000 0.683240 0.614650 -0.616830
O6    O     O_R   0.499990 0.683210 0.385310 -0.620103
O7    O     O_R   0.653650 0.500040 0.633630 -0.632306
O8    O     O_R   0.653640 0.500010 0.404280 -0.633026
Zn1   Zn    Zn3+2 0.500010 0.500020 0.653130 0.949603
Zn2   Zn    Zn3+2 0.499990 0.499980 0.346870 0.949113
Cl1   Cl    Cl    0.045379 0.529623 0.852397 -0.698652

loop_
_geom_bond_atom_site_label_1
_geom_bond_atom_site_label_2
_ccdc_geom_bond_type
C12   O3    A    
C23   C24   S    
C1    O1    A    
C23   O8    A    
C16   C21   S    
O4    Zn2   S    
C22   O6    A    
C1    C8    S    
C11   C13   A    
C9    C10   A    
C6    Cl1   S    
C11   C22   S    
C4    H1    S    
C12   C25   S    
C18   N2    A    
C7    C15   S    
C17   C18   A    
C21   H9    S    
C7    C8    A    
C13   C14   S    
C17   N1    A    
C25   C28   A    
C15   H3    S    
C18   H6    S    
C26   H12   S    
C26   C27   A    
C2    C6    A    
C5    C24   A    
C17   H5    S    
C14   H2    S    
C16   C19   A    
C28   H14   S    
O6    Zn2   S    
C2    C3    A    
C14   H17   S    
O7    Zn1   S    
O8    Zn2   S    
N1    Zn2   S    
C5    C6    A    
C4    C24   A    
C19   N2    A    
C9    H15   S    
C25   C27   A    
C10   C11   A    
C10   H16   S    
C3    C4    A    
C20   H8    S    
O5    Zn1   S    
C7    C13   A    
C12   O4    A    
O2    Zn2   S    
C20   C21   S    
C23   O7    A    
C22   O5    A    
C16   N1    A    
O1    Zn1   S    
C5    H11   S    
C27   H13   S    
C14   C15   S    
N2    Zn1   S    
C2    C28   A    
C20   H7    S    
C1    O2    A    
C3    C26   A    
O3    Zn1   S    
C21   H10   S    
C19   C20   S    
C8    C9    A    
C15   H4    S    
