data_mof_unit_41562.cif
_audit_creation_date              2012-12-11T17:19:17-0500
_audit_creation_method            fapswitch 2.2
_symmetry_space_group_name_H-M    P1
_symmetry_Int_Tables_number       1
_space_group_crystal_system       triclinic
_cell_length_a                    14.921843
_cell_length_b                    7.28067
_cell_length_c                    13.569088
_cell_angle_alpha                 89.999986
_cell_angle_beta                  100.507614
_cell_angle_gamma                 90.0
_cell_volume                      1449.43883887

loop_
_atom_site_label
_atom_site_type_symbol
_atom_type_description
_atom_site_fract_x
_atom_site_fract_y
_atom_site_fract_z
_atom_type_partial_charge
O1    O     O_R   0.648180 0.355050 0.151550 -0.524733
O2    O     O_R   0.351820 0.644950 0.848450 -0.524733
O3    O     O_R   0.851820 0.855050 0.348450 -0.524733
O4    O     O_R   0.148180 0.144950 0.651550 -0.524733
O5    O     O_R   0.835240 0.681980 0.154280 -0.535518
O6    O     O_R   0.164760 0.318020 0.845720 -0.535518
O7    O     O_R   0.664760 0.181980 0.345720 -0.535518
O8    O     O_R   0.335240 0.818020 0.654280 -0.535518
C1    C     C_R   0.856349 0.514050 0.124767 0.712854
C2    C     C_R   0.143651 0.485950 0.875233 0.712854
C3    C     C_R   0.643651 0.014050 0.375233 0.712854
C4    C     C_R   0.356349 0.985950 0.624767 0.712854
O9    O     O_R   0.647870 0.684600 0.139630 -0.521922
O10   O     O_R   0.352130 0.315400 0.860370 -0.521922
O11   O     O_R   0.852130 0.184600 0.360370 -0.521922
O12   O     O_R   0.147870 0.815400 0.639630 -0.521922
O13   O     O_R   0.663110 0.857440 0.333700 -0.528467
O14   O     O_R   0.336890 0.142560 0.666300 -0.528467
O15   O     O_R   0.836890 0.357440 0.166300 -0.528467
O16   O     O_R   0.163110 0.642560 0.833700 -0.528467
C5    C     C_R   0.613495 0.516355 0.115207 0.751332
C6    C     C_R   0.386505 0.483645 0.884793 0.751331
C7    C     C_R   0.886505 0.016355 0.384793 0.751332
C8    C     C_R   0.113495 0.983645 0.615207 0.751332
H1    H     H_    0.489440 0.936937 0.755345 0.151296
H2    H     H_    0.510560 0.063063 0.244655 0.151297
H3    H     H_    0.010560 0.436938 0.744655 0.151297
H4    H     H_    0.989440 0.563062 0.255345 0.151297
O17   O     O_3   0.755220 0.522230 0.313690 -0.360590
O18   O     O_3   0.244780 0.477770 0.686310 -0.360590
O19   O     O_3   0.744780 0.022230 0.186310 -0.360590
O20   O     O_3   0.255220 0.977770 0.813690 -0.360590
V1    V     V_3+5 0.749030 0.796100 0.238190 1.565161
V2    V     V_3+5 0.250970 0.203900 0.761810 1.565161
V3    V     V_3+5 0.750970 0.296100 0.261810 1.565161
V4    V     V_3+5 0.249030 0.703900 0.738190 1.565160
C9    C     C_1   0.966894 0.005326 0.465805 -0.051618
C10   C     C_1   0.033106 0.994674 0.534194 -0.051618
C11   C     C_1   0.533106 0.505326 0.034194 -0.051618
C12   C     C_1   0.466894 0.494674 0.965806 -0.051618
C13   C     C_R   0.541122 0.936362 0.709025 -0.198772
C14   C     C_R   0.458878 0.063638 0.290975 -0.198771
C15   C     C_R   0.958878 0.436362 0.790975 -0.198771
C16   C     C_R   0.041122 0.563638 0.209025 -0.198771
C17   C     C_R   0.628536 0.899853 0.758368 0.156290
C18   C     C_R   0.371464 0.100147 0.241632 0.156290
C19   C     C_R   0.871464 0.399852 0.741632 0.156289
C20   C     C_R   0.128536 0.600148 0.258368 0.156288
C21   C     C_R   0.700321 0.897058 0.705684 0.229261
C22   C     C_R   0.299679 0.102941 0.294316 0.229261
C23   C     C_R   0.799679 0.397057 0.794316 0.229262
C24   C     C_R   0.200321 0.602942 0.205684 0.229262
C25   C     C_R   0.680820 0.910095 0.600319 0.103790
C26   C     C_R   0.319180 0.089905 0.399681 0.103790
C27   C     C_R   0.819180 0.410094 0.899681 0.103792
C28   C     C_R   0.180820 0.589906 0.100319 0.103792
C29   C     C_R   0.592154 0.960231 0.547266 -0.017666
C30   C     C_R   0.407846 0.039769 0.452734 -0.017665
C31   C     C_R   0.907846 0.460231 0.952734 -0.017665
C32   C     C_R   0.092154 0.539769 0.047266 -0.017665
C33   C     C_R   0.520244 0.967619 0.604458 0.012993
C34   C     C_R   0.479756 0.032381 0.395542 0.012993
C35   C     C_R   0.979756 0.467619 0.895542 0.012993
C36   C     C_R   0.020244 0.532381 0.104458 0.012993
C37   C     C_R   0.571980 0.000115 0.441462 -0.098480
C38   C     C_R   0.428020 0.999885 0.558538 -0.098480
C39   C     C_R   0.928020 0.500115 0.058538 -0.098481
C40   C     C_R   0.071980 0.499885 0.941461 -0.098480
I1    I     I_    0.641742 0.810348 0.908051 -0.402892
I2    I     I_    0.358258 0.189652 0.091949 -0.402893
I3    I     I_    0.858258 0.310348 0.591949 -0.402894
I4    I     I_    0.141742 0.689651 0.408051 -0.402893
N1    N     N_3   0.207119 0.133012 0.243596 -0.624172
H5    H     H_    0.201106 0.131471 0.165937 0.260236
H6    H     H_    0.168439 0.021099 0.259817 0.258410
N2    N     N_3   0.792881 0.866988 0.756403 -0.624172
H7    H     H_    0.798894 0.868529 0.834063 0.260236
H8    H     H_    0.831561 0.978900 0.740182 0.258410
N3    N     N_3   0.292881 0.633013 0.256403 -0.624172
H9    H     H_    0.298894 0.631476 0.334063 0.260236
H10   H     H_    0.331561 0.521099 0.240184 0.258410
N4    N     N_3   0.707119 0.366987 0.743597 -0.624172
H11   H     H_    0.701106 0.368523 0.665937 0.260236
H12   H     H_    0.668439 0.478901 0.759816 0.258410
I5    I     I_    0.779711 0.773844 0.536186 -0.336794
I6    I     I_    0.220289 0.226156 0.463814 -0.336794
I7    I     I_    0.720289 0.273844 0.963814 -0.336794
I8    I     I_    0.279711 0.726156 0.036186 -0.336794

loop_
_geom_bond_atom_site_label_1
_geom_bond_atom_site_label_2
_ccdc_geom_bond_type
C30   C34   A    
O1    C5    A    
C27   C31   A    
N1    H5    S    
O3    C7    A    
C13   C33   A    
C15   C35   A    
C16   C36   A    
O7    C3    A    
O1    V3    S    
C22   C26   A    
N2    H8    S    
O8    V4    S    
O4    C8    A    
C28   I8    S    
O3    V1    S    
C14   C18   A    
C31   C39   A    
C33   C38   A    
C30   C38   A    
C2    O16   A    
O5    V1    S    
O2    C6    A    
C8    C10   S    
O19   V1    S    
C24   N3    S    
C14   C34   A    
O11   C7    A    
O12   C8    A    
N1    H6    S    
O13   V1    S    
C20   I4    S    
O11   V3    S    
C1    O15   A    
O4    V2    S    
C17   I1    S    
C36   C39   A    
N2    H7    S    
C22   N1    S    
H1    C13   S    
C11   C12   T    
N3    H10   S    
C25   C29   A    
C19   C23   A    
C7    C9    S    
C4    C38   S    
H4    C16   S    
O6    V2    S    
O20   V2    S    
C3    C37   S    
C1    C39   S    
O5    C1    A    
C9    C10   T    
C5    C11   S    
C17   C21   A    
O8    C4    A    
C6    C12   S    
C21   N2    S    
O9    C5    A    
O14   V2    S    
C23   N4    S    
C19   I3    S    
N4    H11   S    
N4    H12   S    
H2    C14   S    
C26   I6    S    
C26   C30   A    
O2    V4    S    
O17   V3    S    
C35   C40   A    
C3    O13   A    
C34   C37   A    
O7    V3    S    
C29   C37   A    
O10   V2    S    
C29   C33   A    
C2    C40   S    
C18   C22   A    
C31   C35   A    
O18   V4    S    
C32   C36   A    
O10   C6    A    
O15   V3    S    
O12   V4    S    
C24   C28   A    
C21   C25   A    
C23   C27   A    
C27   I7    S    
C18   I2    S    
O6    C2    A    
N3    H9    S    
O16   V4    S    
H3    C15   S    
C20   C24   A    
C28   C32   A    
C32   C40   A    
O9    V1    S    
C4    O14   A    
C13   C17   A    
C25   I5    S    
C15   C19   A    
C16   C20   A    
