data_mof_unit_6649.cif
_audit_creation_date              2012-12-10T16:55:00-0500
_audit_creation_method            fapswitch 2.2
_symmetry_space_group_name_H-M    P1
_symmetry_Int_Tables_number       1
_space_group_crystal_system       triclinic
_cell_length_a                    8.069032
_cell_length_b                    8.587281
_cell_length_c                    15.688377
_cell_angle_alpha                 91.646162
_cell_angle_beta                  87.358231
_cell_angle_gamma                 92.055926
_cell_volume                      1084.81058202

loop_
_atom_site_label
_atom_site_type_symbol
_atom_type_description
_atom_site_fract_x
_atom_site_fract_y
_atom_site_fract_z
_atom_type_partial_charge
C1    C     C_R   0.542479 0.792396 0.495485 0.851928
C2    C     C_2   0.443106 0.046142 0.519017 0.199761
C3    C     C_R   0.504295 0.500838 0.660508 0.870013
C4    C     C_R   0.457589 0.207706 0.504136 0.870147
C5    C     C_R   0.496252 0.501057 0.339508 0.873075
C6    C     C_3   0.353169 0.616143 0.948493 0.114256
C7    C     C_3   0.676317 0.625494 0.952196 0.622459
C8    C     C_3   0.672342 0.608514 0.053975 0.373626
C9    C     C_1   0.487843 0.505050 0.250968 -0.214222
C10   C     C_3   0.520666 0.529740 0.916296 0.005941
C11   C     C_3   0.334111 0.774298 0.102989 -0.219458
C12   C     C_3   0.346165 0.608891 0.053701 0.447701
C13   C     C_3   0.161460 0.844669 0.111440 -0.888800
C14   C     C_3   0.188474 0.549716 0.905468 -0.373107
C15   C     C_3   0.145970 0.377908 0.884298 -0.714287
C16   C     C_3   0.612535 0.210584 0.082611 -0.310204
C17   C     C_3   0.563330 0.142412 0.170278 -0.890068
C18   C     C_3   0.984511 0.675584 0.570165 -0.110945
C19   C     C_3   0.070435 0.705522 0.653547 -0.851936
C20   C     C_3   0.350193 0.795292 0.917710 -0.325472
C21   C     C_3   0.392612 0.835400 0.823393 -0.811662
C22   C     C_3   0.836941 0.538272 0.081705 -0.341836
C23   C     C_3   0.504181 0.513868 0.083228 -0.105103
C24   C     C_3   0.855805 0.518291 0.177908 -0.802538
C25   C     C_3   0.497944 0.337287 0.044662 0.403571
C26   C     C_3   0.538227 0.351763 0.945998 0.662164
C27   C     C_1   0.491630 0.506988 0.175367 0.134381
C28   C     C_1   0.526050 0.521414 0.824024 0.104303
C29   C     C_1   0.517883 0.510221 0.748873 -0.208416
C30   C     C_2   0.557248 0.954214 0.480399 0.198477
H1    H     H_    0.007869 0.371978 0.441156 0.195665
H2    H     H_    0.087493 0.598081 0.945296 0.240540
H3    H     H_    0.171248 0.602817 0.843448 0.218110
H4    H     H_    0.155057 0.455184 0.047852 0.378658
H5    H     H_    0.580630 0.227029 0.223337 0.259317
H6    H     H_    0.434894 0.092913 0.173713 0.263299
H7    H     H_    0.645949 0.045163 0.181685 0.275954
H8    H     H_    0.609359 0.107449 0.038123 0.239613
H9    H     H_    0.744184 0.242864 0.083690 0.208178
H10   H     H_    0.736090 0.923107 0.393420 0.340468
H11   H     H_    0.265233 0.077638 0.606552 0.343664
H12   H     H_    0.096662 0.840116 0.051102 0.237636
H13   H     H_    0.066662 0.597910 0.691340 0.249090
H14   H     H_    0.199635 0.747886 0.641274 0.327834
H15   H     H_    0.005514 0.797489 0.691970 0.218887
H16   H     H_    0.998571 0.780698 0.530451 0.194972
H17   H     H_    0.855752 0.656065 0.590533 0.234876
H18   H     H_    0.527107 0.829997 0.806739 0.292055
H19   H     H_    0.324287 0.762811 0.776834 0.241045
H20   H     H_    0.358090 0.957118 0.812851 0.252312
H21   H     H_    0.223927 0.839536 0.929937 0.185518
H22   H     H_    0.425946 0.879405 0.953456 0.252055
H23   H     H_    0.083246 0.783522 0.160862 0.287009
H24   H     H_    0.831436 0.600324 0.852926 0.344492
H25   H     H_    0.792007 0.829416 0.937983 0.340258
H26   H     H_    0.771548 0.819732 0.080045 0.342765
H27   H     H_    0.810915 0.621382 0.215234 0.279828
H28   H     H_    0.791393 0.410623 0.200161 0.253572
H29   H     H_    0.986857 0.505677 0.193063 0.287427
H30   H     H_    0.872930 0.434215 0.043997 0.237346
H31   H     H_    0.934195 0.624098 0.062678 0.236855
H32   H     H_    0.462242 0.139967 0.915173 0.360935
H33   H     H_    0.716705 0.285627 0.864586 0.362101
H34   H     H_    0.173231 0.968811 0.132734 0.249045
H35   H     H_    0.301132 0.275152 0.116119 0.366407
H36   H     H_    0.368594 0.764290 0.170070 0.222254
H37   H     H_    0.421086 0.865960 0.080016 0.220896
H38   H     H_    0.219194 0.338215 0.826709 0.279137
H39   H     H_    0.152724 0.299489 0.938285 0.312299
H40   H     H_    0.016244 0.366168 0.864567 0.261178
N1    N     N_2   0.950340 0.457950 0.477370 -0.160050
N2    N     N_2   0.049660 0.542050 0.522630 -0.054899
O1    O     O_R   0.389240 0.738570 0.505550 -0.562916
O2    O     O_3   0.674384 0.010923 0.420242 -0.781122
O3    O     O_3   0.326694 0.989924 0.579457 -0.809879
O4    O     O_3   0.820860 0.565250 0.912833 -0.844142
O5    O     O_3   0.677865 0.784167 0.932025 -0.816855
O6    O     O_3   0.668766 0.757463 0.094753 -0.813044
O7    O     O_3   0.434776 0.247273 0.900605 -0.783045
O8    O     O_3   0.702089 0.303395 0.927310 -0.825918
O9    O     O_3   0.337329 0.268983 0.054888 -0.782699
O10   O     O_R   0.678400 0.711630 0.491050 -0.678579
O11   O     O_R   0.355360 0.513470 0.630110 -0.614048
O12   O     O_R   0.644510 0.486530 0.615610 -0.640362
O13   O     O_R   0.321600 0.288370 0.508950 -0.639330
O14   O     O_R   0.610760 0.261430 0.494450 -0.553339
O15   O     O_R   0.355490 0.513470 0.384390 -0.612297
O16   O     O_R   0.644640 0.486530 0.369890 -0.606127
O17   O     O_3   0.203323 0.530999 0.087764 -0.799921
Zn1   Zn    Zn3+2 0.306930 0.517990 0.509680 0.964393
Zn2   Zn    Zn3+2 0.693070 0.482010 0.490320 0.956877

loop_
_geom_bond_atom_site_label_1
_geom_bond_atom_site_label_2
_ccdc_geom_bond_type
C7    C10   S    
C8    O6    S    
C18   H17   S    
C14   H3    S    
C21   H19   S    
C7    C8    S    
C12   C23   S    
C28   C29   T    
O1    Zn1   S    
C20   H21   S    
O14   Zn2   S    
C22   H30   S    
H25   O5    S    
H11   O3    S    
C8    C23   S    
H26   O6    S    
C18   C19   S    
C3    C29   S    
C21   H20   S    
C5    O16   A    
C11   H37   S    
C24   H27   S    
C8    C22   S    
O12   Zn2   S    
C23   C27   S    
C11   H36   S    
C7    O5    S    
C21   H18   S    
C10   C26   S    
H1    N1    S    
C25   O9    S    
C18   H16   S    
C13   H12   S    
C19   H13   S    
C13   H23   S    
H33   O8    S    
C18   N2    S    
C15   H39   S    
C12   O17   S    
C16   C17   S    
C4    O13   A    
C25   C26   S    
O11   Zn1   S    
C26   O8    S    
O10   Zn2   S    
C2    C4    S    
C5    C9    S    
C6    C14   S    
N2    Zn1   S    
H32   O7    S    
H35   O9    S    
O16   Zn2   S    
C11   C12   S    
N1    Zn2   S    
C17   H7    S    
H24   O4    S    
C17   H6    S    
C3    O11   A    
C22   C24   S    
C19   H14   S    
C9    C27   T    
C10   C28   S    
C16   C25   S    
C15   H40   S    
C14   H2    S    
C6    C10   S    
O13   Zn1   S    
C19   H15   S    
C7    O4    S    
C6    C20   S    
C26   O7    S    
C2    C30   D    
C1    O1    A    
C1    O10   A    
H4    O17   S    
N1    N2    D    
C20   H22   S    
C22   H31   S    
C6    C12   S    
C11   C13   S    
C13   H34   S    
C24   H29   S    
C30   O2    S    
C15   H38   S    
C1    C30   S    
H10   O2    S    
C23   C25   S    
C16   H9    S    
C5    O15   A    
C4    O14   A    
C20   C21   S    
C24   H28   S    
O15   Zn1   S    
C3    O12   A    
C14   C15   S    
C17   H5    S    
C2    O3    S    
C16   H8    S    
