data_mof_unit_41078.cif
_audit_creation_date              2012-12-10T17:33:50-0500
_audit_creation_method            fapswitch 2.2
_symmetry_space_group_name_H-M    P1
_symmetry_Int_Tables_number       1
_space_group_crystal_system       triclinic
_cell_length_a                    10.706469
_cell_length_b                    11.972332
_cell_length_c                    12.833446
_cell_angle_alpha                 93.350721
_cell_angle_beta                  89.232509
_cell_angle_gamma                 86.651471
_cell_volume                      1639.15997857

loop_
_atom_site_label
_atom_site_type_symbol
_atom_type_description
_atom_site_fract_x
_atom_site_fract_y
_atom_site_fract_z
_atom_type_partial_charge
C1    C     C_R   0.499174 0.522164 0.700464 0.884420
C2    C     C_R   0.500011 0.449467 0.974800 0.149005
C3    C     C_R   0.550949 0.545203 0.023921 0.167935
C4    C     C_R   0.742142 0.501297 0.501647 0.895889
C5    C     C_R   0.572671 0.547779 0.130840 0.023827
C6    C     C_R   0.477039 0.367226 0.138598 -0.244890
C7    C     C_R   0.468265 0.359325 0.031580 -0.241471
C8    C     C_R   0.397388 0.952377 0.390862 -0.006646
C9    C     C_R   0.407002 0.835856 0.403165 -0.017927
C10   C     C_R   0.538201 0.859888 0.549107 -0.090561
C11   C     C_R   0.533785 0.976680 0.539629 0.060299
C12   C     C_3   0.121765 0.501224 0.505129 0.010122
C13   C     C_R   0.462564 0.023841 0.459695 0.070533
C14   C     C_R   0.459048 0.141387 0.451533 -0.049912
C15   C     C_R   0.592813 0.162813 0.596294 0.013824
C16   C     C_R   0.508206 0.477944 0.299708 0.871519
C17   C     C_R   0.599207 0.047022 0.607964 -0.330986
C18   C     C_R   0.257989 0.500338 0.504174 0.858950
C19   C     C_3   0.926568 0.444125 0.601120 -0.090738
C20   C     C_3   0.072924 0.427002 0.593491 -0.133533
C21   C     C_3   0.937945 0.432105 0.403188 -0.179155
C22   C     C_3   0.923482 0.626906 0.504411 -0.032216
C23   C     C_3   0.080155 0.455250 0.393839 -0.098191
C24   C     C_3   0.878442 0.503206 0.501998 0.059561
C25   C     C_3   0.864250 0.432167 0.298759 -0.387451
C26   C     C_3   0.890059 0.321205 0.232514 -0.354047
C27   C     C_3   0.843316 0.328956 0.121119 -0.882965
C28   C     C_3   0.115807 0.536220 0.306596 -0.372057
C29   C     C_3   0.156083 0.477478 0.200930 -0.379802
C30   C     C_3   0.208354 0.560650 0.128153 -0.876539
C31   C     C_3   0.139678 0.437485 0.701031 -0.379079
C32   C     C_3   0.117729 0.336548 0.767075 -0.352860
C33   C     C_3   0.133756 0.365500 0.883277 -0.906863
C34   C     C_3   0.064020 0.623008 0.526545 -0.431571
C35   C     C_R   0.522908 0.463142 0.188462 -0.090361
C36   C     C_R   0.507984 0.535474 0.811495 -0.038817
C37   C     C_R   0.576434 0.636926 0.965150 -0.219915
C38   C     C_R   0.554111 0.632217 0.859069 -0.207898
C39   C     C_R   0.480285 0.445099 0.869124 -0.296827
H1    H     H_    0.890359 0.358565 0.600229 0.126965
H2    H     H_    0.654725 0.012847 0.669853 0.140061
H3    H     H_    0.358592 0.779596 0.350795 0.131447
H4    H     H_    0.591165 0.822610 0.610793 0.132278
H5    H     H_    0.094988 0.338548 0.563695 0.138919
H6    H     H_    0.936022 0.343137 0.424340 0.143864
H7    H     H_    0.132095 0.372890 0.375346 0.132416
H8    H     H_    0.908649 0.658439 0.425323 0.126730
H9    H     H_    0.083044 0.650424 0.608812 0.174070
H10   H     H_    0.740053 0.340338 0.121507 0.281944
H11   H     H_    0.883382 0.399962 0.082945 0.253200
H12   H     H_    0.106279 0.684953 0.477515 0.171064
H13   H     H_    0.871315 0.250136 0.074636 0.247585
H14   H     H_    0.991440 0.295784 0.229946 0.213241
H15   H     H_    0.841963 0.253428 0.269561 0.221388
H16   H     H_    0.762385 0.438739 0.314004 0.189278
H17   H     H_    0.882922 0.505107 0.253277 0.202222
H18   H     H_    0.238511 0.516489 0.052965 0.265489
H19   H     H_    0.135380 0.627066 0.112435 0.250206
H20   H     H_    0.290361 0.600219 0.163274 0.270071
H21   H     H_    0.228634 0.409543 0.212653 0.222188
H22   H     H_    0.075906 0.441014 0.161567 0.248013
H23   H     H_    0.442736 0.300505 0.182678 0.168543
H24   H     H_    0.040690 0.601533 0.295034 0.186066
H25   H     H_    0.196553 0.584158 0.331274 0.217127
H26   H     H_    0.677358 0.613541 0.251097 0.189128
H27   H     H_    0.726610 0.638304 0.134934 0.158567
H28   H     H_    0.881607 0.453378 0.759944 0.193305
H29   H     H_    0.923551 0.576584 0.716142 0.215806
H30   H     H_    0.289123 0.932776 0.261183 0.178746
H31   H     H_    0.245222 0.041758 0.344059 0.166418
H32   H     H_    0.228451 0.394899 0.897672 0.265339
H33   H     H_    0.062672 0.432066 0.911586 0.261674
H34   H     H_    0.612122 0.712712 0.000459 0.157476
H35   H     H_    0.121677 0.290047 0.927903 0.252049
H36   H     H_    0.022863 0.305794 0.755506 0.216265
H37   H     H_    0.185724 0.266117 0.741718 0.216278
H38   H     H_    0.242295 0.439112 0.690364 0.199314
H39   H     H_    0.112054 0.517806 0.744659 0.198800
H40   H     H_    0.913336 0.763771 0.614787 0.163880
H41   H     H_    0.790806 0.755843 0.540342 0.196112
H42   H     H_    0.430130 0.285678 0.993891 0.152326
H43   H     H_    0.576557 0.702285 0.813900 0.156736
H44   H     H_    0.443670 0.370602 0.831407 0.160624
H45   H     H_    0.404780 0.180735 0.391732 0.139693
H46   H     H_    0.642825 0.217098 0.649290 0.132904
N1    N     N_R   0.523380 0.207800 0.519350 -0.104925
N2    N     N_R   0.476620 0.792180 0.480650 -0.109096
N3    N     N_3   0.643903 0.635476 0.178753 -0.449449
N4    N     N_3   0.875955 0.504939 0.697150 -0.438887
N5    N     N_3   0.323309 0.997508 0.308922 -0.479291
N6    N     N_3   0.854522 0.705720 0.580721 -0.439178
O1    O     O_R   0.506240 0.421700 0.658830 -0.631188
O2    O     O_R   0.491240 0.609310 0.646410 -0.621902
O3    O     O_R   0.692710 0.406190 0.506230 -0.639081
O4    O     O_R   0.677700 0.593810 0.493810 -0.623458
O5    O     O_R   0.508760 0.390690 0.353590 -0.627399
O6    O     O_R   0.493760 0.578300 0.341170 -0.617193
O7    O     O_R   0.322300 0.406190 0.506190 -0.635413
O8    O     O_R   0.307290 0.593810 0.493770 -0.635510
Zn1   Zn    Zn3+2 0.510020 0.374730 0.508290 0.924528
Zn2   Zn    Zn3+2 0.489980 0.625270 0.491710 0.929014

loop_
_geom_bond_atom_site_label_1
_geom_bond_atom_site_label_2
_ccdc_geom_bond_type
C8    C13   A    
C2    C7    A    
C25   H17   S    
C14   H45   S    
C32   H36   S    
C12   C23   S    
C26   C27   S    
C37   C38   A    
H26   N3    S    
C28   C29   S    
C16   C35   S    
H27   N3    S    
C4    C24   S    
C16   O6    A    
C30   H18   S    
C5    C35   A    
H28   N4    S    
C6    C35   A    
C21   C25   S    
C33   H33   S    
N2    Zn2   S    
C5    N3    S    
C2    C39   A    
C19   C20   S    
C8    C9    A    
C22   N6    S    
N1    Zn1   S    
H40   N6    S    
C27   H11   S    
C15   H46   S    
C22   H8    S    
C23   H7    S    
C13   C14   A    
C38   H43   S    
H31   N5    S    
C26   H15   S    
C20   H5    S    
C31   H38   S    
C21   H6    S    
C22   C34   S    
C29   H22   S    
C10   N2    A    
C16   O5    A    
C14   N1    A    
C19   H1    S    
O2    Zn2   S    
C30   H19   S    
C25   C26   S    
C34   H12   S    
C29   C30   S    
C19   N4    S    
C4    O4    A    
C31   C32   S    
C29   H21   S    
O3    Zn1   S    
C30   H20   S    
C12   C20   S    
H29   N4    S    
C9    H3    S    
C23   C28   S    
C15   N1    A    
C4    O3    A    
C28   H25   S    
C7    H42   S    
C1    O1    A    
O7    Zn1   S    
C21   C23   S    
C22   C24   S    
C34   H9    S    
C18   O8    A    
C12   C34   S    
H30   N5    S    
C26   H14   S    
C27   H13   S    
O1    Zn1   S    
C31   H39   S    
C15   C17   A    
C37   H34   S    
C11   C17   A    
O8    Zn2   S    
C10   H4    S    
C36   C39   A    
C25   H16   S    
C3    C5    A    
C32   H37   S    
C6    C7    A    
C32   C33   S    
C6    H23   S    
H41   N6    S    
C36   C38   A    
C2    C3    A    
C39   H44   S    
C9    N2    A    
C11   C13   A    
O5    Zn1   S    
C19   C24   S    
C17   H2    S    
C10   C11   A    
C33   H32   S    
C28   H24   S    
C27   H10   S    
C33   H35   S    
C8    N5    S    
C3    C37   A    
C1    O2    A    
C21   C24   S    
C12   C18   S    
C18   O7    A    
O6    Zn2   S    
O4    Zn2   S    
C1    C36   S    
C20   C31   S    
