data_mof_unit_32527.cif
_audit_creation_date              2012-12-11T15:43:03-0500
_audit_creation_method            fapswitch 2.2
_symmetry_space_group_name_H-M    P1
_symmetry_Int_Tables_number       1
_space_group_crystal_system       triclinic
_cell_length_a                    18.991575
_cell_length_b                    10.932257
_cell_length_c                    18.76385
_cell_angle_alpha                 89.960324
_cell_angle_beta                  89.603896
_cell_angle_gamma                 90.194263
_cell_volume                      3895.64866229

loop_
_atom_site_label
_atom_site_type_symbol
_atom_type_description
_atom_site_fract_x
_atom_site_fract_y
_atom_site_fract_z
_atom_type_partial_charge
C1    C     C_R   0.730598 0.377213 0.146209 0.551227
C2    C     C_R   0.034662 0.999115 0.024129 -0.135735
C3    C     C_R   0.756905 0.450082 0.567803 -0.018845
C4    C     C_R   0.730318 0.381705 0.351116 0.553131
C5    C     C_R   0.268463 0.382881 0.649822 0.559077
C6    C     C_R   0.230317 0.881704 0.351116 0.553066
C7    C     C_R   0.768463 0.882880 0.649823 0.566101
C8    C     C_R   0.565010 0.152678 0.360746 0.553071
C9    C     C_R   0.470161 0.157407 0.648127 0.545134
C10   C     C_R   0.065010 0.652678 0.360747 0.553501
C11   C     C_R   0.970163 0.657407 0.648130 0.546096
C12   C     C_R   0.740362 0.974126 0.355864 0.537177
C13   C     C_R   0.534820 0.491318 0.954917 -0.131788
C14   C     C_R   0.260328 0.976319 0.643426 0.544093
C15   C     C_R   0.240359 0.474135 0.355868 0.536968
C16   C     C_R   0.760328 0.476322 0.643426 0.545801
C17   C     C_R   0.490621 0.161072 0.928068 -0.001750
C18   C     C_R   0.498374 0.170063 0.077014 -0.006797
C19   C     C_R   0.990116 0.660106 0.928142 -0.005662
C20   C     C_R   0.998639 0.671690 0.076918 -0.008195
C21   C     C_R   0.508352 0.272980 0.961347 0.011690
C22   C     C_R   0.505421 0.280356 0.036676 0.026546
C23   C     C_R   0.012428 0.770195 0.960252 0.003397
C24   C     C_R   0.523796 0.501612 0.027903 -0.140298
C25   C     C_R   0.009588 0.780055 0.035464 0.023609
C26   C     C_R   0.479444 0.061912 0.042885 -0.164695
C27   C     C_R   0.476151 0.057198 0.969922 -0.150272
C28   C     C_R   0.975275 0.565243 0.043925 -0.165304
C29   C     C_R   0.971199 0.559434 0.970959 -0.149876
C30   C     C_R   0.778310 0.843760 0.937945 0.012900
C31   C     C_R   0.255315 0.925348 0.078732 0.019456
C32   C     C_R   0.265655 0.380552 0.933978 0.017859
C33   C     C_R   0.754227 0.424616 0.078194 0.019078
C34   C     C_R   0.713033 0.823798 0.970700 0.006007
C35   C     C_R   0.302355 0.858064 0.036274 0.006489
C36   C     C_R   0.202921 0.349911 0.968123 -0.002413
C37   C     C_R   0.273540 0.368049 0.857670 0.544344
C38   C     C_R   0.803437 0.360780 0.036397 0.003457
C39   C     C_R   0.702645 0.850908 0.041948 0.005847
C40   C     C_R   0.304303 0.874211 0.963249 0.010009
C41   C     C_R   0.196656 0.362874 0.041039 0.003945
C42   C     C_R   0.805111 0.375298 0.963162 0.007066
C43   C     C_R   0.825554 0.901291 0.053338 -0.154747
C44   C     C_R   0.219387 0.036250 0.974268 -0.137321
C45   C     C_R   0.320301 0.410145 0.049459 -0.161248
C46   C     C_R   0.713081 0.525539 0.972515 -0.140820
C47   C     C_R   0.835779 0.874522 0.981145 -0.152408
C48   C     C_R   0.230716 0.877396 0.146311 0.550593
C49   C     C_R   0.219251 0.023294 0.047873 -0.142309
C50   C     C_R   0.326150 0.399766 0.975830 -0.144856
C51   C     C_R   0.714259 0.516498 0.046081 -0.140413
C52   C     C_3   0.641853 0.869098 0.950484 -0.266515
C53   C     C_3   0.311976 0.722810 0.029159 -0.245208
C54   C     C_3   0.130649 0.396058 0.954453 -0.283073
C55   C     C_3   0.817680 0.226593 0.030584 -0.246789
C56   C     C_3   0.630471 0.899339 0.028583 -0.259597
C57   C     C_3   0.315024 0.741339 0.949168 -0.280484
C58   C     C_3   0.123749 0.412584 0.034351 -0.247235
C59   C     C_R   0.788478 0.829198 0.861336 0.559448
C60   C     C_3   0.820461 0.243359 0.950453 -0.276390
C61   C     C_R   0.757285 0.899439 0.082897 0.009851
C62   C     C_R   0.257332 0.954200 0.930918 0.024091
C63   C     C_R   0.253760 0.404058 0.081689 0.010077
C64   C     C_R   0.755253 0.448829 0.929925 0.020648
C65   C     C_R   0.530515 0.156536 0.147449 0.546530
C66   C     C_R   0.467502 0.154918 0.853939 0.533091
C67   C     C_R   0.030638 0.656797 0.147363 0.544153
C68   C     C_R   0.967398 0.654693 0.853951 0.524636
C69   C     C_R   0.497869 0.165111 0.576626 0.029488
C70   C     C_R   0.527820 0.378078 0.921749 -0.095493
C71   C     C_R   0.543204 0.159663 0.434439 0.019717
C72   C     C_R   0.997873 0.665108 0.576628 0.029247
C73   C     C_R   0.043205 0.659665 0.434440 0.019601
C74   C     C_R   0.449867 0.153303 0.521295 0.037662
C75   C     C_R   0.472059 0.152264 0.451574 0.086146
C76   C     C_R   0.949871 0.653297 0.521298 0.037774
C77   C     C_R   0.972061 0.652262 0.451576 0.086147
C78   C     C_R   0.592872 0.153412 0.489681 -0.171430
C79   C     C_R   0.570085 0.155298 0.561168 -0.143325
C80   C     C_R   0.092874 0.653419 0.489681 -0.171281
C81   C     C_R   0.509477 0.397604 0.068602 -0.086599
C82   C     C_R   0.070089 0.655301 0.561170 -0.143450
C83   C     C_3   0.386765 0.227993 0.504212 -0.282323
C84   C     C_3   0.411326 0.226727 0.426977 -0.263646
C85   C     C_3   0.886772 0.727994 0.504220 -0.282439
C86   C     C_3   0.911330 0.726734 0.426985 -0.263473
C87   C     C_R   0.746377 0.931282 0.581629 0.016764
C88   C     C_R   0.249609 0.935299 0.419035 0.019552
C89   C     C_R   0.246365 0.431314 0.581639 0.017263
C90   C     C_R   0.749610 0.435298 0.419035 0.019603
C91   C     C_R   0.794370 0.000494 0.543017 -0.018103
C92   C     C_R   0.035128 0.871891 0.919435 -0.098424
C93   C     C_R   0.196491 0.993023 0.458887 0.006407
C94   C     C_R   0.294343 0.500569 0.543034 -0.017736
C95   C     C_R   0.696491 0.493019 0.458887 0.006437
C96   C     C_R   0.796523 0.997613 0.471560 -0.001312
C97   C     C_R   0.200105 0.997864 0.531260 0.035286
C98   C     C_R   0.296498 0.497689 0.471575 -0.001180
C99   C     C_R   0.700105 0.497860 0.531260 0.035007
C100  C     C_R   0.688343 0.887159 0.468061 -0.139771
C101  C     C_R   0.317429 0.917495 0.527646 -0.158462
C102  C     C_R   0.188331 0.387191 0.468071 -0.139632
C103  C     C_R   0.016964 0.897984 0.065982 -0.084620
C104  C     C_R   0.817430 0.417498 0.527646 -0.158433
C105  C     C_R   0.688202 0.882748 0.543405 0.059521
C106  C     C_R   0.314381 0.912011 0.452697 0.024340
C107  C     C_R   0.188190 0.382780 0.543416 0.060044
C108  C     C_R   0.814381 0.412011 0.452697 0.024339
C109  C     C_3   0.862339 0.068962 0.548477 -0.257305
C110  C     C_3   0.117741 0.977823 0.461946 -0.255247
C111  C     C_3   0.362337 0.568966 0.548488 -0.257734
C112  C     C_3   0.617742 0.477823 0.461946 -0.255268
C113  C     C_R   0.742123 0.967174 0.148140 0.535103
C114  C     C_R   0.045681 0.985351 0.951325 -0.125018
C115  C     C_R   0.260167 0.976091 0.854998 0.540338
C116  C     C_R   0.241836 0.466930 0.148530 0.536068
C117  C     C_R   0.759577 0.474072 0.854377 0.534179
C118  C     C_3   0.862531 0.070101 0.466810 -0.243965
C119  C     C_3   0.123114 0.980198 0.542321 -0.263894
C120  C     C_3   0.362533 0.570092 0.466822 -0.243882
C121  C     C_3   0.623115 0.480197 0.542321 -0.263910
C122  C     C_R   0.745062 0.942374 0.430637 -0.013251
C123  C     C_R   0.256904 0.950081 0.567803 -0.018702
C124  C     C_R   0.245050 0.442414 0.430649 -0.013293
Cr1   Cr    Cr6+3 0.772010 0.169670 0.250090 1.029967
Cr2   Cr    Cr6+3 0.383290 0.010760 0.749160 1.035206
Cr3   Cr    Cr6+3 0.116710 0.510760 0.250840 1.031541
Cr4   Cr    Cr6+3 0.883290 0.510760 0.749160 1.030378
Cr5   Cr    Cr6+3 0.227990 0.169670 0.749910 1.041999
Cr6   Cr    Cr6+3 0.272010 0.669670 0.250090 1.029823
Cr7   Cr    Cr6+3 0.727990 0.669670 0.749910 1.038284
Cr8   Cr    Cr6+3 0.615000 0.323260 0.249260 1.002577
Cr9   Cr    Cr6+3 0.385000 0.323260 0.750740 1.006367
Cr10  Cr    Cr6+3 0.115000 0.823260 0.249260 1.001364
Cr11  Cr    Cr6+3 0.885000 0.823260 0.750740 1.003017
Cr12  Cr    Cr6+3 0.616710 0.010760 0.250840 1.033763
H1    H     H_    0.471183 0.977813 0.072470 0.140565
H2    H     H_    0.875627 0.674281 0.391544 0.169501
H3    H     H_    0.389826 0.318841 0.529501 0.149420
H4    H     H_    0.375627 0.174266 0.391537 0.169368
H5    H     H_    0.336587 0.177737 0.513304 0.154627
H6    H     H_    0.427781 0.317714 0.406388 0.136868
H7    H     H_    0.836592 0.677743 0.513313 0.154513
H8    H     H_    0.927786 0.817723 0.406400 0.136962
H9    H     H_    0.642987 0.852879 0.439570 0.169654
H10   H     H_    0.366795 0.898198 0.553813 0.174398
H11   H     H_    0.142980 0.352893 0.439578 0.169701
H12   H     H_    0.460646 0.970706 0.946529 0.150926
H13   H     H_    0.866796 0.398201 0.553813 0.174519
H14   H     H_    0.905991 0.014433 0.571285 0.159659
H15   H     H_    0.098900 0.888907 0.441427 0.160649
H16   H     H_    0.405971 0.514402 0.571299 0.159683
H17   H     H_    0.598900 0.388909 0.441427 0.160641
H18   H     H_    0.855224 0.161010 0.572453 0.151386
H19   H     H_    0.089941 0.058787 0.440045 0.158768
H20   H     H_    0.355255 0.661027 0.572456 0.150749
H21   H     H_    0.589945 0.558788 0.440045 0.158742
H22   H     H_    0.851417 0.160350 0.443823 0.198520
H23   H     H_    0.964089 0.483102 0.074419 0.140114
H24   H     H_    0.097060 0.060246 0.566776 0.188117
H25   H     H_    0.351460 0.660346 0.443826 0.198535
H26   H     H_    0.597063 0.560242 0.566777 0.187976
H27   H     H_    0.906960 0.019141 0.442390 0.138902
H28   H     H_    0.110491 0.891621 0.568252 0.133693
H29   H     H_    0.406940 0.519071 0.442408 0.138842
H30   H     H_    0.610491 0.391621 0.568250 0.133847
H31   H     H_    0.538150 0.373887 0.865083 0.134507
H32   H     H_    0.498162 0.411806 0.124450 0.136506
H33   H     H_    0.044630 0.864863 0.862702 0.134027
H34   H     H_    0.952026 0.474675 0.948236 0.152113
H35   H     H_    0.005561 0.915472 0.121473 0.138167
H36   H     H_    0.061043 0.063382 0.919186 0.114940
H37   H     H_    0.040259 0.088424 0.048387 0.101313
H38   H     H_    0.547754 0.571660 0.923670 0.108041
H39   H     H_    0.526872 0.590424 0.053209 0.101924
H40   H     H_    0.869629 0.935287 0.083817 0.134227
H41   H     H_    0.187358 0.107395 0.951287 0.144782
H42   H     H_    0.366064 0.437104 0.079690 0.134410
H43   H     H_    0.677517 0.590857 0.949080 0.143887
H44   H     H_    0.887416 0.887104 0.957884 0.153362
H45   H     H_    0.648684 0.150431 0.477595 0.113237
H46   H     H_    0.184828 0.081070 0.079397 0.137367
H47   H     H_    0.377471 0.412932 0.951646 0.162378
H48   H     H_    0.677667 0.571567 0.076757 0.141533
H49   H     H_    0.095469 0.323524 0.933128 0.134983
H50   H     H_    0.772148 0.169722 0.048085 0.161078
H51   H     H_    0.607038 0.794298 0.931322 0.129629
H52   H     H_    0.264655 0.670318 0.046495 0.158442
H53   H     H_    0.644132 0.951417 0.915658 0.153308
H54   H     H_    0.362713 0.691372 0.051873 0.142401
H55   H     H_    0.130431 0.483768 0.924364 0.140623
H56   H     H_    0.608329 0.152119 0.603673 0.125466
H57   H     H_    0.869281 0.200953 0.053775 0.139599
H58   H     H_    0.626605 0.999268 0.038825 0.156929
H59   H     H_    0.367836 0.722380 0.925845 0.141962
H60   H     H_    0.120801 0.510384 0.050041 0.164162
H61   H     H_    0.873950 0.229355 0.927501 0.142591
H62   H     H_    0.588938 0.842286 0.054338 0.135443
H63   H     H_    0.270117 0.698453 0.920637 0.136805
H64   H     H_    0.083565 0.351421 0.059064 0.137178
H65   H     H_    0.777272 0.195094 0.922099 0.145521
H66   H     H_    0.148685 0.650449 0.477595 0.113175
H67   H     H_    0.108333 0.652127 0.603674 0.124396
H68   H     H_    0.889840 0.818838 0.529514 0.149192
I1    I     I_    0.594640 0.821608 0.594846 -0.394271
I2    I     I_    0.408195 0.877372 0.393342 -0.387845
I3    I     I_    0.094635 0.321619 0.594860 -0.396205
I4    I     I_    0.908196 0.377361 0.393344 -0.387667
O1    O     O_R   0.787520 0.042810 0.170440 -0.529969
O2    O     O_R   0.454050 0.051210 0.669140 -0.484913
O3    O     O_R   0.045950 0.551210 0.330860 -0.466759
O4    O     O_R   0.954050 0.551210 0.669140 -0.483704
O5    O     O_R   0.681390 0.959480 0.325510 -0.520393
O6    O     O_R   0.318610 0.959480 0.674490 -0.507467
O7    O     O_R   0.181390 0.459480 0.325510 -0.520333
O8    O     O_R   0.818610 0.459480 0.674490 -0.505226
O9    O     O_3   0.667900 0.167900 0.250060 -0.273825
O10   O     O_3   0.332100 0.167900 0.749940 -0.255641
O11   O     O_3   0.167900 0.667900 0.250060 -0.273866
O12   O     O_R   0.212480 0.042810 0.829560 -0.532248
O13   O     O_3   0.832100 0.667900 0.749940 -0.273269
O14   O     O_R   0.765640 0.292100 0.175020 -0.495227
O15   O     O_R   0.234360 0.292100 0.824980 -0.497719
O16   O     O_R   0.265640 0.792100 0.175020 -0.494885
O17   O     O_R   0.734360 0.792100 0.824980 -0.498828
O18   O     O_R   0.670190 0.408840 0.168540 -0.520827
O19   O     O_R   0.329810 0.408840 0.831460 -0.528958
O20   O     O_R   0.170190 0.908840 0.168540 -0.521021
O21   O     O_R   0.829810 0.908840 0.831460 -0.519103
O22   O     O_R   0.556620 0.251410 0.175160 -0.506237
O23   O     O_R   0.287520 0.542810 0.170440 -0.528938
O24   O     O_R   0.443380 0.251410 0.824840 -0.513989
O25   O     O_R   0.056620 0.751410 0.175160 -0.506946
O26   O     O_R   0.943380 0.751410 0.824840 -0.526792
O27   O     O_R   0.545960 0.049620 0.170320 -0.514534
O28   O     O_R   0.454040 0.049620 0.829680 -0.519721
O29   O     O_R   0.045960 0.549620 0.170320 -0.517030
O30   O     O_R   0.954040 0.549620 0.829680 -0.519520
O31   O     O_R   0.681390 0.958010 0.176690 -0.496441
O32   O     O_R   0.318610 0.958010 0.823310 -0.497187
O33   O     O_R   0.181390 0.458010 0.176690 -0.500176
O34   O     O_R   0.712480 0.542810 0.829560 -0.536710
O35   O     O_R   0.818610 0.458010 0.823310 -0.497976
O36   O     O_R   0.787510 0.044390 0.330970 -0.507352
O37   O     O_R   0.212490 0.044390 0.669030 -0.497113
O38   O     O_R   0.287510 0.544390 0.330970 -0.507456
O39   O     O_R   0.712490 0.544390 0.669030 -0.496590
O40   O     O_R   0.765630 0.293570 0.323840 -0.476485
O41   O     O_R   0.234370 0.293570 0.676160 -0.466925
O42   O     O_R   0.265630 0.793570 0.323840 -0.476382
O43   O     O_R   0.734370 0.793570 0.676160 -0.464089
O44   O     O_R   0.670190 0.410420 0.329080 -0.534080
O45   O     O_R   0.556610 0.252880 0.323980 -0.515769
O46   O     O_R   0.329810 0.410420 0.670920 -0.526030
O47   O     O_R   0.170190 0.910420 0.329080 -0.534201
O48   O     O_R   0.829810 0.910420 0.670920 -0.523412
O49   O     O_R   0.443390 0.252880 0.676020 -0.512664
O50   O     O_R   0.056610 0.752880 0.323980 -0.515231
O51   O     O_R   0.943390 0.752880 0.676020 -0.511927
O52   O     O_R   0.545950 0.051210 0.330860 -0.467305

loop_
_geom_bond_atom_site_label_1
_geom_bond_atom_site_label_2
_ccdc_geom_bond_type
C3    C104  A    
C44   C49   A    
C8    O52   A    
C87   C91   A    
C7    O48   A    
C35   C53   S    
C120  H25   S    
C8    O45   A    
C20   C67   S    
C50   H47   S    
C18   C26   A    
C74   C83   S    
C72   C76   A    
C26   H1    S    
Cr2   O32   S    
C111  H16   S    
C85   H7    S    
C83   H3    S    
Cr6   O38   S    
C119  H28   S    
C1    C33   S    
C90   C95   A    
Cr5   O37   S    
Cr1   O14   S    
C68   O26   A    
C18   C65   S    
C98   C124  A    
C121  H30   S    
C58   H64   S    
C100  C105  A    
Cr5   O10   S    
C65   O22   A    
C57   H59   S    
C32   C36   A    
C96   C118  S    
C28   C29   A    
C53   H52   S    
C9    C69   S    
C41   C58   S    
C38   C42   A    
Cr5   O12   S    
C9    O49   A    
C95   C112  S    
C2    H37   S    
C82   H67   S    
C11   O4    A    
C10   C73   S    
C95   C99   A    
C75   C84   S    
C20   C25   A    
C94   C98   A    
Cr4   O30   S    
Cr10  O11   S    
Cr12  O27   S    
C66   O24   A    
C94   C111  S    
C6    C88   S    
C14   O6    A    
Cr1   O36   S    
Cr8   O9    S    
C73   C80   A    
C55   H50   S    
C89   C94   A    
C16   O8    A    
C4    O40   A    
C110  C119  S    
C110  H19   S    
Cr2   O6    S    
C85   H68   S    
C91   C96   A    
C88   C93   A    
C52   C56   S    
Cr1   O9    S    
C81   H32   S    
C80   H66   S    
C38   C55   S    
C83   C84   S    
C27   H12   S    
C12   O36   A    
C54   H49   S    
Cr3   O33   S    
Cr12  O52   S    
C121  H26   S    
C10   O50   A    
C7    O43   A    
C40   C57   S    
C52   H51   S    
Cr11  O48   S    
Cr2   O28   S    
C53   H54   S    
C9    O2    A    
C107  I3    S    
C108  I4    S    
C93   C110  S    
C99   C121  S    
C14   O37   A    
C117  O34   A    
Cr9   O49   S    
C40   C62   A    
C18   C22   A    
C55   C60   S    
C57   H63   S    
C84   H4    S    
C103  H35   S    
C5    C89   S    
C36   C41   A    
C15   O38   A    
C12   O5    A    
C31   C49   A    
C102  C124  A    
C92   H33   S    
Cr7   O43   S    
C120  H29   S    
C4    C90   S    
Cr6   O42   S    
C69   C74   A    
C13   H38   S    
Cr11  O13   S    
Cr5   O41   S    
C101  H10   S    
C1    O14   A    
C54   H55   S    
C6    O42   A    
Cr3   O11   S    
C34   C39   A    
C17   C27   A    
C22   C81   A    
C5    O41   A    
C30   C47   A    
C19   C68   S    
C36   C54   S    
C76   C77   A    
C4    O44   A    
C15   O7    A    
C110  H15   S    
Cr2   O2    S    
C42   C60   S    
C83   H5    S    
C56   H62   S    
C53   C57   S    
C11   C72   S    
C25   C103  A    
Cr12  O9    S    
C20   C28   A    
C44   C62   A    
C85   C86   S    
C46   C51   A    
C67   O29   A    
C28   H23   S    
C17   C21   A    
C64   C117  S    
C13   C24   A    
C66   O28   A    
C111  C120  S    
C11   O51   A    
C104  H13   S    
C97   C119  S    
C19   C23   A    
C24   C81   A    
C60   H65   S    
C106  I2    S    
C47   H44   S    
Cr8   O18   S    
C102  H11   S    
C88   C106  A    
C43   H40   S    
Cr7   O17   S    
C93   C97   A    
Cr11  O21   S    
C39   C56   S    
C87   C105  A    
C1    O18   A    
C84   H6    S    
C100  H9    S    
Cr10  O50   S    
C30   C34   A    
C30   C59   S    
C89   C107  A    
C26   C27   A    
Cr11  O26   S    
C12   C122  S    
C102  C107  A    
Cr7   O13   S    
Cr8   O44   S    
C101  C123  A    
C32   C37   S    
C98   C120  S    
C109  H18   S    
C32   C50   A    
Cr7   O39   S    
C45   H42   S    
Cr4   O8    S    
C56   H58   S    
C63   C116  S    
Cr8   O45   S    
C80   C82   A    
C15   C124  S    
C55   H57   S    
C5    O46   A    
C77   C86   S    
C51   H48   S    
C37   O15   A    
C79   H56   S    
C116  O23   A    
C61   C113  S    
C29   H34   S    
C31   C35   A    
C115  O12   A    
C69   C79   A    
Cr3   O29   S    
C41   C63   A    
C59   O21   A    
C117  O35   A    
C104  C108  A    
C39   C61   A    
C43   C61   A    
Cr12  O5    S    
C54   C58   S    
C16   O39   A    
Cr3   O3    S    
C101  C106  A    
C116  O33   A    
C67   O25   A    
C8    C71   S    
Cr1   O1    S    
C14   C123  S    
C112  C121  S    
C78   C79   A    
Cr11  O51   S    
C46   H43   S    
C65   O27   A    
C112  H17   S    
Cr9   O19   S    
Cr1   O40   S    
Cr7   O34   S    
Cr8   O22   S    
Cr4   O13   S    
Cr10  O47   S    
C44   H41   S    
C42   C64   A    
C105  I1    S    
C109  C118  S    
C33   C51   A    
C48   O16   A    
C34   C52   S    
Cr9   O10   S    
C96   C122  A    
C21   C70   A    
C31   C48   S    
C78   H45   S    
C91   C109  S    
Cr6   O16   S    
C109  H14   S    
Cr9   O24   S    
C113  O1    A    
C62   C115  S    
C97   C123  A    
C68   O30   A    
C70   H31   S    
Cr4   O4    S    
C71   C75   A    
C2    C114  A    
Cr3   O7    S    
C115  O32   A    
Cr9   O46   S    
C43   C47   A    
Cr6   O23   S    
C114  H36   S    
C48   O20   A    
C118  H27   S    
C76   C85   S    
C58   H60   S    
Cr10  O25   S    
C45   C63   A    
C6    O47   A    
C86   H8    S    
C100  C122  A    
C52   H53   S    
C23   C25   A    
C35   C40   A    
C60   H61   S    
Cr6   O11   S    
C59   O17   A    
C2    C103  A    
C118  H22   S    
C86   H2    S    
C90   C108  A    
C49   H46   S    
C3    C99   A    
C10   O3    A    
C113  O31   A    
C111  H20   S    
C7    C87   S    
C74   C75   A    
C119  H24   S    
C13   C70   A    
Cr12  O31   S    
C46   C64   A    
C17   C66   S    
Cr4   O35   S    
C73   C77   A    
C23   C92   A    
C112  H21   S    
C33   C38   A    
C45   C50   A    
C37   O19   A    
C21   C22   A    
C24   H39   S    
C92   C114  A    
Cr5   O15   S    
C71   C78   A    
C72   C82   A    
C3    C16   S    
Cr2   O10   S    
Cr10  O20   S    
C19   C29   A    
