data_mof_unit_38043.cif
_audit_creation_date              2012-12-10T16:32:36-0500
_audit_creation_method            fapswitch 2.2
_symmetry_space_group_name_H-M    P1
_symmetry_Int_Tables_number       1
_space_group_crystal_system       triclinic
_cell_length_a                    16.88837
_cell_length_b                    16.899865
_cell_length_c                    16.893977
_cell_angle_alpha                 65.476414
_cell_angle_beta                  65.508707
_cell_angle_gamma                 65.494525
_cell_volume                      3816.67079875

loop_
_atom_site_label
_atom_site_type_symbol
_atom_type_description
_atom_site_fract_x
_atom_site_fract_y
_atom_site_fract_z
_atom_type_partial_charge
C1    C     C_R   0.588874 0.036852 0.589845 -0.004407
C2    C     C_R   0.821054 0.563543 0.035211 0.937335
C3    C     C_R   0.436840 0.963982 0.178945 0.941030
C4    C     C_R   0.563160 0.036018 0.821055 0.941029
C5    C     C_R   0.563189 0.821061 0.035979 0.940374
C6    C     C_R   0.436811 0.178939 0.964021 0.940374
C7    C     C_R   0.035178 0.563572 0.821060 0.936732
C8    C     C_R   0.964822 0.436428 0.178940 0.936732
C9    C     C_R   0.821045 0.035197 0.563550 0.938601
C10   C     C_R   0.178955 0.964803 0.436450 0.938600
C11   C     C_R   0.542973 0.018088 0.544032 -0.296162
C12   C     C_R   0.411125 0.963148 0.410155 -0.004406
C13   C     C_R   0.457027 0.981913 0.455968 -0.296162
C14   C     C_R   0.018053 0.544050 0.542995 -0.282142
C15   C     C_R   0.981947 0.455950 0.457005 -0.282142
C16   C     C_R   0.542946 0.544069 0.018081 -0.296773
C17   C     C_R   0.457053 0.455931 0.981919 -0.296774
C18   C     C_R   0.525607 0.080013 0.462146 0.573650
C19   C     C_R   0.474393 0.919987 0.537854 0.573649
C20   C     C_R   0.079933 0.462115 0.525833 0.561152
C21   C     C_R   0.920067 0.537885 0.474167 0.561152
C22   C     C_R   0.517107 0.581445 0.937776 0.585064
C23   C     C_R   0.036789 0.589889 0.588915 -0.002164
C24   C     C_R   0.482893 0.418555 0.062224 0.585064
C25   C     C_R   0.482748 0.062246 0.418590 0.595867
C26   C     C_R   0.517252 0.937755 0.581410 0.595867
C27   C     C_R   0.474279 0.537856 0.920017 0.567095
C28   C     C_R   0.525721 0.462144 0.079983 0.567094
C29   C     C_R   0.062203 0.418551 0.482962 0.576507
C30   C     C_R   0.937797 0.581449 0.517038 0.576507
C31   C     C_R   0.547033 0.042111 0.678756 0.602323
C32   C     C_R   0.452967 0.957890 0.321244 0.602322
C33   C     C_R   0.042051 0.678808 0.547074 0.594628
C34   C     C_R   0.963211 0.410111 0.411085 -0.002165
C35   C     C_R   0.957949 0.321192 0.452926 0.594629
C36   C     C_R   0.678540 0.548478 0.039985 0.598652
C37   C     C_R   0.321460 0.451522 0.960015 0.598652
C38   C     C_R   0.321446 0.960058 0.451536 0.605923
C39   C     C_R   0.678553 0.039942 0.548464 0.605923
C40   C     C_R   0.452935 0.321181 0.957995 0.598996
C41   C     C_R   0.547065 0.678819 0.042005 0.598997
C42   C     C_R   0.960113 0.451493 0.321400 0.596261
C43   C     C_R   0.039886 0.548507 0.678600 0.596261
C44   C     C_R   0.593334 0.056417 0.722896 -0.247817
C45   C     C_R   0.588869 0.589892 0.036821 -0.003295
C46   C     C_R   0.406666 0.943583 0.277104 -0.247817
C47   C     C_R   0.056386 0.722925 0.593363 -0.246040
C48   C     C_R   0.943614 0.277075 0.406637 -0.246040
C49   C     C_R   0.722867 0.593975 0.055241 -0.241581
C50   C     C_R   0.277133 0.406025 0.944759 -0.241581
C51   C     C_R   0.277135 0.944790 0.406020 -0.244378
C52   C     C_R   0.722865 0.055209 0.593980 -0.244378
C53   C     C_R   0.406625 0.277078 0.943654 -0.247480
C54   C     C_R   0.593374 0.722922 0.056346 -0.247480
C55   C     C_R   0.944817 0.405989 0.277111 -0.241360
C56   C     C_R   0.411131 0.410108 0.963179 -0.003295
C57   C     C_R   0.055183 0.594011 0.722889 -0.241360
C58   C     C_R   0.674048 0.078955 0.674088 -0.058263
C59   C     C_R   0.325952 0.921045 0.325912 -0.058262
C60   C     C_R   0.078970 0.674099 0.674054 -0.069883
C61   C     C_R   0.921030 0.325901 0.325946 -0.069883
C62   C     C_R   0.674067 0.674084 0.078954 -0.064546
C63   C     C_R   0.325933 0.325916 0.921046 -0.064546
C64   C     C_3   0.706987 0.127816 0.706580 -0.641726
C65   C     C_3   0.293013 0.872184 0.293420 -0.641725
C66   C     C_3   0.127910 0.706559 0.706956 -0.614398
C67   C     C_R   0.964003 0.178929 0.436818 0.939653
C68   C     C_3   0.872090 0.293441 0.293044 -0.614398
C69   C     C_3   0.707002 0.706546 0.127854 -0.627121
C70   C     C_3   0.292998 0.293454 0.872146 -0.627121
C71   C     C_R   0.035997 0.821071 0.563182 0.939653
C72   C     C_R   0.178946 0.436457 0.964789 0.937335
F1    F     F_    0.535313 0.875664 0.659220 -0.503939
F2    F     F_    0.535038 0.659280 0.875686 -0.507435
F3    F     F_    0.841690 0.574850 0.450674 -0.545284
F4    F     F_    0.158310 0.425150 0.549326 -0.545284
F5    F     F_    0.462161 0.031911 0.721929 -0.574512
F6    F     F_    0.537839 0.968089 0.278071 -0.574511
F7    F     F_    0.031860 0.722005 0.462200 -0.582746
F8    F     F_    0.968140 0.277995 0.537800 -0.582747
F9    F     F_    0.722972 0.466184 0.023908 -0.583492
F10   F     F_    0.277028 0.533815 0.976092 -0.583492
F11   F     F_    0.276999 0.976206 0.533814 -0.575908
F12   F     F_    0.464687 0.124336 0.340780 -0.503939
F13   F     F_    0.723001 0.023793 0.466186 -0.575907
F14   F     F_    0.537793 0.277970 0.968262 -0.578586
F15   F     F_    0.462207 0.722030 0.031738 -0.578586
F16   F     F_    0.976278 0.533766 0.276924 -0.585962
F17   F     F_    0.023722 0.466234 0.723076 -0.585962
F18   F     F_    0.875722 0.659291 0.534897 -0.532460
F19   F     F_    0.124278 0.340709 0.465103 -0.532460
F20   F     F_    0.549115 0.425209 0.158400 -0.528988
F21   F     F_    0.450885 0.574791 0.841600 -0.528988
F22   F     F_    0.451103 0.841550 0.574776 -0.526450
F23   F     F_    0.548898 0.158450 0.425224 -0.526451
F24   F     F_    0.464962 0.340720 0.124314 -0.507435
H1    H     H_    0.648409 0.172713 0.745274 0.226914
H2    H     H_    0.827024 0.352261 0.254651 0.233376
H3    H     H_    0.921752 0.249630 0.248903 0.257728
H4    H     H_    0.827169 0.254738 0.351627 0.231862
H5    H     H_    0.648419 0.745204 0.172781 0.227962
H6    H     H_    0.745426 0.647729 0.172895 0.232658
H7    H     H_    0.751137 0.750397 0.078182 0.258974
H8    H     H_    0.254574 0.352271 0.827105 0.232659
H9    H     H_    0.351581 0.254796 0.827219 0.227962
H10   H     H_    0.248863 0.249602 0.921818 0.258974
H11   H     H_    0.751159 0.078137 0.750425 0.260343
H12   H     H_    0.745371 0.172861 0.647758 0.228317
H13   H     H_    0.351591 0.827287 0.254727 0.226914
H14   H     H_    0.254628 0.827139 0.352242 0.228317
H15   H     H_    0.248841 0.921863 0.249575 0.260343
H16   H     H_    0.172976 0.647739 0.745349 0.233376
H17   H     H_    0.172831 0.745262 0.648373 0.231862
H18   H     H_    0.078248 0.750370 0.751097 0.257728
O1    O     O_R   0.982940 0.138950 0.510160 -0.544249
O2    O     O_R   0.982940 0.510160 0.138950 -0.548477
O3    O     O_R   0.861050 0.017060 0.489840 -0.544889
O4    O     O_R   0.138950 0.982940 0.510160 -0.544888
O5    O     O_R   0.867700 0.025880 0.612340 -0.642063
O6    O     O_R   0.132300 0.974120 0.387660 -0.642063
O7    O     O_R   0.025880 0.612340 0.867700 -0.640476
O8    O     O_R   0.974120 0.387660 0.132300 -0.640476
O9    O     O_R   0.612340 0.867700 0.025880 -0.642659
O10   O     O_R   0.387660 0.132300 0.974120 -0.642659
O11   O     O_R   0.387660 0.974120 0.132300 -0.642772
O12   O     O_R   0.017060 0.861050 0.489840 -0.544249
O13   O     O_R   0.612340 0.025880 0.867700 -0.642772
O14   O     O_R   0.132300 0.387660 0.974120 -0.640549
O15   O     O_R   0.867700 0.612340 0.025880 -0.640549
O16   O     O_R   0.974120 0.132300 0.387660 -0.641392
O17   O     O_R   0.025880 0.867700 0.612340 -0.641392
O18   O     O_R   0.138950 0.510160 0.982940 -0.547975
O19   O     O_R   0.861050 0.489840 0.017060 -0.547975
O20   O     O_R   0.510160 0.982940 0.138950 -0.541076
O21   O     O_R   0.489840 0.017060 0.861050 -0.541076
O22   O     O_R   0.489840 0.861050 0.017060 -0.541634
O23   O     O_R   0.510160 0.138950 0.982940 -0.541634
O24   O     O_R   0.017060 0.489840 0.861050 -0.548477
Zn1   Zn    Zn3+2 0.004880 0.004880 0.583590 1.108860
Zn2   Zn    Zn3+2 0.995120 0.995120 0.416410 1.108860
Zn3   Zn    Zn3+2 0.004880 0.583590 0.004880 1.103169
Zn4   Zn    Zn3+2 0.995120 0.416410 0.995120 1.103169
Zn5   Zn    Zn3+2 0.583590 0.004880 0.004880 1.113504
Zn6   Zn    Zn3+2 0.416410 0.995120 0.995120 1.113504

loop_
_geom_bond_atom_site_label_1
_geom_bond_atom_site_label_2
_ccdc_geom_bond_type
C16   C28   A    
C5    O22   A    
C11   C18   A    
C50   C63   A    
C66   H17   S    
C38   F11   S    
C9    O3    A    
C2    O19   A    
C34   C42   A    
C6    O10   A    
C30   F18   S    
O16   Zn2   S    
C2    O15   A    
C69   H6    S    
C9    C52   S    
O12   Zn2   S    
O19   Zn4   S    
C43   F17   S    
C72   O14   A    
C65   H14   S    
C14   C30   A    
C24   F24   S    
C46   C59   A    
C70   H8    S    
O15   Zn3   S    
C35   C48   A    
O11   Zn6   S    
C35   F8    S    
C1    C31   A    
C26   F1    S    
C23   C43   A    
C20   F4    S    
C34   C35   A    
C40   F14   S    
C19   C26   A    
C50   C72   S    
C65   H15   S    
C67   O1    A    
C47   C60   A    
C37   C56   A    
C44   C58   A    
C23   C33   A    
C1    C11   S    
C25   F12   S    
C71   O12   A    
C15   C29   A    
O6    Zn2   S    
C15   C34   S    
C39   C52   A    
O23   Zn5   S    
C60   C66   S    
C12   C32   A    
C18   F23   S    
C13   C25   A    
C18   C25   A    
C7    O7    A    
C10   C51   S    
C8    C55   S    
O8    Zn4   S    
C72   O18   A    
C20   C29   A    
C69   H7    S    
C58   C64   S    
C41   F15   S    
C17   C24   A    
C31   C44   A    
C13   C19   A    
C17   C27   A    
O7    Zn3   S    
C5    C54   S    
C10   O6    A    
O24   Zn4   S    
C8    O2    A    
C33   F7    S    
C57   C60   A    
C38   C51   A    
C4    C44   S    
C11   C26   A    
C40   C56   A    
C71   O17   A    
C62   C69   S    
C14   C23   S    
C68   H4    S    
C10   O4    A    
C2    C49   S    
C14   C20   A    
C42   C55   A    
C1    C39   A    
C63   C70   S    
C36   F9    S    
C65   H13   S    
C36   C45   A    
C28   F20   S    
O13   Zn5   S    
C17   C56   S    
C47   C71   S    
C19   F22   S    
C52   C58   A    
C4    O21   A    
C64   H1    S    
O1    Zn1   S    
C22   C27   A    
C70   H10   S    
C9    O5    A    
C37   F10   S    
C27   F21   S    
O3    Zn2   S    
C42   F16   S    
C39   F13   S    
C6    C53   S    
O4    Zn1   S    
C29   F19   S    
C64   H11   S    
O18   Zn3   S    
C5    O9    A    
O21   Zn6   S    
C31   F5    S    
C16   C22   A    
C49   C62   A    
C66   H18   S    
C4    O13   A    
C32   C46   A    
O10   Zn6   S    
C24   C28   A    
C70   H9    S    
C16   C45   S    
C7    O24   A    
C3    O11   A    
C69   H5    S    
C54   C62   A    
C21   C30   A    
C21   F3    S    
C3    C46   S    
C3    O20   A    
O5    Zn1   S    
C6    O23   A    
C68   H3    S    
O22   Zn6   S    
C41   C45   A    
C59   C65   S    
C37   C50   A    
C53   C63   A    
C61   C68   S    
C8    O8    A    
C48   C61   A    
C33   C47   A    
C55   C61   A    
C48   C67   S    
C12   C38   A    
C68   H2    S    
C41   C54   A    
O17   Zn1   S    
C43   C57   A    
C32   F6    S    
O2    Zn3   S    
C67   O16   A    
C15   C21   A    
C51   C59   A    
C12   C13   S    
C40   C53   A    
O9    Zn5   S    
C22   F2    S    
O20   Zn5   S    
C66   H16   S    
O14   Zn4   S    
C7    C57   S    
C36   C49   A    
C64   H12   S    
