data_mof_unit_31191.cif
_audit_creation_date              2012-12-10T19:54:19-0500
_audit_creation_method            fapswitch 2.2
_symmetry_space_group_name_H-M    P1
_symmetry_Int_Tables_number       1
_space_group_crystal_system       triclinic
_cell_length_a                    15.669508
_cell_length_b                    14.769583
_cell_length_c                    14.262935
_cell_angle_alpha                 88.376906
_cell_angle_beta                  87.20238
_cell_angle_gamma                 91.40288
_cell_volume                      3294.53796009

loop_
_atom_site_label
_atom_site_type_symbol
_atom_type_description
_atom_site_fract_x
_atom_site_fract_y
_atom_site_fract_z
_atom_type_partial_charge
C1    C     C_R   0.501247 0.327682 0.501152 0.884294
C2    C     C_R   0.503497 0.672754 0.498619 0.896254
C3    C     C_R   0.463649 0.175268 0.561434 -0.289459
C4    C     C_R   0.504856 0.820692 0.415049 -0.271247
C5    C     C_R   0.516005 0.232678 0.503604 -0.091018
C6    C     C_R   0.522090 0.768906 0.494990 -0.124554
C7    C     C_R   0.586801 0.200744 0.452848 -0.312093
C8    C     C_R   0.563529 0.807740 0.569193 -0.313815
C9    C     C_R   0.604321 0.109077 0.457359 0.451625
C10   C     C_R   0.582715 0.900107 0.566960 0.465539
C11   C     C_R   0.545889 0.049754 0.506725 0.035178
C12   C     C_R   0.553014 0.953504 0.493307 0.043058
C13   C     C_R   0.426022 0.469994 0.111058 -0.326169
C14   C     C_R   0.483739 0.586742 0.888516 -0.324211
C15   C     C_R   0.430937 0.465320 0.209646 -0.018429
C16   C     C_R   0.496130 0.581567 0.790294 -0.043198
C17   C     C_R   0.565812 0.542887 0.196600 0.185524
C18   C     C_R   0.487822 0.422033 0.804357 0.216154
C19   C     C_R   0.557553 0.559190 0.097625 -0.003624
C20   C     C_R   0.500777 0.425301 0.902932 0.010689
C21   C     C_R   0.489425 0.516170 0.053270 0.098941
C22   C     C_R   0.489907 0.509159 0.947307 0.100156
C23   C     C_R   0.337877 0.499414 0.502041 0.903306
C24   C     C_R   0.662037 0.499453 0.497957 0.903228
C25   C     C_3   0.966779 0.413754 0.541405 0.123026
C26   C     C_3   0.032056 0.566189 0.456899 0.120380
C27   C     C_3   0.031266 0.416956 0.455520 -0.262559
C28   C     C_3   0.967965 0.562919 0.542847 -0.258827
C29   C     C_1   0.248762 0.496190 0.506420 -0.201403
C30   C     C_1   0.750815 0.495320 0.493450 -0.197059
C31   C     C_3   0.019034 0.487290 0.589782 0.116841
C32   C     C_3   0.979987 0.492604 0.408570 0.120051
C33   C     C_3   0.082409 0.491249 0.504263 0.077355
C34   C     C_3   0.916743 0.488892 0.494095 0.078934
C35   C     C_1   0.173311 0.493318 0.507179 -0.084867
C36   C     C_1   0.826032 0.491622 0.491971 -0.095615
C37   C     C_R   0.477397 0.082710 0.563843 0.088023
C38   C     C_R   0.520146 0.913873 0.412837 0.072925
H1    H     H_    0.059612 0.357760 0.420544 0.138494
H2    H     H_    0.939741 0.622092 0.578014 0.139484
H3    H     H_    0.410558 0.202399 0.602262 0.150099
H4    H     H_    0.476781 0.789031 0.355776 0.167285
H5    H     H_    0.628488 0.247019 0.410482 0.152941
H6    H     H_    0.580266 0.766704 0.629315 0.170194
H7    H     H_    0.372278 0.437289 0.079623 0.150169
H8    H     H_    0.471903 0.652068 0.918262 0.148488
H9    H     H_    0.379682 0.431686 0.251755 0.144379
H10   H     H_    0.496822 0.643654 0.748566 0.153629
N1    N     N_R   0.500000 0.499980 0.252470 -0.104304
N2    N     N_R   0.500000 0.500020 0.747530 -0.104624
O1    O     O_R   0.500010 0.369070 0.579480 -0.634906
O2    O     O_R   0.499990 0.630930 0.420520 -0.632145
O3    O     O_R   0.500010 0.369060 0.420520 -0.610667
O4    O     O_R   0.499990 0.630940 0.579480 -0.629606
O5    O     O_R   0.376780 0.500000 0.579460 -0.633548
O6    O     O_R   0.623220 0.500000 0.420540 -0.638308
O7    O     O_R   0.376780 0.499990 0.420510 -0.615957
O8    O     O_R   0.623220 0.500010 0.579490 -0.602900
Zn1   Zn    Zn3+2 0.500000 0.500010 0.606140 0.925069
Zn2   Zn    Zn3+2 0.500000 0.499990 0.393860 0.927412
C39   C     C_3   0.654278 0.560082 0.233336 -0.375997
C40   C     C_3   0.665208 0.652961 0.278752 -0.285433
C41   C     C_3   0.759226 0.680416 0.285180 -0.955660
H11   H     H_    0.790881 0.631450 0.331574 0.265269
H12   H     H_    0.792393 0.683052 0.214479 0.263431
H13   H     H_    0.764338 0.748551 0.315747 0.260085
H14   H     H_    0.633021 0.706347 0.238159 0.198829
H15   H     H_    0.636671 0.651720 0.350569 0.261903
H16   H     H_    0.674757 0.501684 0.275090 0.213928
H17   H     H_    0.703462 0.556412 0.175396 0.178203
C42   C     C_3   0.440815 0.338026 0.770543 -0.423241
C43   C     C_3   0.353448 0.359434 0.730071 -0.250554
C44   C     C_3   0.280846 0.296582 0.770383 -0.983398
H18   H     H_    0.295390 0.224868 0.756100 0.263758
H19   H     H_    0.271674 0.304926 0.847355 0.270878
H20   H     H_    0.220463 0.313656 0.737017 0.253777
H21   H     H_    0.335403 0.430215 0.744496 0.235916
H22   H     H_    0.356751 0.350384 0.653324 0.236811
H23   H     H_    0.482636 0.298997 0.723170 0.206628
H24   H     H_    0.425701 0.289232 0.829496 0.186697
C45   C     C_3   0.621718 0.621683 0.040191 -0.424352
C46   C     C_3   0.687464 0.570628 0.979328 -0.347552
C47   C     C_3   0.755552 0.635537 0.933597 -0.890986
H25   H     H_    0.725452 0.687266 0.888800 0.266368
H26   H     H_    0.791639 0.669860 0.988182 0.259913
H27   H     H_    0.801106 0.597118 0.888923 0.250112
H28   H     H_    0.719625 0.519263 0.022488 0.206264
H29   H     H_    0.655848 0.535185 0.922575 0.238956
H30   H     H_    0.587771 0.670144 0.996006 0.199013
H31   H     H_    0.656376 0.667528 0.086028 0.211917
C48   C     C_3   0.524266 0.339824 0.958780 -0.443464
C49   C     C_3   0.612323 0.347444 0.001207 -0.348469
C50   C     C_3   0.637169 0.257440 0.046259 -0.879278
H32   H     H_    0.589031 0.235469 0.102629 0.266425
H33   H     H_    0.641931 0.204322 0.992787 0.260737
H34   H     H_    0.700265 0.265656 0.077665 0.247669
H35   H     H_    0.661500 0.367821 0.945295 0.217044
H36   H     H_    0.612367 0.398108 0.056535 0.234221
H37   H     H_    0.474032 0.322794 0.014433 0.209769
H38   H     H_    0.529252 0.280702 0.913022 0.201897
C51   C     C_3   0.923043 0.326605 0.582400 -0.421182
C52   C     C_3   0.987417 0.260326 0.620618 -0.339238
C53   C     C_3   0.942699 0.172552 0.657432 -0.898111
H39   H     H_    0.895583 0.186683 0.715585 0.263211
H40   H     H_    0.909242 0.139158 0.600323 0.254377
H41   H     H_    0.990694 0.125599 0.684381 0.251234
H42   H     H_    0.035519 0.244149 0.564102 0.219892
H43   H     H_    0.021159 0.291146 0.678888 0.223361
H44   H     H_    0.875358 0.343831 0.638774 0.196689
H45   H     H_    0.888116 0.293992 0.525768 0.196453
C54   C     C_3   0.073590 0.654224 0.415284 -0.417877
C55   C     C_3   0.007222 0.718363 0.377127 -0.344894
C56   C     C_3   0.048703 0.808866 0.343767 -0.886258
H46   H     H_    0.078635 0.842723 0.402973 0.259114
H47   H     H_    0.098174 0.798391 0.286907 0.262099
H48   H     H_    0.999322 0.853710 0.316094 0.251432
H49   H     H_    0.976236 0.687539 0.317036 0.228008
H50   H     H_    0.957106 0.730962 0.432751 0.221182
H51   H     H_    0.107904 0.687987 0.471643 0.204222
H52   H     H_    0.121454 0.638124 0.358663 0.195386
C57   C     C_3   0.951401 0.489370 0.307561 -0.424961
C58   C     C_3   0.027367 0.488264 0.235889 -0.336798
C59   C     C_3   0.997060 0.482567 0.136072 -0.895127
H53   H     H_    0.958434 0.419359 0.128482 0.261147
H54   H     H_    0.957854 0.541909 0.118864 0.262789
H55   H     H_    0.053218 0.482213 0.085502 0.253321
H56   H     H_    0.067183 0.550949 0.240447 0.223990
H57   H     H_    0.067531 0.429061 0.250774 0.219696
H58   H     H_    0.911086 0.427091 0.301133 0.202813
H59   H     H_    0.911547 0.548476 0.292843 0.196320
C60   C     C_3   0.047336 0.489599 0.690951 -0.414065
C61   C     C_3   0.970899 0.489367 0.762250 -0.342880
C62   C     C_3   0.000257 0.497390 0.862199 -0.895764
H60   H     H_    0.041178 0.439731 0.880406 0.264273
H61   H     H_    0.036779 0.562035 0.869324 0.263479
H62   H     H_    0.943701 0.496354 0.912318 0.253076
H63   H     H_    0.929165 0.547052 0.746383 0.220587
H64   H     H_    0.932816 0.425443 0.758336 0.224948
H65   H     H_    0.087920 0.430639 0.704916 0.192724
H66   H     H_    0.086996 0.552207 0.698187 0.205804
C63   C     C_3   0.418032 0.022454 0.627362 -0.384373
C64   C     C_3   0.345725 0.979347 0.573882 -0.379468
C65   C     C_3   0.283305 0.924852 0.640214 -0.882195
H67   H     H_    0.316988 0.869769 0.676659 0.265066
H68   H     H_    0.253469 0.969556 0.693177 0.259648
H69   H     H_    0.232073 0.893999 0.599425 0.247660
H70   H     H_    0.310338 0.033104 0.537329 0.222483
H71   H     H_    0.372370 0.932906 0.521000 0.235080
H72   H     H_    0.454099 0.969255 0.663296 0.231842
H73   H     H_    0.389241 0.063336 0.684552 0.195385
C66   C     C_3   0.499928 0.968041 0.324939 -0.385671
C67   C     C_3   0.411158 0.009261 0.332684 -0.377109
C68   C     C_3   0.391389 0.060190 0.242048 -0.878796
H74   H     H_    0.439113 0.116184 0.226642 0.264765
H75   H     H_    0.392247 0.013433 0.182382 0.259597
H76   H     H_    0.326939 0.089522 0.249773 0.247819
H77   H     H_    0.361831 0.954654 0.347345 0.222003
H78   H     H_    0.407800 0.057677 0.390610 0.234040
H79   H     H_    0.549337 0.021944 0.308977 0.239004
H80   H     H_    0.502859 0.923201 0.263530 0.194064
O9    O     O_3   0.673793 0.075334 0.407115 -0.626066
C69   C     C_3   0.749866 0.104068 0.447873 0.103627
H81   H     H_    0.745641 0.094447 0.525869 0.136278
H82   H     H_    0.764536 0.176656 0.429370 0.137250
C70   C     C_3   0.823341 0.048173 0.409816 -0.847957
H83   H     H_    0.829956 0.056361 0.332135 0.262639
H84   H     H_    0.883920 0.071072 0.439966 0.203005
H85   H     H_    0.811203 0.975434 0.429137 0.249457
O10   O     O_3   0.618803 0.941033 0.642502 -0.634190
C71   C     C_3   0.701195 0.907479 0.657292 0.113095
H86   H     H_    0.747799 0.965459 0.650931 0.156178
H87   H     H_    0.724043 0.856750 0.605772 0.119595
C72   C     C_3   0.703216 0.866352 0.756263 -0.867851
H88   H     H_    0.768462 0.842673 0.769087 0.210780
H89   H     H_    0.657474 0.807818 0.765227 0.242599
H90   H     H_    0.685747 0.917847 0.808621 0.264194

loop_
_geom_bond_atom_site_label_1
_geom_bond_atom_site_label_2
_ccdc_geom_bond_type
C39   H17   S    
C25   C31   S    
C65   H69   S    
C55   H50   S    
C41   H12   S    
C26   C32   S    
C70   H83   S    
O5    Zn1   S    
C44   H18   S    
C54   C55   S    
C15   H9    S    
C57   H59   S    
C16   H10   S    
C42   H23   S    
C45   C46   S    
C49   H36   S    
C59   H53   S    
C14   H8    S    
C72   H88   S    
C27   C33   S    
C10   O10   S    
C50   H32   S    
N1    Zn2   S    
C37   C63   S    
C40   H14   S    
C1    C5    S    
N2    Zn1   S    
C23   C29   S    
C50   H34   S    
C19   C21   A    
C16   N2    A    
C56   H46   S    
C55   H49   S    
C59   H54   S    
C71   H86   S    
C28   H2    S    
C51   H44   S    
C65   H67   S    
C54   H51   S    
O10   C71   S    
C58   H56   S    
C11   C37   A    
C1    O3    A    
C42   H24   S    
C43   H22   S    
C60   H66   S    
O2    Zn2   S    
C17   C39   S    
C27   H1    S    
C61   C62   S    
C49   H35   S    
C62   H62   S    
C31   C60   S    
C66   C67   S    
C31   C33   S    
C52   H43   S    
C7    H5    S    
C48   H38   S    
C68   H75   S    
C18   C20   A    
C25   C34   S    
C56   H48   S    
C45   H30   S    
C41   H13   S    
C28   C34   S    
C70   H84   S    
C21   C22   S    
C12   C38   A    
C44   H19   S    
C2    C6    S    
C10   C12   A    
C55   C56   S    
O3    Zn2   S    
C63   H73   S    
O9    C69   S    
C69   H82   S    
O4    Zn1   S    
C72   H89   S    
C20   C48   S    
C67   H78   S    
C63   H72   S    
C52   C53   S    
C51   C52   S    
C64   H71   S    
C4    C6    A    
C2    O4    A    
C17   N1    A    
C48   C49   S    
C5    C7    A    
C17   C19   A    
O7    Zn2   S    
C6    C8    A    
C61   H63   S    
O6    Zn2   S    
C56   H47   S    
C54   H52   S    
C32   C34   S    
C43   H21   S    
C69   C70   S    
C9    C11   A    
C26   C33   S    
C47   H25   S    
C40   C41   S    
C13   C21   A    
C52   H42   S    
C53   H40   S    
C68   H76   S    
C9    O9    S    
C1    O1    A    
C57   C58   S    
C2    O2    A    
C23   O7    A    
C45   H31   S    
C24   O8    A    
C47   H26   S    
C4    C38   A    
C70   H85   S    
C13   C15   A    
C62   H60   S    
C44   H20   S    
C14   C16   A    
O1    Zn1   S    
C20   C22   A    
C60   C61   S    
C38   C66   S    
C18   N2    A    
C69   H81   S    
C72   H90   S    
C39   H16   S    
C18   C42   S    
C65   H68   S    
C67   H77   S    
C3    H3    S    
C27   C32   S    
C32   C57   S    
C28   C31   S    
C8    H6    S    
C51   H45   S    
C57   H58   S    
C43   C44   S    
C3    C5    A    
C59   H55   S    
C11   C12   S    
C23   O5    A    
C40   H15   S    
C25   C27   S    
C29   C35   T    
C26   C28   S    
C30   C36   T    
C66   H80   S    
C14   C22   A    
O8    Zn1   S    
C42   C43   S    
C63   C64   S    
C13   H7    S    
C25   C51   S    
C50   H33   S    
C4    H4    S    
C24   O6    A    
C46   H29   S    
C64   H70   S    
C49   C50   S    
C33   C35   S    
C53   H41   S    
C34   C36   S    
C15   N1    A    
C58   H57   S    
C39   C40   S    
C24   C30   S    
C60   H65   S    
C41   H11   S    
C7    C9    A    
C47   H27   S    
C67   C68   S    
C3    C37   A    
C8    C10   A    
C46   C47   S    
C53   H39   S    
C62   H61   S    
C64   C65   S    
C71   H87   S    
C48   H37   S    
C58   C59   S    
C19   C45   S    
C61   H64   S    
C26   C54   S    
C46   H28   S    
C66   H79   S    
C68   H74   S    
C71   C72   S    
