data_mof_unit_17549.cif
_audit_creation_date              2012-12-11T14:13:16-0500
_audit_creation_method            fapswitch 2.2
_symmetry_space_group_name_H-M    P1
_symmetry_Int_Tables_number       1
_space_group_crystal_system       triclinic
_cell_length_a                    11.675356
_cell_length_b                    18.44428
_cell_length_c                    9.952738
_cell_angle_alpha                 90.009278
_cell_angle_beta                  111.652166
_cell_angle_gamma                 90.49181
_cell_volume                      1991.94535526

loop_
_atom_site_label
_atom_site_type_symbol
_atom_type_description
_atom_site_fract_x
_atom_site_fract_y
_atom_site_fract_z
_atom_type_partial_charge
Br1   Br    Br    0.274780 0.329718 0.288106 -0.327335
Br2   Br    Br    0.724003 0.668486 0.718165 -0.393560
Br3   Br    Br    0.772462 0.843522 0.635177 -0.334506
Br4   Br    Br    0.225760 0.153681 0.370268 -0.305638
C1    C     C_R   0.072254 0.646541 0.139426 0.573203
C2    C     C_2   0.627975 0.058940 0.996124 0.195056
C3    C     C_2   0.633581 0.440952 0.012921 0.207496
C4    C     C_2   0.402977 0.575266 0.908599 0.206872
C5    C     C_2   0.487587 0.954368 0.951315 -0.085184
C6    C     C_2   0.515880 0.029619 0.928194 -0.080266
C7    C     C_2   0.545888 0.478787 0.912419 -0.091805
C8    C     C_2   0.519125 0.554111 0.939081 -0.079141
C9    C     C_2   0.018442 0.924629 0.118620 -0.032335
C10   C     C_2   0.985463 0.076461 0.882929 -0.033292
C11   C     C_2   0.992954 0.421539 0.889648 -0.073334
C12   C     C_R   0.928081 0.353350 0.860680 0.563772
C13   C     C_2   0.009609 0.577749 0.111323 -0.082714
C14   C     C_2   0.013694 0.962329 0.003316 -0.088387
C15   C     C_2   0.994468 0.039489 0.000469 -0.082730
C16   C     C_2   0.978589 0.463287 0.990888 -0.126837
C17   C     C_2   0.027931 0.535296 0.013494 -0.114286
C18   C     C_R   0.468483 0.646556 0.442637 0.583766
C19   C     C_R   0.531505 0.353461 0.557516 0.558927
C20   C     C_R   0.527838 0.147125 0.555216 0.562455
C21   C     C_R   0.472387 0.852597 0.445236 0.575507
C22   C     C_R   0.375716 0.644729 0.961404 0.564381
C23   C     C_R   0.927144 0.146348 0.859986 0.580144
C24   C     C_R   0.647660 0.363093 0.991620 0.552972
C25   C     C_R   0.646926 0.137489 0.987732 0.564055
C26   C     C_R   0.357315 0.863657 0.002647 0.564971
C27   C     C_R   0.507877 0.424885 0.485244 0.010870
C28   C     C_R   0.491658 0.575122 0.515105 0.000721
C29   C     C_R   0.507022 0.923728 0.520013 0.011269
C30   C     C_R   0.494339 0.075227 0.482806 0.021490
C31   C     C_R   0.281728 0.415089 0.401830 0.223925
C32   C     C_R   0.717758 0.584498 0.601298 0.213730
C33   C     C_R   0.719258 0.928898 0.519144 0.207323
C34   C     C_R   0.073600 0.853933 0.140284 0.580683
C35   C     C_R   0.284353 0.070207 0.490803 0.214627
C36   C     C_R   0.172264 0.442489 0.408356 0.257696
C37   C     C_R   0.827470 0.557257 0.595166 0.259793
C38   C     C_R   0.801956 0.963320 0.467207 0.294295
C39   C     C_R   0.207817 0.037755 0.554006 0.284501
C40   C     C_R   0.171995 0.511344 0.465340 -0.073144
C41   C     C_R   0.827652 0.488836 0.536289 -0.075687
C42   C     C_R   0.777815 0.033063 0.411065 -0.037867
C43   C     C_R   0.233979 0.968471 0.612314 -0.065759
C44   C     C_R   0.277730 0.554782 0.506837 -0.079274
C45   C     C_R   0.392495 0.455969 0.459839 -0.021714
C46   C     C_R   0.721709 0.445510 0.493192 -0.060938
C47   C     C_R   0.673279 0.069232 0.408748 -0.102902
C48   C     C_R   0.332451 0.930188 0.601555 -0.135357
C49   C     C_R   0.387666 0.529375 0.495364 -0.048667
C50   C     C_R   0.611736 0.470703 0.504889 -0.036826
C51   C     C_R   0.589858 0.035877 0.462327 -0.036210
C52   C     C_R   0.412506 0.963038 0.542289 -0.047703
C53   C     C_R   0.606963 0.543930 0.541302 -0.026506
C54   C     C_R   0.605923 0.962273 0.502499 -0.024556
C55   C     C_R   0.396151 0.036598 0.502204 -0.024000
C56   C     C_2   0.382255 0.937526 0.968987 0.191437
Cl1   Cl    Cl    0.035077 0.390942 0.349523 -0.517589
Cl2   Cl    Cl    0.965113 0.608356 0.657125 -0.521742
Cl3   Cl    Cl    0.932940 0.918294 0.464261 -0.530489
Cl4   Cl    Cl    0.082686 0.084923 0.567675 -0.540595
Cl5   Cl    Cl    0.753949 0.003792 0.089936 -0.671878
Cl6   Cl    Cl    0.275073 0.004376 0.968270 -0.644579
Cl7   Cl    Cl    0.277425 0.514785 0.828653 -0.622294
Cl8   Cl    Cl    0.735322 0.483678 0.171720 -0.628424
Cr1   Cr    Cr6+3 0.187610 0.750000 0.979860 1.155207
Cr2   Cr    Cr6+3 0.812390 0.250000 0.020140 1.148444
Cr3   Cr    Cr6+3 0.245810 0.750000 0.341640 1.074953
Cr4   Cr    Cr6+3 0.754190 0.250000 0.658360 1.067695
Cr5   Cr    Cr6+3 0.485760 0.750000 0.219910 1.123811
Cr6   Cr    Cr6+3 0.514240 0.250000 0.780090 1.118472
H1    H     H_    0.088814 0.532131 0.474557 0.195999
H2    H     H_    0.555178 0.912727 0.959742 0.185309
H3    H     H_    0.594913 0.590595 0.996977 0.179686
H4    H     H_    0.484960 0.451601 0.815050 0.166022
H5    H     H_    0.978839 0.065070 0.090646 0.211467
H6    H     H_    0.031737 0.937162 0.914241 0.202928
H7    H     H_    0.083506 0.552993 0.952490 0.232131
H8    H     H_    0.924768 0.445354 0.053745 0.220760
H9    H     H_    0.999784 0.049885 0.793057 0.188101
H10   H     H_    0.002994 0.950664 0.208407 0.198302
H11   H     H_    0.961327 0.558699 0.179486 0.172614
H12   H     H_    0.911018 0.468187 0.527369 0.196679
H13   H     H_    0.039545 0.440908 0.819821 0.176834
H14   H     H_    0.840694 0.059933 0.369911 0.234348
H15   H     H_    0.176851 0.943532 0.664030 0.222824
H16   H     H_    0.273539 0.607142 0.553552 0.190470
H17   H     H_    0.725916 0.393312 0.445871 0.206033
H18   H     H_    0.657134 0.123209 0.363168 0.174567
H19   H     H_    0.349081 0.875900 0.645580 0.158094
H20   H     H_    0.439124 0.063389 0.865120 0.188016
O1    O     O_R   0.267710 0.668200 0.902110 -0.445596
O2    O     O_R   0.883280 0.330790 0.732340 -0.504541
O3    O     O_R   0.883280 0.169210 0.732340 -0.473427
O4    O     O_R   0.116720 0.830790 0.267660 -0.471957
O5    O     O_R   0.366710 0.675440 0.427590 -0.525876
O6    O     O_R   0.633290 0.324560 0.572410 -0.520116
O7    O     O_R   0.633290 0.175440 0.572410 -0.510671
O8    O     O_R   0.366710 0.824560 0.427590 -0.509652
O9    O     O_R   0.534870 0.669390 0.371760 -0.452248
O10   O     O_R   0.465130 0.330610 0.628240 -0.478524
O11   O     O_R   0.465130 0.169390 0.628240 -0.481871
O12   O     O_R   0.732290 0.331800 0.097890 -0.425812
O13   O     O_R   0.534870 0.830610 0.371760 -0.464531
O14   O     O_R   0.453080 0.674480 0.075160 -0.509483
O15   O     O_R   0.546920 0.325520 0.924840 -0.483420
O16   O     O_R   0.546920 0.174480 0.924840 -0.499414
O17   O     O_R   0.453080 0.825520 0.075160 -0.509032
O18   O     O_3   0.306390 0.750000 0.180470 -0.305220
O19   O     O_3   0.693610 0.250000 0.819530 -0.339715
O20   O     O_R   0.732290 0.168200 0.097890 -0.468048
O21   O     O_R   0.267710 0.831800 0.902110 -0.503142
O22   O     O_R   0.099480 0.674460 0.038850 -0.456727
O23   O     O_R   0.900520 0.325540 0.961150 -0.478479
O24   O     O_R   0.900520 0.174460 0.961150 -0.495136
O25   O     O_R   0.099480 0.825540 0.038850 -0.490508
O26   O     O_R   0.116720 0.669210 0.267660 -0.506512

loop_
_geom_bond_atom_site_label_1
_geom_bond_atom_site_label_2
_ccdc_geom_bond_type
C25   O20   A    
Cr1   O22   S    
C29   C54   A    
C16   H8    S    
C4    C22   S    
C34   O4    A    
Cr6   O15   S    
Cr2   O20   S    
C3    C7    D    
C9    H10   S    
Br1   C31   S    
C46   C50   A    
C18   C28   S    
Cr3   O26   S    
C13   H11   S    
C10   H9    S    
C11   H13   S    
C14   C15   S    
Cr1   O18   S    
C21   O8    A    
Cr5   O13   S    
C1    C13   S    
Cr4   O7    S    
C6    H20   S    
Cr2   O23   S    
C11   C12   S    
C20   O7    A    
C38   C42   A    
C33   C38   A    
C3    Cl8   S    
C2    Cl5   S    
C23   O3    A    
C24   O12   A    
C26   C56   S    
C31   C45   A    
C5    H2    S    
C10   C23   S    
C5    C6    S    
C33   C54   A    
Cr4   O3    S    
C29   C52   A    
C19   O6    A    
C56   Cl6   S    
C30   C51   A    
C44   H16   S    
C8    H3    S    
C43   H15   S    
C32   C37   A    
C11   C16   D    
C37   Cl2   S    
C27   C45   A    
C39   Cl4   S    
Cr5   O17   S    
C42   H14   S    
C26   O21   A    
Cr2   O19   S    
C44   C49   A    
Cr3   O4    S    
C12   O2    A    
C1    O26   A    
C25   O16   A    
C32   C53   A    
Cr2   O12   S    
C22   O14   A    
Cr5   O14   S    
C35   C39   A    
Cr6   O19   S    
Cr3   O5    S    
Cr4   O19   S    
Cr1   O25   S    
C20   C30   S    
C3    C24   S    
C19   C27   S    
C40   H1    S    
Cr6   O16   S    
C7    H4    S    
C47   H18   S    
C19   O10   A    
Br4   C35   S    
Cr5   O9    S    
C4    C8    D    
C35   C55   A    
Cr3   O18   S    
C48   H19   S    
C15   H5    S    
C36   Cl1   S    
C9    C34   S    
C34   O25   A    
C9    C14   D    
Cr3   O8    S    
C17   H7    S    
C1    O22   A    
C30   C55   A    
C28   C49   A    
C21   O13   A    
Cr5   O18   S    
Cr6   O10   S    
Cr4   O6    S    
C23   O24   A    
Br2   C32   S    
C22   O1    A    
Cr1   O21   S    
C18   O5    A    
C10   C15   D    
Cr1   O1    S    
C2    C6    D    
C7    C8    S    
C43   C48   A    
C24   O15   A    
C52   C55   A    
C26   O17   A    
C5    C56   D    
C31   C36   A    
C12   O23   A    
Cr6   O11   S    
C28   C53   A    
C41   C46   A    
Cr2   O24   S    
C45   C49   A    
C42   C47   A    
C41   H12   S    
C47   C51   A    
C27   C50   A    
C13   C17   D    
C18   O9    A    
Cr4   O2    S    
C40   C44   A    
C46   H17   S    
C36   C40   A    
C2    C25   S    
C16   C17   S    
Br3   C33   S    
C4    Cl7   S    
C14   H6    S    
C51   C54   A    
C37   C41   A    
C20   O11   A    
C39   C43   A    
C38   Cl3   S    
C48   C52   A    
C21   C29   S    
C50   C53   A    
