data_mof_unit_54167.cif
_audit_creation_date              2012-12-11T15:45:04-0500
_audit_creation_method            fapswitch 2.2
_symmetry_space_group_name_H-M    P1
_symmetry_Int_Tables_number       1
_space_group_crystal_system       triclinic
_cell_length_a                    19.028909
_cell_length_b                    10.940695
_cell_length_c                    18.752609
_cell_angle_alpha                 89.734623
_cell_angle_beta                  90.326323
_cell_angle_gamma                 90.017736
_cell_volume                      3903.99074327

loop_
_atom_site_label
_atom_site_type_symbol
_atom_type_description
_atom_site_fract_x
_atom_site_fract_y
_atom_site_fract_z
_atom_type_partial_charge
C1    C     C_R   0.760701 0.534776 0.646805 0.534997
C2    C     C_R   0.239838 0.535140 0.353507 0.537172
C3    C     C_R   0.261398 0.032685 0.645923 0.535151
C4    C     C_R   0.740033 0.035526 0.353426 0.534258
C5    C     C_R   0.837688 0.114761 0.520028 -0.166404
C6    C     C_R   0.278771 0.000440 0.450401 -0.162796
C7    C     C_R   0.336871 0.615288 0.519992 -0.167804
C8    C     C_R   0.766313 0.537798 0.449553 -0.127753
C9    C     C_R   0.826329 0.088501 0.447989 -0.161628
C10   C     C_R   0.289223 0.984086 0.523411 -0.112627
C11   C     C_R   0.325505 0.589368 0.448020 -0.162897
C12   C     C_R   0.781176 0.508728 0.520357 -0.125420
C13   C     C_3   0.633974 0.160021 0.465136 -0.255642
C14   C     C_3   0.207087 0.283781 0.563895 -0.294147
C15   C     C_3   0.132222 0.645818 0.467720 -0.252286
C16   C     C_3   0.702115 0.799017 0.582054 -0.279946
C17   C     C_3   0.646950 0.185203 0.543710 -0.262580
C18   C     C_3   0.198320 0.304358 0.484379 -0.255722
C19   C     C_3   0.145248 0.672912 0.545996 -0.261932
C20   C     C_3   0.687771 0.832288 0.504815 -0.280723
C21   C     C_R   0.783035 0.161927 0.561514 -0.000065
C22   C     C_R   0.238697 0.099476 0.427103 0.034133
C23   C     C_R   0.281827 0.659523 0.561929 -0.000270
C24   C     C_R   0.723622 0.638628 0.433852 0.033090
C25   C     C_R   0.990096 0.329445 0.420904 -0.044143
C26   C     C_R   0.996155 0.347359 0.570927 -0.044952
C27   C     C_R   0.490384 0.830613 0.421120 -0.044186
C28   C     C_R   0.496719 0.846957 0.571231 -0.046273
C29   C     C_R   0.008767 0.105475 0.432584 -0.078703
C30   C     C_R   0.033940 0.132146 0.577979 -0.091649
C31   C     C_R   0.506570 0.606085 0.431975 -0.084776
C32   C     C_R   0.531384 0.630139 0.577583 -0.086994
C33   C     C_R   0.028221 0.004578 0.473797 -0.128996
C34   C     C_R   0.042330 0.018550 0.546051 -0.120010
C35   C     C_R   0.524267 0.503972 0.472930 -0.130639
C36   C     C_R   0.538062 0.516551 0.545329 -0.120215
C37   C     C_R   0.010879 0.234493 0.537896 -0.010814
C38   C     C_R   0.003295 0.223304 0.463045 0.009113
C39   C     C_R   0.509860 0.733818 0.537818 -0.008003
C40   C     C_R   0.502333 0.723690 0.462893 0.007775
C41   C     C_R   0.982441 0.453122 0.527208 0.007717
C42   C     C_R   0.968496 0.437549 0.454168 -0.000492
C43   C     C_R   0.484664 0.953655 0.527897 0.005288
C44   C     C_R   0.470455 0.939467 0.454825 -0.000006
C45   C     C_R   0.791808 0.172875 0.638928 0.566224
C46   C     C_R   0.226948 0.124127 0.353364 0.542686
C47   C     C_R   0.291532 0.672264 0.638905 0.562707
C48   C     C_R   0.708585 0.670754 0.361143 0.567525
C49   C     C_R   0.981889 0.575183 0.553252 -0.074195
C50   C     C_R   0.938566 0.534676 0.414167 -0.084702
C51   C     C_R   0.485648 0.075273 0.554541 -0.074727
C52   C     C_R   0.441712 0.038393 0.415356 -0.080935
C53   C     C_R   0.955280 0.671603 0.512361 -0.133353
C54   C     C_R   0.931242 0.650417 0.443583 -0.119838
C55   C     C_R   0.459707 0.173048 0.514358 -0.130652
C56   C     C_R   0.435352 0.153736 0.445512 -0.118883
C57   C     C_R   0.745789 0.076895 0.075578 -0.012777
C58   C     C_R   0.252513 0.063493 0.926406 0.043166
C59   C     C_R   0.245798 0.576898 0.075581 -0.012740
C60   C     C_R   0.752502 0.563512 0.926401 0.043347
C61   C     C_R   0.812054 0.092737 0.046388 0.069371
C62   C     C_R   0.226319 0.972947 0.971747 0.053403
C63   C     C_R   0.312067 0.592722 0.046390 0.069004
C64   C     C_R   0.726308 0.472967 0.971743 0.053533
C65   C     C_R   0.819753 0.105312 0.973815 -0.004603
C66   C     C_R   0.224162 0.986267 0.044082 -0.037845
C67   C     C_R   0.319763 0.605270 0.973814 -0.004604
C68   C     C_R   0.724161 0.486271 0.044077 -0.037274
C69   C     C_R   0.694339 0.085370 0.956244 -0.194888
C70   C     C_R   0.281150 0.181287 0.031107 -0.158253
C71   C     C_R   0.194346 0.585350 0.956247 -0.194761
C72   C     C_R   0.781136 0.681302 0.031103 -0.159166
C73   C     C_R   0.686314 0.079016 0.030190 -0.184205
C74   C     C_R   0.284323 0.165935 0.957045 -0.183548
C75   C     C_R   0.186323 0.579009 0.030192 -0.183959
C76   C     C_R   0.784310 0.665955 0.957041 -0.183402
C77   C     C_3   0.876333 0.015310 0.054421 0.153709
C78   C     C_3   0.161348 0.897412 0.969328 0.154567
C79   C     C_3   0.376347 0.515294 0.054436 0.153672
C80   C     C_3   0.661339 0.397428 0.969325 0.154329
C81   C     C_3   0.885844 0.030882 0.974794 -0.225913
C82   C     C_3   0.157944 0.913097 0.049865 -0.238107
C83   C     C_3   0.385838 0.530795 0.974799 -0.225861
C84   C     C_3   0.657954 0.413071 0.049868 -0.237819
C85   C     C_R   0.761661 0.096489 0.927567 0.002191
C86   C     C_R   0.247366 0.094035 0.075001 0.014954
C87   C     C_R   0.261667 0.596469 0.927568 0.002186
C88   C     C_R   0.747362 0.594040 0.074999 0.013391
C89   C     C_R   0.970730 0.347843 0.645802 0.522924
C90   C     C_R   0.026338 0.344066 0.351628 0.530568
C91   C     C_R   0.470925 0.847742 0.645943 0.520542
C92   C     C_R   0.526341 0.844257 0.351648 0.527235
C93   C     C_R   0.021809 0.341473 0.068327 0.045657
C94   C     C_R   0.005668 0.348220 0.921141 0.007395
C95   C     C_R   0.521809 0.841472 0.068326 0.045299
C96   C     C_R   0.505676 0.848214 0.921137 0.007272
C97   C     C_R   0.007129 0.450551 0.033912 0.001113
C98   C     C_R   0.000040 0.454893 0.961869 0.013865
C99   C     C_R   0.507162 0.950556 0.033903 0.001178
C100  C     C_R   0.500080 0.954898 0.961859 0.013937
C101  C     C_R   0.034555 0.243847 0.952716 -0.167467
C102  C     C_R   0.043677 0.241039 0.026831 -0.103646
C103  C     C_R   0.534525 0.743816 0.952719 -0.167469
C104  C     C_R   0.543645 0.741010 0.026835 -0.103637
C105  C     C_3   0.950681 0.541278 0.047497 -0.275558
C106  C     C_3   0.941447 0.545952 0.967475 -0.246207
C107  C     C_3   0.450745 0.041340 0.047482 -0.275925
C108  C     C_3   0.441519 0.046019 0.967458 -0.246105
C109  C     C_R   0.760320 0.532046 0.852187 0.545048
C110  C     C_R   0.238479 0.530611 0.147186 0.555860
C111  C     C_R   0.260323 0.032038 0.852190 0.546059
C112  C     C_R   0.738475 0.030604 0.147182 0.557683
C113  C     C_R   0.773117 0.125764 0.853280 0.554284
C114  C     C_R   0.227134 0.128111 0.146398 0.551784
C115  C     C_R   0.273119 0.625764 0.853282 0.554766
C116  C     C_R   0.727136 0.628107 0.146400 0.560345
C117  C     C_R   0.971650 0.347663 0.852395 0.546227
C118  C     C_R   0.034914 0.347125 0.143692 0.567072
C119  C     C_R   0.471650 0.847663 0.852394 0.545852
C120  C     C_R   0.534913 0.847125 0.143691 0.567875
C121  C     C_R   0.759534 0.107053 0.416565 0.004481
C122  C     C_R   0.256932 0.063485 0.572256 0.037519
C123  C     C_R   0.258336 0.605191 0.417201 0.003531
C124  C     C_R   0.752039 0.578649 0.575379 0.034509
C125  C     C_R   0.710943 0.176757 0.454454 0.012113
C126  C     C_R   0.209093 0.149999 0.548441 0.001331
C127  C     C_R   0.208372 0.670363 0.455934 0.011194
C128  C     C_R   0.702681 0.668424 0.559310 0.010226
C129  C     C_R   0.722474 0.202801 0.525906 0.024943
C130  C     C_R   0.201178 0.169021 0.476259 0.054417
C131  C     C_R   0.220027 0.696857 0.527242 0.028965
C132  C     C_R   0.689365 0.699131 0.488877 0.014053
Cr1   Cr    Cr6+3 0.885860 0.491680 0.749630 0.987423
Cr2   Cr    Cr6+3 0.114140 0.491680 0.250370 1.000846
Cr3   Cr    Cr6+3 0.385860 0.991680 0.749630 0.987692
Cr4   Cr    Cr6+3 0.614140 0.991680 0.250370 0.996385
Cr5   Cr    Cr6+3 0.730490 0.332970 0.748720 1.002020
Cr6   Cr    Cr6+3 0.269510 0.332970 0.251280 0.976967
Cr7   Cr    Cr6+3 0.230490 0.832970 0.748720 1.002219
Cr8   Cr    Cr6+3 0.769510 0.832970 0.251280 0.976048
Cr9   Cr    Cr6+3 0.887570 0.179310 0.750150 0.984804
Cr10  Cr    Cr6+3 0.112430 0.179310 0.249850 0.986215
Cr11  Cr    Cr6+3 0.387570 0.679310 0.750150 0.984285
Cr12  Cr    Cr6+3 0.612430 0.679310 0.249850 0.980994
H1    H     H_    0.887026 0.088502 0.544467 0.156948
H2    H     H_    0.303397 0.939326 0.412775 0.110165
H3    H     H_    0.386726 0.591347 0.544044 0.157754
H4    H     H_    0.789168 0.483922 0.407282 0.129941
H5    H     H_    0.953849 0.763092 0.534040 0.106138
H6    H     H_    0.909475 0.724591 0.412075 0.121848
H7    H     H_    0.458947 0.264062 0.536688 0.105192
H8    H     H_    0.414086 0.228987 0.414531 0.115664
H9    H     H_    0.648414 0.083893 0.921856 0.120421
H10   H     H_    0.299648 0.265608 0.053242 0.127054
H11   H     H_    0.148419 0.583873 0.921861 0.120463
H12   H     H_    0.799628 0.765623 0.053240 0.126685
H13   H     H_    0.634048 0.067103 0.051410 0.152325
H14   H     H_    0.309366 0.234655 0.924118 0.113287
H15   H     H_    0.134055 0.567097 0.051412 0.152286
H16   H     H_    0.809351 0.734678 0.924115 0.113180
H17   H     H_    0.864686 0.919924 0.070032 0.105084
H18   H     H_    0.175328 0.806117 0.950235 0.127890
H19   H     H_    0.364706 0.419919 0.070081 0.105241
H20   H     H_    0.675313 0.306157 0.950183 0.128136
H21   H     H_    0.932244 0.085703 0.960101 0.168417
H22   H     H_    0.112494 0.967760 0.067208 0.145656
H23   H     H_    0.432253 0.585552 0.960067 0.168424
H24   H     H_    0.612496 0.467696 0.067235 0.145335
H25   H     H_    0.880090 0.943753 0.945198 0.085659
H26   H     H_    0.166026 0.826306 0.079725 0.105864
H27   H     H_    0.380049 0.443646 0.945231 0.085538
H28   H     H_    0.666059 0.326267 0.079707 0.106810
H29   H     H_    0.045185 0.163598 0.921349 0.169301
H30   H     H_    0.066048 0.160584 0.051162 0.151965
H31   H     H_    0.545121 0.663548 0.921357 0.169246
H32   H     H_    0.565985 0.660533 0.051170 0.151809
H33   H     H_    0.971554 0.627841 0.070141 0.130285
H34   H     H_    0.890818 0.506245 0.949579 0.170214
H35   H     H_    0.471645 0.127881 0.070126 0.130179
H36   H     H_    0.390878 0.006370 0.949559 0.170172
H37   H     H_    0.904891 0.501187 0.075850 0.149166
H38   H     H_    0.955283 0.636046 0.943864 0.124171
H39   H     H_    0.404940 0.001299 0.075832 0.148244
H40   H     H_    0.455388 0.136097 0.943848 0.124110
H41   H     H_    0.867170 0.040337 0.419725 0.138582
H42   H     H_    0.322425 0.909933 0.541937 0.121694
H43   H     H_    0.366858 0.543733 0.419152 0.138170
H44   H     H_    0.815248 0.431845 0.532296 0.122813
H45   H     H_    0.117228 0.549425 0.457622 0.157732
H46   H     H_    0.754234 0.831017 0.601625 0.153958
H47   H     H_    0.615669 0.065763 0.454169 0.159996
H48   H     H_    0.257760 0.319080 0.585368 0.151148
H49   H     H_    0.602958 0.232793 0.438042 0.142319
H50   H     H_    0.159883 0.309969 0.594928 0.136338
H51   H     H_    0.098322 0.714872 0.440832 0.142848
H52   H     H_    0.657268 0.819666 0.617764 0.134854
H53   H     H_    0.622271 0.270793 0.562421 0.138429
H54   H     H_    0.146104 0.341684 0.469253 0.137759
H55   H     H_    0.118136 0.756469 0.564593 0.133992
H56   H     H_    0.634841 0.871793 0.495943 0.135466
H57   H     H_    0.638342 0.103860 0.578368 0.139805
H58   H     H_    0.244191 0.350701 0.459949 0.156799
H59   H     H_    0.139105 0.591295 0.581013 0.139506
H60   H     H_    0.731803 0.882433 0.479572 0.148524
H61   H     H_    0.032424 0.915397 0.449482 0.102503
H62   H     H_    0.058789 0.941040 0.577899 0.107793
H63   H     H_    0.527136 0.414916 0.448310 0.102255
H64   H     H_    0.552725 0.438030 0.577152 0.103427
H65   H     H_    0.995113 0.088820 0.377446 0.127969
H66   H     H_    0.047056 0.139568 0.633995 0.128512
H67   H     H_    0.493010 0.590553 0.376700 0.128513
H68   H     H_    0.544646 0.636363 0.633611 0.129018
H69   H     H_    0.921872 0.521314 0.359417 0.127653
H70   H     H_    0.004974 0.599802 0.603898 0.137627
H71   H     H_    0.424542 0.026471 0.360640 0.123291
H72   H     H_    0.508959 0.098118 0.605386 0.136322
O1    O     O_R   0.957020 0.451640 0.669920 -0.527858
O2    O     O_R   0.042980 0.451640 0.330080 -0.518191
O3    O     O_R   0.457020 0.951640 0.669920 -0.527180
O4    O     O_R   0.542980 0.951640 0.330080 -0.518445
O5    O     O_R   0.736470 0.210100 0.823360 -0.505430
O6    O     O_R   0.263530 0.210100 0.176640 -0.517311
O7    O     O_R   0.236470 0.710100 0.823360 -0.505392
O8    O     O_R   0.763530 0.710100 0.176640 -0.512422
O9    O     O_R   0.831960 0.093290 0.830130 -0.517631
O10   O     O_R   0.168040 0.093290 0.169870 -0.542166
O11   O     O_R   0.331960 0.593290 0.830130 -0.517246
O12   O     O_R   0.668040 0.593290 0.169870 -0.537898
O13   O     O_R   0.945600 0.250580 0.824860 -0.511934
O14   O     O_R   0.054400 0.250580 0.175140 -0.511472
O15   O     O_R   0.445600 0.750580 0.824860 -0.511915
O16   O     O_R   0.554400 0.750580 0.175140 -0.511007
O17   O     O_3   0.834640 0.334650 0.749500 -0.261692
O18   O     O_3   0.165360 0.334650 0.250500 -0.241454
O19   O     O_3   0.334640 0.834650 0.749500 -0.262236
O20   O     O_3   0.665360 0.834650 0.250500 -0.260944
O21   O     O_R   0.821450 0.543440 0.674610 -0.499896
O22   O     O_R   0.178550 0.543440 0.325390 -0.494558
O23   O     O_R   0.321450 0.043440 0.674610 -0.500223
O24   O     O_R   0.678550 0.043440 0.325390 -0.495536
O25   O     O_R   0.715320 0.458650 0.668100 -0.530704
O26   O     O_R   0.284680 0.458650 0.331900 -0.537135
O27   O     O_R   0.215320 0.958650 0.668100 -0.531075
O28   O     O_R   0.784680 0.958650 0.331900 -0.540632
O29   O     O_R   0.737170 0.209590 0.674530 -0.502065
O30   O     O_R   0.262830 0.209590 0.325470 -0.507767
O31   O     O_R   0.237170 0.709590 0.674530 -0.501872
O32   O     O_R   0.762830 0.709590 0.325470 -0.508600
O33   O     O_R   0.832710 0.092740 0.669580 -0.523799
O34   O     O_R   0.167290 0.092740 0.330420 -0.514763
O35   O     O_R   0.332710 0.592740 0.669580 -0.521825
O36   O     O_R   0.667290 0.592740 0.330420 -0.516191
O37   O     O_R   0.946290 0.250060 0.676040 -0.519157
O38   O     O_R   0.053710 0.250060 0.323960 -0.505516
O39   O     O_R   0.446290 0.750060 0.676040 -0.520489
O40   O     O_R   0.553710 0.750060 0.323960 -0.520015
O41   O     O_R   0.956270 0.452200 0.830470 -0.523794
O42   O     O_R   0.043730 0.452200 0.169530 -0.528822
O43   O     O_R   0.456270 0.952200 0.830470 -0.523982
O44   O     O_R   0.543730 0.952200 0.169530 -0.527971
O45   O     O_R   0.820760 0.543950 0.823440 -0.518580
O46   O     O_R   0.179240 0.543950 0.176560 -0.510903
O47   O     O_R   0.320760 0.043950 0.823440 -0.517989
O48   O     O_R   0.679240 0.043950 0.176560 -0.508606
O49   O     O_R   0.714570 0.459210 0.828640 -0.486673
O50   O     O_R   0.285430 0.459210 0.171360 -0.534718
O51   O     O_R   0.214570 0.959210 0.828640 -0.486240
O52   O     O_R   0.785430 0.959210 0.171360 -0.534454
O53   O     O_3   0.928134 0.074973 0.095907 -0.557837
C133  C     C_3   0.974940 0.988480 0.126705 -0.004629
H73   H     H_    0.024547 0.036646 0.138778 0.181761
H74   H     H_    0.988313 0.913014 0.089357 0.088508
C134  C     C_3   0.946846 0.937089 0.197332 -0.256097
H75   H     H_    0.923924 0.012247 0.229420 0.192626
H76   H     H_    0.905504 0.868104 0.186330 0.174785
C135  C     C_3   0.004957 0.875104 0.240836 -0.486013
H77   H     H_    0.028986 0.799853 0.209730 0.143695
H78   H     H_    0.982527 0.836328 0.290605 0.130943
H79   H     H_    0.046257 0.942388 0.255546 0.165536
O54   O     O_3   0.106263 0.956982 0.932077 -0.564478
C136  C     C_3   0.052916 0.872348 0.913433 -0.000164
H80   H     H_    0.013637 0.868168 0.956994 0.119228
H81   H     H_    0.072941 0.778028 0.904089 0.119034
C137  C     C_3   0.017120 0.914960 0.844376 -0.255530
H82   H     H_    0.989992 0.003253 0.853292 0.169737
H83   H     H_    0.057620 0.929294 0.802669 0.179185
C138  C     C_3   0.963788 0.821406 0.817324 -0.459489
H84   H     H_    0.990322 0.733662 0.804946 0.150259
H85   H     H_    0.938254 0.856476 0.767926 0.149073
H86   H     H_    0.922576 0.804690 0.857793 0.137075
O55   O     O_3   0.428161 0.575004 0.095884 -0.558158
C139  C     C_3   0.474899 0.488540 0.126826 -0.004429
H87   H     H_    0.524539 0.536647 0.138841 0.181866
H88   H     H_    0.488240 0.412886 0.089596 0.088342
C140  C     C_3   0.446736 0.437506 0.197514 -0.256698
H89   H     H_    0.423724 0.512805 0.229423 0.192364
H90   H     H_    0.405454 0.368385 0.186579 0.174286
C141  C     C_3   0.504811 0.375863 0.241233 -0.485434
H91   H     H_    0.528941 0.300491 0.210310 0.144068
H92   H     H_    0.482320 0.337316 0.291033 0.129938
H93   H     H_    0.546040 0.443305 0.255892 0.167846
O56   O     O_3   0.606248 0.457021 0.932104 -0.564509
C142  C     C_3   0.552777 0.372484 0.913651 -0.000086
H94   H     H_    0.513396 0.368997 0.957160 0.119312
H95   H     H_    0.572617 0.277880 0.904703 0.118616
C143  C     C_3   0.517195 0.414669 0.844375 -0.255637
H96   H     H_    0.490100 0.503128 0.853000 0.169630
H97   H     H_    0.557821 0.428596 0.802726 0.179140
C144  C     C_3   0.463862 0.321030 0.817421 -0.459150
H98   H     H_    0.490355 0.233047 0.805433 0.150380
H99   H     H_    0.438559 0.355730 0.767801 0.149226
H100  H     H_    0.422468 0.304839 0.857793 0.137212

loop_
_geom_bond_atom_site_label_1
_geom_bond_atom_site_label_2
_ccdc_geom_bond_type
Cr9   O33   S    
O55   C139  S    
Cr7   O31   S    
C47   O31   A    
C142  H95   S    
C2    C123  S    
C136  C137  S    
Cr11  O35   S    
C116  O12   A    
C137  H82   S    
C6    H2    S    
C94   C117  S    
C95   C99   A    
C29   C33   A    
C134  C135  S    
C46   O34   A    
C83   H27   S    
C70   C74   A    
C9    C121  A    
C138  H85   S    
C17   H53   S    
C81   H25   S    
C112  O52   A    
C87   C115  S    
C119  O15   A    
C97   C105  S    
C14   H50   S    
C15   C127  S    
C22   C130  A    
Cr9   O9    S    
Cr2   O22   S    
C20   C132  S    
C41   C49   A    
C108  H40   S    
C23   C47   S    
Cr11  O11   S    
C30   C34   A    
C120  O44   A    
C60   C76   A    
C52   H71   S    
Cr8   O28   S    
C48   O36   A    
C43   C44   A    
C115  O11   A    
C37   C38   A    
C84   H24   S    
C66   C82   S    
C78   C82   S    
C113  O9    A    
C142  H94   S    
Cr2   O42   S    
C19   H59   S    
C143  H96   S    
Cr4   O44   S    
C17   H57   S    
C113  O5    A    
C112  O48   A    
Cr4   O24   S    
Cr7   O19   S    
C133  H74   S    
C18   C130  S    
C141  H91   S    
Cr7   O7    S    
Cr7   O51   S    
C107  H35   S    
C137  C138  S    
Cr3   O19   S    
C105  H33   S    
C10   C122  A    
C14   C126  S    
C57   C61   A    
C118  O42   A    
C59   C63   A    
C98   C106  S    
C60   C64   A    
C139  H88   S    
C1    C124  S    
C111  O51   A    
C48   O32   A    
C91   O39   A    
C49   C53   A    
C51   C55   A    
C127  C131  A    
C61   C65   A    
C5    C21   A    
Cr9   O17   S    
C126  C130  A    
C51   H72   S    
C122  C126  A    
C72   H12   S    
C101  H29   S    
C120  O16   A    
C97   C98   A    
C104  H32   S    
C53   C54   A    
Cr1   O45   S    
C33   H61   S    
C25   C90   S    
C64   C68   A    
Cr10  O14   S    
Cr6   O6    S    
C73   H13   S    
C36   H64   S    
C57   C73   A    
C20   H56   S    
C60   C109  S    
C45   O33   A    
C27   C44   A    
C61   C77   S    
C29   C38   A    
C107  C108  S    
Cr7   O27   S    
C47   O35   A    
C14   H48   S    
C44   C52   A    
C90   O38   A    
Cr11  O39   S    
C53   H5    S    
Cr1   O21   S    
C33   C34   A    
C21   C45   S    
C144  H99   S    
C100  C108  S    
C5    H1    S    
C62   C66   A    
C24   C48   S    
O54   C136  S    
C46   O30   A    
C109  O49   A    
C39   C40   A    
Cr8   O8    S    
C50   H69   S    
C1    O21   A    
C83   H23   S    
C121  C125  A    
C125  C129  A    
C25   C38   A    
Cr5   O29   S    
C123  C127  A    
C27   C40   A    
C8    C12   A    
Cr2   O18   S    
C23   C131  A    
C2    O26   A    
C21   C129  A    
C42   C50   A    
C77   O53   S    
C93   C97   A    
C69   C85   A    
C58   C74   A    
Cr8   O32   S    
C62   C78   S    
C84   H28   S    
C66   C86   A    
C29   H65   S    
C136  H81   S    
Cr3   O43   S    
Cr10  O38   S    
C13   C17   S    
C85   C113  S    
Cr5   O25   S    
C140  H90   S    
C7    C23   A    
C96   C100  A    
C117  O13   A    
C134  H76   S    
C28   C91   S    
C90   O2    A    
C135  H77   S    
C79   O55   S    
C105  H37   S    
C4    O28   A    
C58   C62   A    
C119  O43   A    
C55   C56   A    
C101  C102  A    
C41   C42   A    
C96   C119  S    
C35   C36   A    
C80   C84   S    
C80   O56   S    
C15   C19   S    
Cr12  O40   S    
C5    C9    A    
C50   C54   A    
C115  O7    A    
C94   C98   A    
Cr9   O13   S    
C6    C22   A    
Cr5   O5    S    
C31   C40   A    
C32   C39   A    
C80   H20   S    
C7    H3    S    
C18   H54   S    
C143  H97   S    
Cr8   O52   S    
C69   C73   A    
C56   H8    S    
C124  C128  A    
C15   H51   S    
Cr1   O41   S    
C13   H49   S    
O53   C133  S    
C64   C80   S    
C133  C134  S    
C8    H4    S    
C25   C42   A    
C141  H92   S    
Cr10  O10   S    
C142  C143  S    
C77   H17   S    
C143  C144  S    
C74   H14   S    
C58   C111  S    
C68   C84   S    
C20   H60   S    
C54   H6    S    
C45   O29   A    
C140  H89   S    
Cr12  O20   S    
C28   C39   A    
Cr2   O2    S    
C49   H70   S    
C69   H9    S    
C30   C37   A    
C141  H93   S    
C116  O8    A    
C16   H52   S    
C114  O10   A    
C24   C132  A    
C65   C81   S    
C138  H84   S    
C135  H79   S    
C77   C81   S    
C71   H11   S    
C103  H31   S    
C4    O24   A    
C138  H86   S    
C18   H58   S    
Cr1   O17   S    
C114  O6    A    
C16   H46   S    
C71   C87   A    
C92   O40   A    
C35   H63   S    
C22   C46   S    
C11   H43   S    
Cr6   O18   S    
C109  O45   A    
C32   C36   A    
C110  O50   A    
C82   H22   S    
C19   H55   S    
Cr12  O16   S    
C11   C123  A    
C93   C102  A    
C6    C10   A    
C26   C37   A    
Cr4   O4    S    
C95   C120  S    
C99   C107  S    
C105  C106  S    
C28   C43   A    
Cr9   O37   S    
C79   C83   S    
C43   C51   A    
C137  H83   S    
C4    C121  S    
C96   C103  A    
C103  C104  A    
Cr8   O20   S    
C133  H73   S    
C13   C125  S    
C3    O23   A    
C82   H26   S    
Cr3   O47   S    
Cr10  O34   S    
Cr4   O48   S    
C14   C18   S    
C72   C76   A    
C63   C79   S    
C144  H98   S    
C34   H62   S    
C26   C89   S    
C7    C11   A    
Cr6   O30   S    
C139  H87   S    
C9    H41   S    
C32   H68   S    
C57   C112  S    
C12   H44   S    
Cr4   O20   S    
C59   C110  S    
C108  H36   S    
Cr11  O19   S    
C92   O4    A    
C106  H38   S    
C10   H42   S    
Cr5   O49   S    
C94   C101  A    
Cr3   O23   S    
Cr6   O26   S    
C3    C122  S    
C16   C20   S    
Cr12  O36   S    
Cr2   O46   S    
C89   O37   A    
C91   O3    A    
C128  C132  A    
C72   C88   A    
C140  C141  S    
C19   C131  S    
C63   C67   A    
C17   C129  S    
C2    O22   A    
Cr6   O50   S    
C136  H80   S    
Cr1   O1    S    
C107  H39   S    
C88   C116  S    
C117  O41   A    
C99   C100  A    
C12   C124  A    
Cr3   O3    S    
C134  H75   S    
C27   C92   S    
C3    O27   A    
C67   C83   S    
C16   C128  S    
C111  O47   A    
C1    O25   A    
C135  H78   S    
C78   H18   S    
C68   C88   A    
C93   C118  S    
Cr5   O17   S    
C70   C86   A    
C59   C75   A    
C95   C104  A    
C144  H100  S    
C75   H15   S    
C55   H7    S    
O56   C142  S    
C76   H16   S    
C70   H10   S    
C139  C140  S    
C79   H19   S    
C30   H66   S    
C65   C85   A    
C102  H30   S    
C67   C87   A    
C13   H47   S    
C86   C114  S    
Cr11  O15   S    
C78   O54   S    
C71   C75   A    
C118  O14   A    
C106  H34   S    
C31   C35   A    
C15   H45   S    
C110  O46   A    
C89   O1    A    
Cr10  O18   S    
C31   H67   S    
C8    C24   A    
C81   H21   S    
Cr12  O12   S    
C52   C56   A    
C26   C41   A    
