data_mof_unit_16141.cif
_audit_creation_date              2012-12-11T16:19:46-0500
_audit_creation_method            fapswitch 2.2
_symmetry_space_group_name_H-M    P1
_symmetry_Int_Tables_number       1
_space_group_crystal_system       triclinic
_cell_length_a                    13.517286
_cell_length_b                    14.056885
_cell_length_c                    30.091406
_cell_angle_alpha                 97.401734
_cell_angle_beta                  90.704822
_cell_angle_gamma                 118.766154
_cell_volume                      4952.13025656

loop_
_atom_site_label
_atom_site_type_symbol
_atom_type_description
_atom_site_fract_x
_atom_site_fract_y
_atom_site_fract_z
_atom_type_partial_charge
C1    C     C_R   0.722892 0.099706 0.568324 0.572959
C2    C     C_R   0.351388 0.669599 0.676085 0.010560
C3    C     C_R   0.252480 0.643352 0.650375 -0.084393
C4    C     C_R   0.257365 0.670046 0.606864 0.219033
C5    C     C_R   0.222541 0.618103 0.825641 -0.037598
C6    C     C_R   0.206369 0.592002 0.869041 -0.172515
C7    C     C_R   0.402504 0.637511 0.881423 -0.073418
C8    C     C_R   0.421812 0.666206 0.838134 0.275111
C9    C     C_R   0.330092 0.650641 0.809333 0.027837
C10   C     C_1   0.342936 0.658194 0.762450 0.140860
C11   C     C_1   0.348178 0.661875 0.722916 0.093291
C12   C     C_R   0.383228 0.786955 0.550836 0.583165
C13   C     C_R   0.293964 0.596647 0.896420 -0.040080
C14   C     C_3   0.389728 0.092180 0.724969 0.149621
C15   C     C_3   0.202532 0.098119 0.710959 -0.085472
C16   C     C_3   0.192880 0.096181 0.762539 -0.230127
C17   C     C_1   0.293521 0.197778 0.877017 0.046319
C18   C     C_3   0.330113 0.146681 0.700934 -0.034541
C19   C     C_3   0.381562 0.108151 0.776613 -0.189086
C20   C     C_3   0.311658 0.167096 0.788781 -0.017677
C21   C     C_3   0.367719 0.282143 0.772686 0.135371
C22   C     C_3   0.391327 0.269888 0.722402 -0.244824
C23   C     C_R   0.397874 0.118430 0.569349 0.578177
C24   C     C_1   0.300390 0.178581 0.837430 0.010401
C25   C     C_1   0.346195 0.141410 0.652478 -0.006708
C26   C     C_1   0.366107 0.134467 0.613675 0.072189
C27   C     C_3   0.736797 0.186298 0.723871 -0.091489
C28   C     C_3   0.949217 0.270862 0.718753 -0.244378
C29   C     C_3   0.964213 0.283925 0.770853 -0.216126
C30   C     C_1   0.903933 0.207211 0.877689 0.008350
C31   C     C_3   0.832568 0.170469 0.700830 -0.013507
C32   C     C_3   0.749618 0.187437 0.775917 -0.092307
C33   C     C_3   0.862198 0.188490 0.789122 0.032483
C34   C     C_R   0.718968 0.095129 0.442572 0.577346
C35   C     C_3   0.853163 0.079045 0.766158 -0.240181
C36   C     C_3   0.834164 0.067035 0.714207 -0.093126
C37   C     C_1   0.881274 0.197761 0.838084 -0.040174
C38   C     C_1   0.811976 0.156743 0.651674 -0.007694
C39   C     C_1   0.779009 0.135590 0.612545 0.065685
C40   C     C_3   0.433788 0.808227 0.269487 -0.116075
C41   C     C_3   0.223594 0.654537 0.267747 0.229516
C42   C     C_3   0.221397 0.636120 0.215093 -0.210816
C43   C     C_1   0.311810 0.609876 0.110424 -0.009969
C44   C     C_3   0.349919 0.700041 0.288262 -0.001939
C45   C     C_R   0.382440 0.785652 0.424668 0.557359
C46   C     C_3   0.422677 0.786499 0.216845 -0.192833
C47   C     C_3   0.339931 0.664030 0.199552 -0.012882
C48   C     C_3   0.380922 0.592282 0.220206 -0.215525
C49   C     C_3   0.390053 0.615869 0.272206 -0.212175
C50   C     C_1   0.330684 0.640169 0.150297 -0.069549
C51   C     C_1   0.359517 0.719378 0.337831 -0.006076
C52   C     C_1   0.367986 0.742758 0.378049 0.055614
C53   C     C_R   0.350572 0.131278 0.401544 0.008830
C54   C     C_R   0.381087 0.236584 0.390378 0.032604
C55   C     C_R   0.358654 0.245516 0.345277 0.282859
C56   C     C_R   0.394801 0.114798 0.443305 0.569682
C57   C     C_R   0.310409 0.149842 0.312636 0.045349
C58   C     C_R   0.268516 0.046779 0.325433 -0.128477
C59   C     C_R   0.287528 0.037337 0.369436 -0.128526
C60   C     C_R   0.237286 0.091167 0.148109 -0.112518
C61   C     C_R   0.232330 0.110557 0.104087 -0.120882
C62   C     C_R   0.407589 0.283306 0.121778 -0.125165
C63   C     C_R   0.412220 0.263715 0.165824 -0.100864
C64   C     C_R   0.324911 0.169656 0.179306 0.037946
C65   C     C_1   0.318820 0.159822 0.225958 0.039746
C66   C     C_1   0.313439 0.154772 0.265406 0.101876
C67   C     C_R   0.364935 0.727812 0.589894 0.030862
C68   C     C_R   0.314750 0.209207 0.091083 0.019894
C69   C     C_R   0.767850 0.130334 0.400341 -0.031272
C70   C     C_R   0.847000 0.103953 0.379912 0.224380
C71   C     C_R   0.872027 0.124869 0.335966 -0.127371
C72   C     C_R   0.820815 0.172581 0.312999 0.001028
C73   C     C_R   0.747705 0.204886 0.334108 0.269657
C74   C     C_R   0.722270 0.183725 0.377484 -0.146842
C75   C     C_R   0.886830 0.296447 0.166495 -0.116202
C76   C     C_R   0.910240 0.306881 0.121921 -0.136641
C77   C     C_R   0.852158 0.112446 0.106032 -0.117765
C78   C     C_R   0.461931 0.743184 0.614824 -0.123710
C79   C     C_R   0.829116 0.102391 0.150580 -0.115204
C80   C     C_R   0.850999 0.195270 0.181021 0.034542
C81   C     C_1   0.843916 0.187965 0.227610 0.045021
C82   C     C_1   0.836803 0.181348 0.266732 0.094958
C83   C     C_R   0.898200 0.215903 0.091925 0.024345
C84   C     C_R   0.283041 0.232646 0.922539 0.549579
C85   C     C_R   0.265078 0.546671 0.937848 0.549485
C86   C     C_R   0.946712 0.222700 0.923099 0.549848
C87   C     C_R   0.292578 0.243451 0.049523 0.540490
C88   C     C_R   0.275748 0.558834 0.064772 0.545323
C89   C     C_R   0.454954 0.714165 0.657559 -0.076082
C90   C     C_R   0.953601 0.232509 0.049899 0.544031
Cr1   Cr    Cr6+3 0.583400 0.162540 0.509180 1.123285
Cr2   Cr    Cr6+3 0.584070 0.916690 0.495550 1.113080
Cr3   Cr    Cr6+3 0.332550 0.920810 0.495240 1.157987
Cr4   Cr    Cr6+3 0.086700 0.177000 0.983690 1.036421
Cr5   Cr    Cr6+3 0.336880 0.419130 0.994740 1.053231
Cr6   Cr    Cr6+3 0.084850 0.422220 0.995960 1.033435
H1    H     H_    0.122374 0.562189 0.880617 0.147668
H2    H     H_    0.173101 0.155028 0.701462 0.101017
H3    H     H_    0.154854 0.010695 0.770155 0.206534
H4    H     H_    0.135142 0.128389 0.773958 0.095133
H5    H     H_    0.483553 0.305449 0.718759 0.219164
H6    H     H_    0.361966 0.317054 0.704140 0.121294
H7    H     H_    0.480988 0.136540 0.719349 0.156450
H8    H     H_    0.468160 0.156110 0.793795 0.148761
H9    H     H_    0.304174 0.311258 0.774517 0.114960
H10   H     H_    0.018434 0.259069 0.704044 0.122807
H11   H     H_    0.958115 0.347487 0.708410 0.145949
H12   H     H_    0.973614 0.364444 0.785895 0.170668
H13   H     H_    0.044317 0.284884 0.780849 0.107833
H14   H     H_    0.907608 0.063122 0.699407 0.194457
H15   H     H_    0.783669 0.008905 0.779658 0.178054
H16   H     H_    0.172005 0.605981 0.665003 0.165504
H17   H     H_    0.653863 0.113772 0.710522 0.145431
H18   H     H_    0.679170 0.107766 0.782888 0.099352
H19   H     H_    0.932385 0.077029 0.774757 0.134206
H20   H     H_    0.391907 0.836793 0.201912 0.183039
H21   H     H_    0.191187 0.686158 0.199478 0.084274
H22   H     H_    0.160031 0.549829 0.200541 0.141421
H23   H     H_    0.479477 0.647705 0.285364 0.134938
H24   H     H_    0.340259 0.539260 0.286155 0.257017
H25   H     H_    0.465064 0.609500 0.208682 0.132393
H26   H     H_    0.521692 0.828706 0.280535 0.108513
H27   H     H_    0.507519 0.809412 0.204631 0.120341
H28   H     H_    0.321114 0.503690 0.208569 0.176730
H29   H     H_    0.160045 0.051741 0.081163 0.130697
H30   H     H_    0.169578 0.018001 0.158401 0.112616
H31   H     H_    0.227171 0.973247 0.300630 0.158640
H32   H     H_    0.261076 0.955824 0.377253 0.186621
H33   H     H_    0.545159 0.784756 0.602702 0.187149
H34   H     H_    0.480414 0.324752 0.189951 0.143758
H35   H     H_    0.472232 0.360007 0.112812 0.137175
H36   H     H_    0.945623 0.387522 0.111947 0.136071
H37   H     H_    0.902354 0.368260 0.190045 0.165831
H38   H     H_    0.661327 0.204141 0.392642 0.179871
H39   H     H_    0.799831 0.023552 0.161748 0.109941
H40   H     H_    0.841173 0.040864 0.083466 0.134170
H41   H     H_    0.929407 0.101765 0.319121 0.147818
H42   H     H_    0.470900 0.643974 0.902945 0.188043
H43   H     H_    0.531205 0.732129 0.677207 0.192984
H44   H     H_    0.342132 0.028130 0.789432 0.189423
O1    O     O_R   0.494060 0.188820 0.559230 -0.469733
O2    O     O_R   0.480140 0.824500 0.445020 -0.507244
O3    O     O_R   0.308480 0.808690 0.440220 -0.464119
O4    O     O_R   0.340970 0.020670 0.455610 -0.503700
O5    O     O_3   0.500010 0.000010 0.499990 -0.306278
O6    O     O_R   0.969690 0.151000 0.934080 -0.497113
O7    O     O_R   0.187530 0.180840 0.938210 -0.505410
O8    O     O_R   0.358160 0.327300 0.941250 -0.475335
O9    O     O_R   0.323950 0.507710 0.953980 -0.487662
O10   O     O_R   0.170530 0.527770 0.952070 -0.512056
O11   O     O_R   0.987720 0.318450 0.945940 -0.494545
O12   O     O_R   0.678470 0.153390 0.554100 -0.474277
O13   O     O_R   0.976400 0.159230 0.032040 -0.515824
O14   O     O_R   0.193740 0.188470 0.029020 -0.502023
O15   O     O_R   0.364860 0.335530 0.039220 -0.515637
O16   O     O_R   0.330170 0.515340 0.044800 -0.496488
O17   O     O_R   0.177230 0.536000 0.050040 -0.509945
O18   O     O_R   0.993930 0.326080 0.036750 -0.501964
O19   O     O_3   0.169480 0.339450 0.991460 -0.255281
O20   O     O_R   0.697870 0.003940 0.549410 -0.482803
O21   O     O_R   0.480980 0.827230 0.535590 -0.516772
O22   O     O_R   0.309390 0.811640 0.537920 -0.410222
O23   O     O_R   0.341810 0.023400 0.546180 -0.475886
O24   O     O_R   0.493150 0.185870 0.461540 -0.484000
O25   O     O_R   0.677630 0.150660 0.463530 -0.511790
O26   O     O_R   0.696960 0.000990 0.451710 -0.441980
S1    S     S_3+6 0.345428 0.950156 0.703826 -0.055092
O27   O     O_2   0.339197 0.931196 0.653329 -0.329843
O28   O     O_2   0.431531 0.923218 0.721951 -0.308739
O29   O     O_3   0.218939 0.867044 0.721442 -0.504595
H45   H     H_    0.190165 0.796123 0.701232 0.381821
C91   C     C_2   0.122921 0.987948 0.683550 0.297234
H46   H     H_    0.151886 0.952188 0.656207 0.173939
O30   O     O_2   0.023035 0.939789 0.690607 -0.464480
S2    S     S_3+6 0.490520 0.389025 0.808002 0.024909
O31   O     O_2   0.580236 0.460686 0.780067 -0.194231
O32   O     O_2   0.452811 0.458099 0.837435 -0.267573
O33   O     O_3   0.546529 0.337183 0.841436 -0.557787
H47   H     H_    0.605356 0.401647 0.861798 0.387347
C92   C     C_2   0.122924 0.606536 0.798754 0.227922
H48   H     H_    0.040300 0.570260 0.811916 0.145925
O34   O     O_2   0.131041 0.638737 0.762513 -0.494629
C93   C     C_2   0.733163 0.273571 0.805601 0.228378
H49   H     H_    0.664834 0.246806 0.827451 0.150912
O35   O     O_2   0.797826 0.371663 0.807143 -0.506633
C94   C     C_2   0.733473 0.285984 0.711119 0.269543
H50   H     H_    0.801503 0.368282 0.723129 0.188108
O36   O     O_2   0.655411 0.274677 0.686199 -0.514002
C95   C     C_2   0.729130 0.960581 0.695988 0.235539
H51   H     H_    0.647478 0.942596 0.707946 0.147403
O37   O     O_2   0.735675 0.893446 0.667888 -0.466038
C96   C     C_2   0.425787 0.909089 0.289186 0.216974
H52   H     H_    0.438110 0.934344 0.325356 0.110638
O38   O     O_2   0.408137 0.964419 0.265445 -0.502975
S3    S     S_3+6 0.123172 0.524671 0.285324 0.049754
O39   O     O_2   0.135843 0.531241 0.335477 -0.158889
O40   O     O_2   0.004958 0.500941 0.272081 -0.253356
O41   O     O_3   0.140563 0.419622 0.260819 -0.515994
H53   H     H_    0.084390 0.384398 0.234314 0.335016
C97   C     C_2   0.181977 0.736019 0.282521 0.285729
H54   H     H_    0.175330 0.786299 0.259416 0.085476
O42   O     O_2   0.158629 0.749094 0.321121 -0.455868
S4    S     S_3+6 0.127698 0.631099 0.575993 0.074450
O43   O     O_2   0.132918 0.594619 0.527293 -0.193545
O44   O     O_2   0.031208 0.538196 0.594008 -0.266255
O45   O     O_3   0.104087 0.738828 0.580314 -0.445432
H55   H     H_    0.103476 0.759478 0.613008 0.347627
C98   C     C_2   0.437107 0.336325 0.424991 0.342652
H56   H     H_    0.499223 0.414181 0.415917 0.177203
O46   O     O_2   0.412204 0.333152 0.463847 -0.449814
S5    S     S_3+6 0.388116 0.374201 0.329848 0.009596
O47   O     O_2   0.512902 0.440633 0.325276 -0.263611
O48   O     O_2   0.323695 0.357844 0.285964 -0.283689
O49   O     O_3   0.349867 0.442865 0.369677 -0.489660
H57   H     H_    0.391192 0.520425 0.364711 0.357691
S6    S     S_3+6 0.682476 0.266724 0.306212 0.049559
O50   O     O_2   0.607648 0.291624 0.336467 -0.283493
O51   O     O_2   0.772553 0.371596 0.292809 -0.191488
O52   O     O_3   0.604457 0.181070 0.259730 -0.505459
H58   H     H_    0.573800 0.221923 0.245223 0.366762
S7    S     S_3+6 0.916901 0.046856 0.407898 0.073553
O53   O     O_2   0.944814 0.096856 0.456710 -0.197697
O54   O     O_2   0.840518 0.924999 0.404461 -0.257731
O55   O     O_3   0.037941 0.071114 0.384645 -0.484268
H59   H     H_    0.016180 0.009072 0.359916 0.343864
S8    S     S_3+6 0.560897 0.721342 0.820685 0.045972
O56   O     O_2   0.560375 0.656527 0.776789 -0.225069
O57   O     O_2   0.601374 0.838298 0.814253 -0.315281
O58   O     O_3   0.649207 0.717958 0.859543 -0.496129
H60   H     H_    0.723611 0.748493 0.846726 0.380979

loop_
_geom_bond_atom_site_label_1
_geom_bond_atom_site_label_2
_ccdc_geom_bond_type
Cr2   O21   S    
Cr4   O6    S    
C15   C18   S    
Cr6   O18   S    
S4    O43   D    
Cr4   O19   S    
S3    O40   D    
C41   C42   S    
C14   C18   S    
C32   C93   S    
C35   C36   S    
S6    O52   S    
Cr1   O5    S    
C57   C66   S    
C93   H49   S    
O55   H59   S    
C81   C82   T    
C53   C59   A    
S5    O49   S    
C7    C8    A    
S1    O28   D    
C49   H23   S    
C53   C54   A    
C92   H48   S    
S5    O47   D    
C40   C46   S    
S4    O44   D    
C98   H56   S    
C22   H5    S    
Cr5   O19   S    
C43   C88   S    
C88   O16   A    
C29   H13   S    
C28   C29   S    
C78   H33   S    
S6    O51   D    
S7    O55   S    
C93   O35   D    
C5    C6    A    
C84   O7    A    
C49   H24   S    
O29   H45   S    
Cr3   O23   S    
C28   H11   S    
C15   C16   S    
C29   C33   S    
C70   S7    S    
S2    O32   D    
C1    O12   A    
Cr5   O16   S    
C73   C74   A    
C63   H34   S    
C95   O37   D    
C85   O10   A    
C33   C35   S    
C12   O21   A    
C46   C47   S    
C20   C24   S    
C28   H10   S    
C97   H54   S    
C89   H43   S    
C19   H44   S    
C73   S6    S    
Cr3   O5    S    
O41   H53   S    
Cr5   O9    S    
C77   H40   S    
C30   C86   S    
C34   O25   A    
Cr2   O2    S    
C75   C80   A    
Cr3   O3    S    
Cr4   O14   S    
C72   C73   A    
S3    O41   S    
C77   C79   A    
Cr6   O17   S    
C27   C32   S    
C58   H31   S    
C18   C22   S    
C21   C22   S    
C57   C58   A    
C69   C70   A    
C67   C78   A    
C41   C97   S    
C2    C11   S    
C86   O6    A    
C76   C83   A    
C12   C67   S    
O58   H60   S    
C92   O34   D    
C60   C64   A    
O33   H47   S    
S2    O33   S    
C23   O23   A    
C84   O8    A    
C78   C89   A    
C38   C39   T    
S4    O45   S    
C17   C24   T    
C27   C31   S    
C36   C95   S    
C6    H1    S    
S6    O50   D    
Cr1   O24   S    
C71   H41   S    
S1    O27   D    
C8    S8    S    
O49   H57   S    
C8    C9    A    
C4    S4    S    
C16   H4    S    
C42   H21   S    
C45   C52   S    
C21   S2    S    
C58   C59   A    
C63   C64   A    
Cr6   O11   S    
C12   O22   A    
C44   C49   S    
C33   C37   S    
C51   C52   T    
C30   C37   T    
C60   C61   A    
C27   C94   S    
C96   O38   D    
C90   O18   A    
C2    C89   A    
C75   C76   A    
C28   C31   S    
C5    C92   S    
C5    C9    A    
C62   C63   A    
C7    H42   S    
S7    O53   D    
C19   H8    S    
C47   C48   S    
C40   C96   S    
C7    C13   A    
C3    H16   S    
C16   C20   S    
Cr6   O10   S    
C59   H32   S    
C87   O14   A    
C69   C74   A    
C29   H12   S    
C88   O17   A    
C90   O13   A    
C35   H19   S    
C96   H52   S    
C34   C69   S    
C70   C71   A    
Cr3   O4    S    
C94   H50   S    
S1    O29   S    
C27   H17   S    
C44   C51   S    
C97   O42   D    
C48   C49   S    
S5    O48   D    
S7    O54   D    
C65   C66   T    
S8    O57   D    
C55   C57   A    
C36   H14   S    
C45   O2    A    
C41   C44   S    
C87   O15   A    
C79   C80   A    
C15   H2    S    
C94   O36   D    
C3    C4    A    
C48   H25   S    
C43   C50   T    
O52   H58   S    
C35   H15   S    
C91   H46   S    
C9    C10   S    
C53   C56   S    
Cr4   O7    S    
C83   C90   S    
C54   C55   A    
Cr2   O5    S    
O45   H55   S    
C62   H35   S    
Cr1   O25   S    
C1    O20   A    
C42   H22   S    
Cr5   O8    S    
C54   C98   S    
C80   C81   S    
C48   H28   S    
C4    C67   A    
C75   H37   S    
C16   H3    S    
C62   C68   A    
S8    O58   S    
C79   H39   S    
C56   O24   A    
C47   C50   S    
C22   H6    S    
C31   C38   S    
C46   H20   S    
Cr2   O20   S    
C17   C84   S    
C32   C33   S    
C19   C20   S    
C60   H30   S    
C2    C3    A    
C25   C26   T    
C71   C72   A    
C41   S3    S    
S2    O31   D    
C18   C25   S    
C86   O11   A    
C64   C65   S    
C6    C13   A    
C76   H36   S    
C61   C68   A    
C40   H26   S    
C14   H7    S    
Cr1   O12   S    
Cr3   O22   S    
Cr4   O13   S    
C72   C82   S    
C74   H38   S    
C14   C19   S    
C91   O30   D    
C23   C26   S    
C15   C91   S    
Cr5   O15   S    
C42   C47   S    
C95   H51   S    
C46   H27   S    
C85   O9    A    
C10   C11   T    
C1    C39   S    
C55   S5    S    
S3    O39   D    
C56   O4    A    
Cr2   O26   S    
C40   C44   S    
Cr6   O19   S    
C20   C21   S    
C98   O46   D    
S8    O56   D    
C13   C85   S    
C45   O3    A    
C68   C87   S    
C77   C83   A    
C31   C36   S    
C23   O1    A    
C61   H29   S    
C32   H18   S    
C14   S1    S    
C34   O26   A    
C21   H9    S    
Cr1   O1    S    
