data_mof_unit_46098.cif
_audit_creation_date              2012-12-11T14:36:24-0500
_audit_creation_method            fapswitch 2.2
_symmetry_space_group_name_H-M    P1
_symmetry_Int_Tables_number       1
_space_group_crystal_system       triclinic
_cell_length_a                    13.516205
_cell_length_b                    13.538074
_cell_length_c                    27.438623
_cell_angle_alpha                 90.667193
_cell_angle_beta                  90.152433
_cell_angle_gamma                 60.192115
_cell_volume                      4356.22015826

loop_
_atom_site_label
_atom_site_type_symbol
_atom_type_description
_atom_site_fract_x
_atom_site_fract_y
_atom_site_fract_z
_atom_type_partial_charge
C1    C     C_R   0.622552 0.103614 0.568789 0.536965
C2    C     C_1   0.665487 0.676169 0.653225 -0.067259
C3    C     C_3   0.406372 0.027948 0.723003 -0.005640
C4    C     C_3   0.474711 0.953959 0.680358 -0.260188
C5    C     C_3   0.564104 0.983467 0.665173 -0.468006
C6    C     C_3   0.038597 0.171918 0.732013 -0.144561
C7    C     C_R   0.601540 0.776008 0.567690 0.535935
C8    C     C_3   0.122400 0.088687 0.770558 -0.065810
C9    C     C_1   0.077593 0.211793 0.898858 -0.008139
C10   C     C_1   0.214341 0.145574 0.614774 -0.026254
C11   C     C_3   0.018643 0.274526 0.765215 -0.126342
C12   C     C_3   0.103747 0.190753 0.802440 0.017137
C13   C     C_3   0.118773 0.278682 0.739480 -0.149461
C14   C     C_3   0.138513 0.176196 0.707051 0.049941
C15   C     C_1   0.640837 0.714541 0.612628 -0.028701
C16   C     C_3   0.202629 0.195901 0.777881 -0.104749
C17   C     C_3   0.219843 0.095470 0.745465 0.315467
C18   C     C_1   0.091382 0.199250 0.855457 -0.054450
C19   C     C_R   0.275893 0.122720 0.569249 0.536359
C20   C     C_1   0.173449 0.161574 0.655303 -0.041501
C21   C     C_3   0.695735 0.260131 0.736041 -0.104492
C22   C     C_3   0.594268 0.293687 0.771488 -0.098422
C23   C     C_1   0.695395 0.211280 0.901093 -0.015059
C24   C     C_1   0.644495 0.141991 0.614673 -0.029145
C25   C     C_3   0.774312 0.161494 0.770258 -0.101223
C26   C     C_3   0.660249 0.557897 0.765223 -0.104648
C27   C     C_3   0.672731 0.194766 0.804818 0.055138
C28   C     C_3   0.743366 0.080300 0.742555 -0.104002
C29   C     C_3   0.664914 0.179072 0.709116 0.053529
C30   C     C_3   0.642059 0.113746 0.777819 -0.107478
C31   C     C_R   0.621948 0.098716 0.430972 0.546660
C32   C     C_3   0.563396 0.212322 0.743756 -0.102656
C33   C     C_1   0.681390 0.202820 0.858047 -0.057836
C34   C     C_1   0.656954 0.164006 0.656302 -0.063863
C35   C     C_R   0.737875 0.701244 0.361107 -0.132780
C36   C     C_R   0.750983 0.679934 0.310971 0.026527
C37   C     C_3   0.697279 0.622246 0.800720 0.049848
C38   C     C_R   0.764342 0.657276 0.209126 0.020603
C39   C     C_R   0.851866 0.660590 0.235349 -0.124788
C40   C     C_R   0.844442 0.673439 0.286001 -0.129432
C41   C     C_R   0.772968 0.639544 0.158701 -0.134771
C42   C     C_R   0.685774 0.633467 0.133503 -0.022901
C43   C     C_R   0.602729 0.774408 0.430977 0.546674
C44   C     C_R   0.565914 0.686286 0.359919 -0.126838
C45   C     C_R   0.574118 0.671661 0.309782 -0.030143
C46   C     C_R   0.665113 0.671694 0.284945 0.049929
C47   C     C_R   0.488658 0.663997 0.284110 -0.120187
C48   C     C_3   0.582336 0.671258 0.739212 -0.096438
C49   C     C_R   0.487579 0.665045 0.233025 0.261501
C50   C     C_R   0.579149 0.664476 0.208275 0.025862
C51   C     C_R   0.669309 0.665000 0.234110 0.019951
C52   C     C_R   0.585245 0.656864 0.157847 -0.109459
C53   C     C_R   0.641037 0.712021 0.384854 -0.000292
C54   C     C_R   0.191158 0.071379 0.361348 -0.136876
C55   C     C_R   0.276730 0.121679 0.431481 0.548418
C56   C     C_R   0.159313 0.088093 0.312259 0.017021
C57   C     C_R   0.118897 0.110952 0.211534 0.013917
C58   C     C_R   0.116088 0.022888 0.236762 -0.136817
C59   C     C_3   0.682366 0.648848 0.705438 0.045234
C60   C     C_R   0.138069 0.010440 0.286760 -0.135706
C61   C     C_R   0.099632 0.122832 0.161442 -0.132598
C62   C     C_R   0.097750 0.214520 0.137087 -0.004054
C63   C     C_R   0.192665 0.250318 0.362349 -0.125881
C64   C     C_R   0.168500 0.264215 0.313112 0.011329
C65   C     C_R   0.154027 0.181638 0.287583 0.063783
C66   C     C_R   0.165435 0.355936 0.288596 -0.127713
C67   C     C_3   0.760172 0.535578 0.730598 -0.106664
C68   C     C_R   0.151692 0.363851 0.238339 -0.126848
C69   C     C_R   0.138341 0.281518 0.212453 0.013761
C70   C     C_3   0.619693 0.735042 0.775301 -0.096458
C71   C     C_R   0.137128 0.191276 0.237160 0.063811
C72   C     C_R   0.121802 0.290592 0.162451 -0.129663
C73   C     C_R   0.213401 0.149768 0.385687 -0.004285
C74   C     C_R   0.565753 0.234600 0.362127 -0.133870
C75   C     C_R   0.570299 0.251741 0.312212 0.017555
C76   C     C_R   0.579935 0.282627 0.211601 0.010960
C77   C     C_R   0.500642 0.371906 0.241132 -0.132186
C78   C     C_R   0.495056 0.356571 0.291094 -0.132901
C79   C     C_3   0.797816 0.599112 0.767172 -0.101081
C80   C     C_R   0.592906 0.299995 0.162440 -0.133425
C81   C     C_3   0.719738 0.712689 0.741100 -0.107307
C82   C     C_R   0.677126 0.210638 0.134295 -0.007457
C83   C     C_R   0.724670 0.041344 0.352962 -0.127699
C84   C     C_R   0.727122 0.055514 0.303178 0.010464
C85   C     C_R   0.649755 0.160959 0.282565 0.063804
C86   C     C_R   0.803380 0.964412 0.273560 -0.127396
C87   C     C_R   0.803790 0.977952 0.223461 -0.128301
C88   C     C_R   0.730387 0.083698 0.202819 0.013397
C89   C     C_R   0.652533 0.175539 0.232251 0.064070
C90   C     C_R   0.739006 0.100981 0.153699 -0.129431
C91   C     C_1   0.703825 0.593951 0.897287 -0.013621
C92   C     C_1   0.700757 0.609824 0.853949 -0.057633
C93   C     C_R   0.641451 0.128641 0.382365 -0.001762
C94   C     C_R   0.045743 0.238218 0.948962 0.545272
C95   C     C_R   0.712881 0.560069 0.947308 0.543991
C96   C     C_R   0.723100 0.226238 0.950330 0.542541
C97   C     C_R   0.046661 0.246065 0.088813 0.549309
C98   C     C_R   0.707823 0.574938 0.086403 0.546123
C99   C     C_R   0.718143 0.233670 0.088999 0.547914
C100  C     C_3   0.294282 0.726242 0.220791 0.000522
C101  C     C_3   0.237690 0.658793 0.237855 -0.270340
C102  C     C_3   0.111242 0.736066 0.248705 -0.493580
Cr1   Cr    Cr6+3 0.417550 0.169090 0.500530 1.017818
Cr2   Cr    Cr6+3 0.669180 0.913420 0.499920 1.014628
Cr3   Cr    Cr6+3 0.413260 0.917540 0.499520 1.020276
Cr4   Cr    Cr6+3 0.909170 0.177380 0.020380 1.020842
Cr5   Cr    Cr6+3 0.912710 0.429210 0.018220 1.022360
Cr6   Cr    Cr6+3 0.657170 0.432570 0.019030 1.027631
H1    H     H_    0.886554 0.569499 0.779270 0.106534
H2    H     H_    0.861195 0.140037 0.782181 0.108864
H3    H     H_    0.850242 0.622836 0.139818 0.121915
H4    H     H_    0.816331 0.454726 0.710821 0.103391
H5    H     H_    0.797813 0.718154 0.380660 0.117665
H6    H     H_    0.925468 0.653918 0.216641 0.096929
H7    H     H_    0.911476 0.678414 0.305653 0.091630
H8    H     H_    0.516194 0.656502 0.137849 0.183897
H9    H     H_    0.422000 0.658985 0.303841 0.097317
H10   H     H_    0.493004 0.690798 0.378496 0.129209
H11   H     H_    0.080145 0.064372 0.142039 0.125988
H12   H     H_    0.270931 0.204103 0.796851 0.094273
H13   H     H_    0.204682 0.995043 0.379582 0.119330
H14   H     H_    0.098100 0.963156 0.217699 0.099175
H15   H     H_    0.744811 0.776272 0.730799 0.102450
H16   H     H_    0.139394 0.939909 0.305506 0.097377
H17   H     H_    0.119736 0.361966 0.143959 0.129355
H18   H     H_    0.151012 0.434450 0.219784 0.099794
H19   H     H_    0.176805 0.419697 0.308077 0.100269
H20   H     H_    0.206131 0.313523 0.381175 0.133557
H21   H     H_    0.543915 0.384504 0.147315 0.144556
H22   H     H_    0.501096 0.301767 0.384753 0.117363
H23   H     H_    0.116003 0.357363 0.726492 0.110707
H24   H     H_    0.443822 0.453451 0.225484 0.163604
H25   H     H_    0.432998 0.426829 0.313249 0.097085
H26   H     H_    0.802092 0.030933 0.131677 0.127726
H27   H     H_    0.561998 0.816962 0.794049 0.121068
H28   H     H_    0.863419 0.906849 0.201013 0.100375
H29   H     H_    0.862409 0.882828 0.289150 0.105312
H30   H     H_    0.782826 0.958688 0.368071 0.130757
H31   H     H_    0.493502 0.700531 0.727333 0.129960
H32   H     H_    0.635490 0.494538 0.776125 0.104780
H33   H     H_    0.126059 0.009657 0.783639 0.113141
H34   H     H_    0.935126 0.347604 0.775977 0.119259
H35   H     H_    0.970927 0.163368 0.712714 0.109918
H36   H     H_    0.248353 0.775663 0.188138 0.150114
H37   H     H_    0.285183 0.789397 0.249295 0.126686
H38   H     H_    0.246722 0.596556 0.208966 0.166330
H39   H     H_    0.280550 0.611207 0.271306 0.145702
H40   H     H_    0.099057 0.796570 0.278764 0.143217
H41   H     H_    0.073500 0.683467 0.260013 0.134678
H42   H     H_    0.066383 0.784099 0.215659 0.140210
H43   H     H_    0.463355 0.012516 0.754737 0.130834
H44   H     H_    0.370275 0.118728 0.712099 0.119031
H45   H     H_    0.532077 0.381322 0.783964 0.102598
H46   H     H_    0.514912 0.865002 0.691471 0.184885
H47   H     H_    0.417938 0.965509 0.649073 0.188531
H48   H     H_    0.518578 0.073229 0.653535 0.157870
H49   H     H_    0.615433 0.928759 0.634385 0.180083
H50   H     H_    0.621966 0.972453 0.695960 0.139816
H51   H     H_    0.718502 0.319468 0.718336 0.100419
H52   H     H_    0.476215 0.233541 0.732350 0.093544
H53   H     H_    0.619847 0.053670 0.795228 0.094192
H54   H     H_    0.805214 0.992435 0.730179 0.103352
O1    O     O_R   0.301710 0.195650 0.554160 -0.507649
O2    O     O_R   0.635520 0.542770 0.964420 -0.506366
O3    O     O_R   0.665950 0.325030 0.970100 -0.495631
O4    O     O_R   0.522390 0.158990 0.550460 -0.494824
O5    O     O_R   0.816620 0.158530 0.074540 -0.521989
O6    O     O_R   0.004460 0.188870 0.069750 -0.501373
O7    O     O_R   0.025800 0.341780 0.072300 -0.520767
O8    O     O_R   0.807650 0.528950 0.067500 -0.499449
O9    O     O_R   0.633420 0.550490 0.071810 -0.521011
O10   O     O_R   0.664000 0.332180 0.069640 -0.498914
O11   O     O_3   0.826350 0.346390 0.019210 -0.248484
O12   O     O_R   0.658900 0.818120 0.449760 -0.502768
O13   O     O_R   0.694390 0.003530 0.554040 -0.509027
O14   O     O_R   0.657700 0.819660 0.549320 -0.500982
O15   O     O_R   0.501930 0.803280 0.552920 -0.506586
O16   O     O_R   0.318170 0.023580 0.549580 -0.496209
O17   O     O_R   0.303010 0.193990 0.446760 -0.523332
O18   O     O_R   0.523600 0.157450 0.450900 -0.499934
O19   O     O_R   0.695690 0.001860 0.446640 -0.522644
O20   O     O_3   0.408167 0.649862 0.206484 -0.606189
O21   O     O_3   0.324474 0.997164 0.735628 -0.576123
O22   O     O_R   0.503220 0.801620 0.445520 -0.521377
O23   O     O_R   0.319370 0.022040 0.450020 -0.498377
O24   O     O_3   0.499990 0.000010 0.499990 -0.243364
O25   O     O_R   0.818720 0.150820 0.967160 -0.507992
O26   O     O_R   0.006410 0.181720 0.970200 -0.495771
O27   O     O_R   0.027890 0.334070 0.964920 -0.508058
O28   O     O_R   0.809600 0.521790 0.967960 -0.496750

loop_
_geom_bond_atom_site_label_1
_geom_bond_atom_site_label_2
_ccdc_geom_bond_type
C66   C68   A    
Cr6   O3    S    
C101  C102  S    
C61   H11   S    
C82   C99   S    
C4    H46   S    
C35   C36   A    
C74   C93   A    
Cr3   O16   S    
C87   C88   A    
C9    C18   T    
C59   C81   S    
C28   H54   S    
C47   C49   A    
C45   C46   A    
C27   C33   S    
C25   C28   S    
Cr6   O2    S    
C3    H44   S    
C22   C32   S    
C81   H15   S    
C26   C67   S    
C28   C29   S    
C94   O26   A    
Cr4   O25   S    
C29   C32   S    
C26   H32   S    
C42   C98   S    
C38   C39   A    
C90   H26   S    
C43   O12   A    
C40   H7    S    
C35   C53   A    
C58   C60   A    
C56   C65   A    
C83   C93   A    
C43   O22   A    
C97   O7    A    
C66   H19   S    
C7    O15   A    
C60   H16   S    
Cr1   O18   S    
C41   C42   A    
Cr3   O23   S    
C69   C71   A    
C70   C81   S    
C95   O28   A    
C102  H40   S    
C44   C53   A    
C43   C53   S    
C1    O13   A    
C12   C16   S    
C10   C20   T    
C16   C17   S    
C23   C33   T    
C96   O25   A    
C50   C52   A    
C78   H25   S    
C36   C46   A    
C8    H33   S    
C13   C14   S    
C100  O20   S    
C10   C19   S    
C55   C73   S    
C63   H20   S    
C86   H29   S    
C26   C48   S    
C76   C89   A    
C59   C67   S    
C7    C15   S    
Cr2   O19   S    
C21   C22   S    
Cr6   O11   S    
C27   C30   S    
C21   H51   S    
C14   C17   S    
Cr1   O24   S    
C75   C78   A    
C75   C85   A    
C23   C96   S    
Cr2   O13   S    
C99   O5    A    
C45   C47   A    
Cr1   O4    S    
C54   C56   A    
C101  H38   S    
C58   H14   S    
C74   C75   A    
C79   H1    S    
C39   C40   A    
C14   C20   S    
C36   C40   A    
C67   C79   S    
C76   C77   A    
C38   C41   A    
Cr2   O14   S    
C100  H36   S    
C48   C70   S    
C91   C92   T    
C79   C81   S    
C85   C89   A    
C86   C87   A    
C68   C69   A    
C6    C8    S    
C99   O10   A    
C63   C73   A    
C65   C71   A    
C21   C29   S    
C29   C34   S    
C24   C34   T    
C49   O20   S    
Cr1   O1    S    
C77   H24   S    
C64   C66   A    
Cr3   O24   S    
C69   C72   A    
C6    C14   S    
C62   C97   S    
C37   C79   S    
C17   O21   S    
C54   C73   A    
C83   C84   A    
C44   H10   S    
C100  H37   S    
C8    C12   S    
C39   H6    S    
C7    O14   A    
Cr5   O27   S    
C50   C51   A    
C13   H23   S    
C62   C72   A    
C19   O1    A    
C84   C85   A    
C2    C15   T    
C19   O16   A    
C25   H2    S    
C102  H42   S    
C98   O9    A    
C80   C82   A    
C54   H13   S    
C88   C90   A    
C49   C50   A    
C5    H49   S    
C22   C27   S    
C74   H22   S    
C70   H27   S    
C13   C16   S    
C5    H50   S    
C3    C4    S    
C5    H48   S    
C68   H18   S    
C6    C11   S    
Cr2   O24   S    
C44   C45   A    
C48   C59   S    
Cr5   O7    S    
C52   H8    S    
C21   C25   S    
C42   C52   A    
C101  H39   S    
C80   H21   S    
C37   C92   S    
C2    C59   S    
C55   O17   A    
C87   H28   S    
C76   C80   A    
Cr3   O15   S    
C4    C5    S    
Cr2   O12   S    
C11   C12   S    
C26   C37   S    
C57   C61   A    
C38   C51   A    
C25   C27   S    
C97   O6    A    
Cr5   O11   S    
C72   H17   S    
C3    H43   S    
C8    C17   S    
C82   C90   A    
C31   O18   A    
C64   C65   A    
C16   H12   S    
C94   O27   A    
Cr4   O26   S    
C48   H31   S    
C31   C93   S    
C95   O2    A    
Cr4   O5    S    
C30   C32   S    
C11   C13   S    
C57   C58   A    
C1    O4    A    
Cr6   O10   S    
C46   C51   A    
Cr5   O28   S    
C28   C30   S    
C100  C101  S    
Cr4   O11   S    
C35   H5    S    
Cr1   O17   S    
C55   O23   A    
Cr3   O22   S    
C61   C62   A    
C11   H34   S    
C102  H41   S    
C91   C95   S    
C63   C64   A    
C98   O8    A    
C56   C60   A    
C67   H4    S    
C47   H9    S    
C4    H47   S    
C88   C89   A    
C1    C24   S    
C57   C71   A    
C41   H3    S    
Cr6   O9    S    
C12   C18   S    
C77   C78   A    
C84   C86   A    
C96   O3    A    
C30   H53   S    
C6    H35   S    
C37   C70   S    
C3    O21   S    
C9    C94   S    
Cr5   O8    S    
C83   H30   S    
C31   O19   A    
Cr4   O6    S    
C32   H52   S    
C22   H45   S    
