data_mof_unit_55604.cif
_audit_creation_date              2012-12-11T14:43:58-0500
_audit_creation_method            fapswitch 2.2
_symmetry_space_group_name_H-M    P1
_symmetry_Int_Tables_number       1
_space_group_crystal_system       triclinic
_cell_length_a                    18.914733
_cell_length_b                    10.923242
_cell_length_c                    18.860462
_cell_angle_alpha                 90.152588
_cell_angle_beta                  90.029904
_cell_angle_gamma                 89.80746
_cell_volume                      3896.72760384

loop_
_atom_site_label
_atom_site_type_symbol
_atom_type_description
_atom_site_fract_x
_atom_site_fract_y
_atom_site_fract_z
_atom_type_partial_charge
C1    C     C_R   0.730378 0.376870 0.145932 0.551714
C2    C     C_R   0.272188 0.371841 0.856394 0.550353
C3    C     C_R   0.230378 0.876870 0.145932 0.551714
C4    C     C_R   0.772188 0.871841 0.856394 0.550353
C5    C     C_R   0.525079 0.381024 0.923072 -0.091100
C6    C     C_R   0.505646 0.396166 0.069171 -0.087037
C7    C     C_R   0.025079 0.881024 0.923072 -0.091100
C8    C     C_R   0.005646 0.896166 0.069171 -0.087037
C9    C     C_R   0.030313 0.993699 0.957383 -0.132732
C10   C     C_R   0.018509 0.001759 0.029934 -0.140772
C11   C     C_R   0.530313 0.493699 0.957383 -0.132732
C12   C     C_R   0.518509 0.501759 0.029934 -0.140772
C13   C     C_R   0.692065 0.879267 0.037798 -0.137628
C14   C     C_R   0.297695 0.857771 0.960844 -0.141355
C15   C     C_R   0.192065 0.379267 0.037798 -0.137628
C16   C     C_R   0.797696 0.357771 0.960844 -0.141355
C17   C     C_R   0.697356 0.867400 0.964589 -0.147926
C18   C     C_R   0.295297 0.841835 0.033910 -0.135703
C19   C     C_R   0.197356 0.367400 0.964589 -0.147926
C20   C     C_R   0.795297 0.341835 0.033910 -0.135703
C21   C     C_R   0.761315 0.895165 0.931236 0.033059
C22   C     C_R   0.250245 0.915685 0.075344 0.030092
C23   C     C_R   0.261315 0.395165 0.931236 0.033059
C24   C     C_R   0.750245 0.415685 0.075344 0.030092
C25   C     C_R   0.820733 0.927477 0.971879 -0.126953
C26   C     C_R   0.211731 0.010430 0.044106 -0.122442
C27   C     C_R   0.320733 0.427477 0.971879 -0.126953
C28   C     C_R   0.711731 0.510430 0.044106 -0.122442
C29   C     C_R   0.815874 0.936692 0.044256 -0.138582
C30   C     C_R   0.213051 0.024528 0.971695 -0.115696
C31   C     C_R   0.315874 0.436692 0.044256 -0.138582
C32   C     C_R   0.713051 0.524528 0.971695 -0.115696
C33   C     C_R   0.751006 0.918097 0.077423 0.029173
C34   C     C_R   0.254495 0.946419 0.929332 0.034389
C35   C     C_R   0.251006 0.418097 0.077423 0.029173
C36   C     C_R   0.754495 0.446419 0.929332 0.034389
C37   C     C_R   0.481393 0.060995 0.457737 -0.139174
C38   C     C_R   0.475013 0.056325 0.530081 -0.139406
C39   C     C_R   0.981393 0.560995 0.457737 -0.139174
C40   C     C_R   0.975013 0.556325 0.530081 -0.139406
C41   C     C_R   0.487828 0.160717 0.571739 0.029388
C42   C     C_R   0.506148 0.167366 0.425623 0.056369
C43   C     C_R   0.987828 0.660717 0.571739 0.029388
C44   C     C_R   0.006148 0.667366 0.425623 0.056368
C45   C     C_R   0.530947 0.156240 0.146934 0.545950
C46   C     C_R   0.468239 0.154933 0.853614 0.539725
C47   C     C_R   0.030947 0.656240 0.146934 0.545950
C48   C     C_R   0.968239 0.654933 0.853614 0.539725
C49   C     C_R   0.509814 0.269389 0.539851 -0.150677
C50   C     C_R   0.520588 0.271836 0.466877 -0.103858
C51   C     C_R   0.009814 0.769389 0.539851 -0.150677
C52   C     C_R   0.020588 0.771837 0.466877 -0.103858
C53   C     C_R   0.817037 0.918562 0.456116 0.250596
C54   C     C_R   0.215978 0.056045 0.520496 0.257760
C55   C     C_R   0.317037 0.418562 0.456116 0.250596
C56   C     C_R   0.715978 0.556045 0.520496 0.257760
C57   C     C_R   0.822609 0.901398 0.528685 -0.122265
C58   C     C_R   0.212343 0.030008 0.447984 -0.122208
C59   C     C_R   0.322609 0.401397 0.528685 -0.122265
C60   C     C_R   0.712344 0.530008 0.447984 -0.122208
C61   C     C_R   0.761945 0.899226 0.571646 0.008710
C62   C     C_R   0.253327 0.935750 0.418552 -0.008913
C63   C     C_R   0.261945 0.399226 0.571646 0.008710
C64   C     C_R   0.753327 0.435750 0.418552 -0.008913
C65   C     C_R   0.694939 0.906642 0.541728 -0.107573
C66   C     C_R   0.305834 0.879406 0.459246 -0.160623
C67   C     C_R   0.194939 0.406642 0.541728 -0.107573
C68   C     C_R   0.805834 0.379406 0.459246 -0.160623
C69   C     C_R   0.688561 0.917827 0.468863 -0.171349
C70   C     C_R   0.312947 0.909275 0.530505 -0.188462
C71   C     C_R   0.188561 0.417827 0.468863 -0.171349
C72   C     C_R   0.812947 0.409275 0.530505 -0.188462
C73   C     C_R   0.749421 0.926254 0.426030 0.038119
C74   C     C_R   0.267201 0.995171 0.562087 0.039242
C75   C     C_R   0.249420 0.426254 0.426030 0.038119
C76   C     C_R   0.767201 0.495171 0.562087 0.039242
C77   C     C_R   0.741543 0.967964 0.147957 0.550612
C78   C     C_R   0.259865 0.974529 0.854509 0.553250
C79   C     C_R   0.241543 0.467964 0.147957 0.550612
C80   C     C_R   0.759865 0.474529 0.854509 0.553250
C81   C     C_R   0.730800 0.381710 0.351382 0.549594
C82   C     C_R   0.271871 0.375237 0.646154 0.549182
C83   C     C_R   0.230800 0.881710 0.351382 0.549594
C84   C     C_R   0.771871 0.875237 0.646154 0.549182
C85   C     C_R   0.532779 0.157639 0.353865 0.554043
C86   C     C_R   0.466281 0.156295 0.645446 0.538800
C87   C     C_R   0.032779 0.657639 0.353865 0.554043
C88   C     C_R   0.966281 0.656295 0.645446 0.538800
C89   C     C_R   0.741279 0.971231 0.354419 0.576232
C90   C     C_R   0.272153 0.021334 0.638246 0.588143
C91   C     C_R   0.241279 0.471231 0.354419 0.576232
C92   C     C_R   0.772152 0.521334 0.638246 0.588143
C93   C     C_R   0.493788 0.161260 0.926878 0.002380
C94   C     C_R   0.501015 0.167871 0.075419 0.000557
C95   C     C_R   0.993788 0.661260 0.926878 0.002380
C96   C     C_R   0.001015 0.667871 0.075419 0.000557
C97   C     C_R   0.507974 0.273888 0.961256 0.021140
C98   C     C_R   0.504738 0.279428 0.036299 0.031443
C99   C     C_R   0.007974 0.773888 0.961256 0.021140
C100  C     C_R   0.004738 0.779428 0.036299 0.031443
C101  C     C_R   0.488179 0.058047 0.039851 -0.155675
C102  C     C_R   0.485165 0.054590 0.967269 -0.148021
C103  C     C_R   0.988179 0.558047 0.039851 -0.155675
C104  C     C_R   0.985165 0.554590 0.967269 -0.148021
Cr1   Cr    Cr6+3 0.772000 0.169640 0.250110 1.008588
Cr2   Cr    Cr6+3 0.228000 0.169640 0.749890 1.023000
Cr3   Cr    Cr6+3 0.272000 0.669640 0.250110 1.008588
Cr4   Cr    Cr6+3 0.728000 0.669640 0.749890 1.023000
Cr5   Cr    Cr6+3 0.614960 0.323350 0.249260 1.001157
Cr6   Cr    Cr6+3 0.385040 0.323350 0.750740 0.999657
Cr7   Cr    Cr6+3 0.114960 0.823350 0.249260 1.001157
Cr8   Cr    Cr6+3 0.885040 0.823350 0.750740 0.999657
Cr9   Cr    Cr6+3 0.616670 0.010620 0.250840 1.005514
Cr10  Cr    Cr6+3 0.383330 0.010620 0.749160 1.005705
Cr11  Cr    Cr6+3 0.116670 0.510620 0.250840 1.005514
Cr12  Cr    Cr6+3 0.883330 0.510620 0.749160 1.005705
H1    H     H_    0.483505 0.972127 0.068062 0.134414
H2    H     H_    0.473707 0.966799 0.943061 0.142160
H3    H     H_    0.983505 0.472127 0.068062 0.134414
H4    H     H_    0.973706 0.466799 0.943061 0.142160
H5    H     H_    0.874735 0.889471 0.551396 0.140957
H6    H     H_    0.173837 0.077605 0.415600 0.122493
H7    H     H_    0.374735 0.389471 0.551396 0.140957
H8    H     H_    0.673837 0.577605 0.415600 0.122493
H9    H     H_    0.648096 0.904331 0.574567 0.135116
H10   H     H_    0.338602 0.807628 0.437105 0.124939
H11   H     H_    0.148096 0.404331 0.574567 0.135116
H12   H     H_    0.838602 0.307628 0.437105 0.124939
H13   H     H_    0.635999 0.927361 0.446653 0.141874
H14   H     H_    0.351994 0.860450 0.561545 0.130555
H15   H     H_    0.135999 0.427361 0.446653 0.141874
H16   H     H_    0.851994 0.360451 0.561545 0.130555
H17   H     H_    0.535717 0.378590 0.866777 0.133048
H18   H     H_    0.493666 0.408411 0.124712 0.131564
H19   H     H_    0.035717 0.878590 0.866777 0.133048
H20   H     H_    0.993666 0.908411 0.124712 0.131564
H21   H     H_    0.042382 0.075329 0.927368 0.107057
H22   H     H_    0.019852 0.090080 0.056065 0.100318
H23   H     H_    0.542382 0.575329 0.927368 0.107058
H24   H     H_    0.519852 0.590081 0.056065 0.100318
H25   H     H_    0.641153 0.864819 0.062627 0.129747
H26   H     H_    0.331951 0.799966 0.929055 0.121352
H27   H     H_    0.141153 0.364819 0.062627 0.129747
H28   H     H_    0.831951 0.299966 0.929055 0.121352
H29   H     H_    0.651738 0.838407 0.934205 0.114252
H30   H     H_    0.325386 0.767575 0.057218 0.133762
H31   H     H_    0.151738 0.338407 0.934205 0.114252
H32   H     H_    0.825386 0.267575 0.057218 0.133762
H33   H     H_    0.871770 0.944780 0.948041 0.154525
H34   H     H_    0.177319 0.069248 0.075156 0.128839
H35   H     H_    0.371770 0.444780 0.948041 0.154525
H36   H     H_    0.677319 0.569248 0.075156 0.128839
H37   H     H_    0.861887 0.966252 0.073755 0.130540
H38   H     H_    0.181778 0.097874 0.949062 0.134618
H39   H     H_    0.361887 0.466252 0.073755 0.130540
H40   H     H_    0.681778 0.597874 0.949062 0.134618
H41   H     H_    0.470869 0.978590 0.427415 0.126649
H42   H     H_    0.458244 0.970610 0.553020 0.129144
H43   H     H_    0.970869 0.478590 0.427415 0.126649
H44   H     H_    0.958244 0.470610 0.553020 0.129144
H45   H     H_    0.519161 0.350885 0.571246 0.109348
H46   H     H_    0.542868 0.353176 0.443333 0.122514
H47   H     H_    0.019161 0.850885 0.571246 0.109348
H48   H     H_    0.042868 0.853176 0.443333 0.122514
O1    O     O_R   0.787540 0.042690 0.170470 -0.529559
O2    O     O_R   0.212460 0.042690 0.829530 -0.532680
O3    O     O_R   0.287540 0.542690 0.170470 -0.529559
O4    O     O_R   0.712460 0.542690 0.829530 -0.532680
O5    O     O_R   0.556540 0.252920 0.323970 -0.508281
O6    O     O_R   0.443460 0.252920 0.676030 -0.510172
O7    O     O_R   0.056540 0.752920 0.323970 -0.508281
O8    O     O_R   0.943460 0.752920 0.676030 -0.510172
O9    O     O_R   0.545870 0.051100 0.330840 -0.533697
O10   O     O_R   0.454130 0.051100 0.669160 -0.536955
O11   O     O_R   0.045870 0.551100 0.330840 -0.533697
O12   O     O_R   0.954130 0.551100 0.669160 -0.536955
O13   O     O_R   0.681340 0.959300 0.325510 -0.522344
O14   O     O_R   0.318660 0.959300 0.674490 -0.519800
O15   O     O_R   0.181340 0.459300 0.325510 -0.522344
O16   O     O_R   0.818660 0.459300 0.674490 -0.519800
O17   O     O_3   0.667880 0.167870 0.250070 -0.241526
O18   O     O_3   0.332120 0.167870 0.749930 -0.268559
O19   O     O_3   0.167880 0.667870 0.250070 -0.241526
O20   O     O_3   0.832120 0.667870 0.749930 -0.268559
O21   O     O_R   0.765660 0.292160 0.175050 -0.508794
O22   O     O_R   0.234340 0.292160 0.824950 -0.510688
O23   O     O_R   0.265660 0.792160 0.175050 -0.508794
O24   O     O_R   0.734340 0.792160 0.824950 -0.510688
O25   O     O_R   0.670190 0.408980 0.168550 -0.520700
O26   O     O_R   0.329810 0.408980 0.831450 -0.524053
O27   O     O_R   0.170190 0.908980 0.168550 -0.520700
O28   O     O_R   0.829810 0.908980 0.831450 -0.524053
O29   O     O_R   0.556580 0.251450 0.175160 -0.507394
O30   O     O_R   0.443420 0.251450 0.824840 -0.508072
O31   O     O_R   0.056580 0.751450 0.175160 -0.507394
O32   O     O_R   0.943420 0.751450 0.824840 -0.508072
O33   O     O_R   0.545920 0.049510 0.170320 -0.522241
O34   O     O_R   0.454080 0.049510 0.829680 -0.522128
O35   O     O_R   0.045920 0.549510 0.170320 -0.522241
O36   O     O_R   0.954080 0.549510 0.829680 -0.522128
O37   O     O_R   0.681390 0.957840 0.176710 -0.504948
O38   O     O_R   0.318610 0.957840 0.823290 -0.497505
O39   O     O_R   0.181390 0.457840 0.176710 -0.504948
O40   O     O_R   0.818610 0.457840 0.823290 -0.497505
O41   O     O_R   0.787500 0.044280 0.330990 -0.486077
O42   O     O_R   0.212500 0.044280 0.669010 -0.471256
O43   O     O_R   0.287500 0.544280 0.330990 -0.486078
O44   O     O_R   0.712500 0.544280 0.669010 -0.471256
O45   O     O_R   0.765610 0.293630 0.323860 -0.506619
O46   O     O_R   0.234390 0.293630 0.676140 -0.484046
O47   O     O_R   0.265610 0.793630 0.323860 -0.506619
O48   O     O_R   0.734390 0.793630 0.676140 -0.484046
O49   O     O_R   0.670140 0.410570 0.329080 -0.536225
O50   O     O_R   0.329860 0.410570 0.670920 -0.532800
O51   O     O_R   0.170140 0.910570 0.329080 -0.536225
O52   O     O_R   0.829860 0.910570 0.670920 -0.532799
O53   O     O_3   0.876911 0.925477 0.413794 -0.541023
C105  C     C_3   0.917362 0.029229 0.433117 0.003047
H49   H     H_    0.951928 0.007121 0.478928 0.106450
H50   H     H_    0.883633 0.109365 0.447454 0.122323
C106  C     C_3   0.963671 0.066813 0.370933 -0.357062
H51   H     H_    0.930147 0.094089 0.325254 0.167902
H52   H     H_    0.997139 0.145786 0.386432 0.065617
H53   H     H_    0.998364 0.989759 0.354460 0.165705
O54   O     O_3   0.171201 0.141853 0.551782 -0.536580
C107  C     C_3   0.099697 0.122205 0.532553 -0.009765
H54   H     H_    0.087823 0.023974 0.521858 0.109557
H55   H     H_    0.086824 0.177147 0.484732 0.121310
C108  C     C_3   0.051669 0.163686 0.592769 -0.355457
H56   H     H_    0.059367 0.262445 0.604018 0.146397
H57   H     H_    0.995540 0.148804 0.577870 0.072488
H58   H     H_    0.063514 0.110254 0.641383 0.168921
O55   O     O_3   0.376911 0.425477 0.413794 -0.541023
C109  C     C_3   0.417362 0.529229 0.433117 0.003047
H59   H     H_    0.451928 0.507121 0.478928 0.106450
H60   H     H_    0.383633 0.609364 0.447454 0.122323
C110  C     C_3   0.463671 0.566813 0.370933 -0.357062
H61   H     H_    0.430147 0.594089 0.325254 0.167902
H62   H     H_    0.497139 0.645785 0.386432 0.065617
H63   H     H_    0.498364 0.489759 0.354460 0.165706
O56   O     O_3   0.671201 0.641853 0.551782 -0.536581
C111  C     C_3   0.599697 0.622206 0.532552 -0.009765
H64   H     H_    0.587823 0.523974 0.521857 0.109557
H65   H     H_    0.586824 0.677148 0.484732 0.121310
C112  C     C_3   0.551669 0.663686 0.592769 -0.355457
H66   H     H_    0.559368 0.762444 0.604019 0.146397
H67   H     H_    0.495539 0.648806 0.577870 0.072487
H68   H     H_    0.563513 0.610252 0.641382 0.168920

loop_
_geom_bond_atom_site_label_1
_geom_bond_atom_site_label_2
_ccdc_geom_bond_type
C12   H24   S    
C58   C62   A    
C81   O45   A    
C56   O56   S    
C14   H26   S    
Cr7   O27   S    
C101  C102  A    
C56   C76   A    
C48   C95   S    
C55   C59   A    
C83   O51   A    
C8    H20   S    
C14   C18   A    
Cr9   O13   S    
Cr4   O44   S    
C33   C77   S    
C90   O14   A    
C97   C98   A    
Cr8   O20   S    
C80   O40   A    
C5    H17   S    
C41   C86   S    
C108  H56   S    
C57   C61   A    
C7    C99   A    
C96   C100  A    
C48   O36   A    
C88   O8    A    
C43   C88   S    
Cr2   O2    S    
C47   O31   A    
C16   H28   S    
Cr7   O51   S    
C5    C11   A    
C106  H53   S    
C67   H11   S    
C6    C12   A    
C84   O48   A    
Cr12  O36   S    
C95   C99   A    
C46   O34   A    
Cr3   O47   S    
C94   C98   A    
C37   H41   S    
Cr2   O46   S    
Cr3   O23   S    
C70   H14   S    
Cr1   O45   S    
C25   C29   A    
C25   H33   S    
O56   C111  S    
Cr1   O21   S    
C37   C42   A    
C15   C35   A    
C4    O28   A    
C53   C73   A    
Cr8   O32   S    
Cr11  O11   S    
C92   O16   A    
Cr12  O40   S    
C15   C19   A    
Cr9   O33   S    
C9    H21   S    
C40   C43   A    
C89   O41   A    
C20   C24   A    
C94   C101  A    
Cr5   O25   S    
Cr7   O31   S    
Cr10  O14   S    
C91   O15   A    
Cr7   O19   S    
C70   C74   A    
C111  H65   S    
C47   C96   S    
Cr10  O38   S    
C51   H47   S    
Cr9   O37   S    
C44   C87   S    
O55   C109  S    
C68   H12   S    
Cr3   O43   S    
C102  H2    S    
C72   C76   A    
C81   O49   A    
C55   C75   A    
C44   C52   A    
Cr4   O24   S    
Cr4   O4    S    
C80   O4    A    
C29   C33   A    
C14   C34   A    
C54   C74   A    
C112  H66   S    
C48   O32   A    
C59   H7    S    
Cr5   O29   S    
C79   O3    A    
C47   O35   A    
C109  H60   S    
C106  H52   S    
C55   O55   S    
C45   C94   S    
C28   C32   A    
C41   C49   A    
Cr4   O48   S    
C83   O47   A    
Cr5   O5    S    
C46   O30   A    
Cr10  O10   S    
Cr3   O3    S    
C23   C27   A    
C53   O53   S    
C18   C22   A    
C63   C67   A    
C75   C91   S    
C78   O2    A    
C111  C112  S    
C58   H6    S    
C30   C34   A    
C63   C82   S    
C27   C31   A    
C51   C52   A    
C6    C98   A    
C2    O26   A    
O54   C107  S    
C26   H34   S    
C62   C66   A    
Cr2   O22   S    
C38   C41   A    
C82   O50   A    
C39   C40   A    
Cr12  O12   S    
C82   O46   A    
C78   O38   A    
O53   C105  S    
Cr10  O18   S    
Cr11  O35   S    
Cr6   O26   S    
C85   O5    A    
C56   C60   A    
Cr11  O39   S    
C68   C72   A    
C86   O10   A    
C62   C83   S    
C65   H9    S    
C19   C23   A    
C17   C21   A    
C2    O22   A    
C54   O54   S    
Cr6   O30   S    
C37   C38   A    
C92   O44   A    
C3    O27   A    
Cr8   O28   S    
C106  H51   S    
C93   C97   A    
C85   O9    A    
C99   C100  A    
C32   H40   S    
C16   C20   A    
C87   O7    A    
C20   H32   S    
C111  H64   S    
Cr9   O9    S    
C107  H54   S    
C42   C85   S    
C69   C73   A    
C57   H5    S    
C38   H42   S    
C39   C44   A    
C22   C26   A    
C76   C92   S    
C15   H27   S    
Cr6   O6    S    
C69   H13   S    
C42   C50   A    
C26   C30   A    
C13   H25   S    
C89   O13   A    
C110  H62   S    
C36   C80   S    
C17   H29   S    
C108  H57   S    
C31   C35   A    
C31   H39   S    
C96   C103  A    
Cr9   O17   S    
C60   H8    S    
C109  H59   S    
Cr11  O15   S    
C64   C68   A    
C103  C104  A    
C95   C104  A    
C105  C106  S    
C29   H37   S    
C9    C10   A    
Cr5   O17   S    
C59   C63   A    
C52   H48   S    
Cr12  O16   S    
C21   C25   A    
C110  H63   S    
C53   C57   A    
C39   H43   S    
C86   O6    A    
C49   H45   S    
C40   H44   S    
C103  H3    S    
C24   C28   A    
C27   H35   S    
C18   H30   S    
C61   C84   S    
C77   O37   A    
C93   C102  A    
Cr2   O42   S    
Cr11  O19   S    
C11   C12   A    
C32   C36   A    
Cr1   O41   S    
C13   C33   A    
Cr4   O20   S    
C1    O21   A    
C108  H58   S    
C107  C108  S    
C87   O11   A    
C66   C70   A    
C77   O1    A    
C107  H55   S    
C88   O12   A    
C13   C17   A    
C105  H50   S    
C60   C64   A    
C79   O39   A    
C101  H1    S    
C50   H46   S    
C4    O24   A    
C28   H36   S    
C112  H67   S    
C8    C100  A    
C66   H10   S    
C73   C89   S    
C6    H18   S    
C16   C36   A    
C72   H16   S    
C71   C75   A    
C4    C21   S    
C43   C51   A    
C105  H49   S    
Cr8   O8    S    
C46   C93   S    
C65   C69   A    
C74   C90   S    
Cr12  O20   S    
C35   C79   S    
C91   O43   A    
Cr1   O1    S    
C5    C97   A    
C67   C71   A    
C45   O29   A    
Cr8   O52   S    
C61   C65   A    
Cr6   O50   S    
C19   H31   S    
C64   C81   S    
C7    H19   S    
Cr5   O49   S    
C71   H15   S    
C7    C9    A    
C30   H38   S    
C54   C58   A    
C3    O23   A    
Cr6   O18   S    
C1    C24   S    
C8    C10   A    
C49   C50   A    
Cr10  O34   S    
C112  H68   S    
Cr3   O19   S    
C2    C23   S    
C90   O42   A    
Cr2   O18   S    
C3    C22   S    
C10   H22   S    
Cr1   O17   S    
C110  H61   S    
C45   O33   A    
C109  C110  S    
C34   C78   S    
C84   O52   A    
C11   H23   S    
C104  H4    S    
Cr7   O7    S    
C1    O25   A    
