data_mof_unit_27224.cif
_audit_creation_date              2012-12-11T15:48:54-0500
_audit_creation_method            fapswitch 2.2
_symmetry_space_group_name_H-M    P1
_symmetry_Int_Tables_number       1
_space_group_crystal_system       triclinic
_cell_length_a                    11.077735
_cell_length_b                    11.015018
_cell_length_c                    18.765643
_cell_angle_alpha                 90.508474
_cell_angle_beta                  89.982198
_cell_angle_gamma                 60.566247
_cell_volume                      1994.14518396

loop_
_atom_site_label
_atom_site_type_symbol
_atom_type_description
_atom_site_fract_x
_atom_site_fract_y
_atom_site_fract_z
_atom_type_partial_charge
C1    C     C_R   0.240614 0.647384 0.610410 0.552812
C2    C     C_R   0.566415 0.151476 0.711911 -0.188828
C3    C     C_R   0.566110 0.149626 0.785314 -0.168427
C4    C     C_R   0.653721 0.620014 0.601472 0.593962
C5    C     C_3   0.904056 0.127886 0.791311 -0.272998
C6    C     C_3   0.899706 0.127791 0.710938 -0.273392
C7    C     C_R   0.658565 0.180692 0.675495 0.030619
C8    C     C_R   0.177368 0.675936 0.834519 -0.003500
C9    C     C_R   0.152324 0.586921 0.792596 0.011168
C10   C     C_R   0.160902 0.587202 0.719648 0.003706
C11   C     C_R   0.201355 0.785663 0.725533 -0.032310
C12   C     C_3   0.717585 0.526689 0.798843 -0.259786
C13   C     C_R   0.200939 0.776056 0.800295 -0.152762
C14   C     C_3   0.217155 0.432413 0.794924 -0.291413
C15   C     C_3   0.223946 0.433800 0.714172 -0.282263
C16   C     C_R   0.626203 0.230256 0.602896 0.549634
C17   C     C_R   0.192562 0.678155 0.684357 0.034800
C18   C     C_R   0.641113 0.672805 0.164377 0.019113
C19   C     C_R   0.651021 0.548563 0.186215 0.002107
C20   C     C_R   0.632810 0.526185 0.256551 -0.016990
C21   C     C_R   0.588517 0.755180 0.287863 -0.163538
C22   C     C_R   0.594414 0.781048 0.215102 -0.167863
C23   C     C_3   0.707568 0.669401 0.812880 0.029934
C24   C     C_3   0.746347 0.399368 0.169849 -0.268867
C25   C     C_3   0.720451 0.373492 0.246442 -0.279635
C26   C     C_R   0.620176 0.620973 0.310175 0.011964
C27   C     C_R   0.693052 0.062776 0.187238 -0.000962
C28   C     C_R   0.218237 0.650625 0.402999 0.562649
C29   C     C_R   0.569855 0.099823 0.222302 -0.049988
C30   C     C_R   0.553488 0.135850 0.292730 0.030550
C31   C     C_R   0.792165 0.077915 0.301694 -0.182188
C32   C     C_R   0.808357 0.041965 0.228577 -0.161490
C33   C     C_3   0.422905 0.197677 0.203264 -0.246367
C34   C     C_3   0.676878 0.642102 0.677054 0.062900
C35   C     C_3   0.404643 0.242403 0.281173 0.106986
C36   C     C_R   0.658963 0.138882 0.332264 0.016682
C37   C     C_R   0.116371 0.687862 0.188820 0.002190
C38   C     C_R   0.134951 0.786224 0.225343 0.005160
C39   C     C_R   0.140496 0.788906 0.296930 0.000913
C40   C     C_R   0.616797 0.590134 0.385864 0.569449
C41   C     C_R   0.096796 0.593103 0.303487 0.022339
C42   C     C_R   0.082029 0.600575 0.228233 -0.112928
C43   C     C_3   0.226389 0.846756 0.212245 -0.272306
C44   C     C_3   0.236459 0.849550 0.292409 -0.253829
C45   C     C_3   0.800244 0.669348 0.687717 0.100404
C46   C     C_R   0.141925 0.681358 0.336707 0.039150
C47   C     C_R   0.699528 0.102219 0.896601 0.548710
C48   C     C_R   0.726250 0.687672 0.888445 0.548989
C49   C     C_R   0.118709 0.706759 0.906173 0.543202
C50   C     C_R   0.701961 0.041705 0.110437 0.563762
C51   C     C_R   0.694037 0.689619 0.096235 0.539127
C52   C     C_R   0.618957 0.223734 0.397036 0.573977
C53   C     C_R   0.086690 0.712620 0.114193 0.537774
C54   C     C_3   0.566627 0.784080 0.788316 -0.252749
C55   C     C_3   0.544867 0.759283 0.710816 -0.252536
C56   C     C_3   0.709447 0.507160 0.718345 -0.256726
C57   C     C_3   0.821672 0.679213 0.768893 -0.198989
C58   C     C_3   0.213567 0.907491 0.691145 -0.232597
C59   C     C_3   0.227998 0.012354 0.740164 -0.338089
C60   C     C_3   0.240508 0.122533 0.697694 -0.474335
C61   C     C_3   0.071902 0.490340 0.346992 -0.222134
C62   C     C_3   0.037515 0.391512 0.304290 -0.315217
C63   C     C_3   0.049819 0.272150 0.350651 -0.455226
C64   C     C_R   0.668792 0.161787 0.825236 0.022879
C65   C     C_R   0.752915 0.199807 0.789284 -0.009693
C66   C     C_R   0.747910 0.208606 0.715190 0.006943
Cr1   Cr    Cr6+3 0.392960 0.397920 0.502240 1.010420
Cr2   Cr    Cr6+3 0.398340 0.708480 0.501250 0.994180
Cr3   Cr    Cr6+3 0.708670 0.393570 0.496460 0.990325
Cr4   Cr    Cr6+3 0.937650 0.938540 0.007610 0.997711
Cr5   Cr    Cr6+3 0.625330 0.937370 0.994520 0.994792
Cr6   Cr    Cr6+3 0.937940 0.625230 0.001190 1.000368
H1    H     H_    0.559741 0.887847 0.793810 0.136569
H2    H     H_    0.928975 0.023507 0.688003 0.158501
H3    H     H_    0.485499 0.781919 0.822548 0.120002
H4    H     H_    0.212194 0.851147 0.832820 0.136136
H5    H     H_    0.144907 0.397650 0.815171 0.137894
H6    H     H_    0.320094 0.383741 0.821054 0.145875
H7    H     H_    0.330950 0.383982 0.692904 0.179495
H8    H     H_    0.152334 0.405445 0.686911 0.126303
H9    H     H_    0.563629 0.838254 0.326272 0.138975
H10   H     H_    0.574050 0.881658 0.198696 0.140686
H11   H     H_    0.854726 0.375979 0.160157 0.150150
H12   H     H_    0.810494 0.420229 0.699959 0.132511
H13   H     H_    0.702976 0.356536 0.129776 0.156805
H14   H     H_    0.654509 0.324971 0.248251 0.154491
H15   H     H_    0.469674 0.720827 0.711199 0.139868
H16   H     H_    0.812610 0.326707 0.280746 0.153315
H17   H     H_    0.877965 0.074568 0.330942 0.126390
H18   H     H_    0.906179 0.012381 0.203028 0.155783
H19   H     H_    0.365905 0.141503 0.188854 0.107013
H20   H     H_    0.411327 0.279003 0.164863 0.156130
H21   H     H_    0.334065 0.217437 0.311403 0.143825
H22   H     H_    0.046007 0.538848 0.199845 0.133727
H23   H     H_    0.922407 0.589579 0.783600 0.120499
H24   H     H_    0.170034 0.952466 0.188700 0.141420
H25   H     H_    0.507100 0.857024 0.680274 0.132441
H26   H     H_    0.325416 0.771945 0.185618 0.150195
H27   H     H_    0.341949 0.777138 0.311419 0.178263
H28   H     H_    0.189463 0.956470 0.315310 0.127305
H29   H     H_    0.824720 0.776332 0.782460 0.136472
H30   H     H_    0.817080 0.441251 0.819234 0.136922
H31   H     H_    0.631880 0.520747 0.826686 0.126916
H32   H     H_    0.627284 0.479186 0.707649 0.132314
H33   H     H_    0.317798 0.075296 0.654007 0.149328
H34   H     H_    0.895540 0.579177 0.665376 0.158584
H35   H     H_    0.139636 0.197827 0.674290 0.144130
H36   H     H_    0.275153 0.177669 0.734631 0.146254
H37   H     H_    0.144797 0.063401 0.778720 0.167047
H38   H     H_    0.319040 0.960465 0.773640 0.150826
H39   H     H_    0.303818 0.869769 0.656160 0.188566
H40   H     H_    0.129684 0.962827 0.652629 0.159446
H41   H     H_    0.426061 0.404557 0.255452 0.318217
H42   H     H_    0.155223 0.212326 0.373517 0.126503
H43   H     H_    0.974221 0.312182 0.395163 0.198118
H44   H     H_    0.031443 0.198813 0.317784 0.121480
H45   H     H_    0.491594 0.133598 0.683666 0.130694
H46   H     H_    0.931140 0.451785 0.282739 0.178484
H47   H     H_    0.111063 0.343090 0.259116 0.157156
H48   H     H_    0.165829 0.421563 0.377250 0.208420
H49   H     H_    0.987101 0.550329 0.385977 0.150579
H50   H     H_    0.708337 0.871731 0.676362 0.330945
H51   H     H_    0.491300 0.126384 0.809662 0.139657
H52   H     H_    0.950756 0.021605 0.813892 0.175873
H53   H     H_    0.938323 0.198236 0.815384 0.118769
H54   H     H_    0.943860 0.186967 0.684956 0.134163
O1    O     O_R   0.507380 0.255700 0.581440 -0.539337
O2    O     O_R   0.837170 0.593410 0.915250 -0.529391
O3    O     O_R   0.065200 0.635530 0.931570 -0.495338
O4    O     O_R   0.280320 0.527350 0.578930 -0.507297
O5    O     O_R   0.068260 0.828890 0.091840 -0.529074
O6    O     O_R   0.798870 0.057410 0.079340 -0.514055
O7    O     O_R   0.584930 0.080350 0.076780 -0.520094
O8    O     O_R   0.626960 0.809650 0.067060 -0.520599
O9    O     O_R   0.816040 0.596610 0.076510 -0.522523
O10   O     O_R   0.045610 0.638500 0.081060 -0.512596
O11   O     O_3   0.833640 0.833710 0.001100 -0.274849
O12   O     O_R   0.524480 0.695810 0.424040 -0.509257
O13   O     O_R   0.260510 0.739590 0.584590 -0.554061
O14   O     O_R   0.532300 0.695080 0.573820 -0.512905
O15   O     O_R   0.744840 0.503500 0.576370 -0.532952
O16   O     O_R   0.699120 0.276560 0.571960 -0.506456
O17   O     O_R   0.498940 0.256500 0.419860 -0.485401
O18   O     O_R   0.272500 0.528080 0.429150 -0.484569
O19   O     O_R   0.252060 0.740380 0.423010 -0.535024
O20   O     O_3   0.378710 0.379674 0.292625 -0.688310
O21   O     O_3   0.781284 0.788501 0.651203 -0.711247
O22   O     O_R   0.736390 0.504290 0.414790 -0.525196
O23   O     O_R   0.691300 0.277290 0.422170 -0.525558
O24   O     O_3   0.499990 0.499990 0.499980 -0.271903
O25   O     O_R   0.089400 0.825690 0.930570 -0.534750
O26   O     O_R   0.818460 0.054440 0.929850 -0.500967
O27   O     O_R   0.606060 0.077150 0.915510 -0.533277
O28   O     O_R   0.646550 0.806680 0.917570 -0.510878

loop_
_geom_bond_atom_site_label_1
_geom_bond_atom_site_label_2
_ccdc_geom_bond_type
C21   C26   A    
C34   C56   S    
C8    C13   A    
C27   C29   A    
C11   C13   A    
C41   C42   A    
Cr2   O12   S    
C2    C7    A    
C43   H26   S    
C41   C61   S    
C43   C44   S    
Cr1   O17   S    
Cr5   O8    S    
Cr6   O3    S    
Cr5   O11   S    
C3    C64   A    
C12   C23   S    
C45   C57   S    
C28   O19   A    
C37   C38   A    
C30   C35   S    
Cr6   O2    S    
C58   H40   S    
Cr3   O24   S    
C22   H10   S    
C24   H11   S    
C10   C15   S    
C33   H19   S    
C38   C39   A    
C51   O8    A    
Cr6   O10   S    
C48   O2    A    
C20   C25   S    
C10   C17   A    
Cr3   O15   S    
Cr5   O27   S    
C29   C33   S    
C59   H38   S    
C61   H49   S    
C18   C19   A    
C14   H5    S    
C37   C42   A    
C25   H14   S    
C59   H37   S    
C63   H42   S    
C51   O9    A    
C15   H7    S    
C15   H8    S    
C8    C9    A    
C31   H17   S    
C40   O12   A    
C41   C46   A    
C6    H2    S    
C28   O18   A    
C11   C58   S    
C24   H13   S    
C31   C36   A    
C1    O13   A    
C27   C50   S    
C63   H43   S    
C59   C60   S    
C45   O21   S    
C21   C22   A    
Cr1   O24   S    
C53   O10   A    
Cr1   O18   S    
C32   H18   S    
C2    H45   S    
C3    H51   S    
C18   C51   S    
C56   H12   S    
C35   H21   S    
C4    C34   S    
C52   O17   A    
C49   O25   A    
C58   H39   S    
Cr4   O26   S    
C24   C25   S    
C6    H54   S    
C12   H31   S    
C5    C65   S    
C1    O4    A    
C33   H20   S    
C47   C64   S    
C40   O22   A    
C52   O23   A    
Cr6   O9    S    
C47   O27   A    
C58   C59   S    
Cr5   O28   S    
C49   O3    A    
C25   H16   S    
C35   O20   S    
H41   O20   S    
C16   O16   A    
C9    C14   S    
C12   H30   S    
C62   C63   S    
Cr1   O1    S    
C4    O14   A    
C54   H1    S    
C31   C32   A    
C5    H52   S    
C13   H4    S    
C28   C46   S    
C55   H25   S    
Cr4   O6    S    
C43   H24   S    
C34   C55   S    
C34   C45   S    
H50   O21   S    
C56   H32   S    
C62   H47   S    
C12   C56   S    
C60   H35   S    
C50   O6    A    
C39   C46   A    
C53   O5    A    
C63   H44   S    
Cr6   O11   S    
C21   H9    S    
Cr2   O14   S    
Cr1   O4    S    
C4    O15   A    
C45   H34   S    
C23   C54   S    
C9    C10   A    
C23   C57   S    
C48   O28   A    
C54   C55   S    
C11   C17   A    
C23   C48   S    
C27   C32   A    
C42   H22   S    
C44   H27   S    
C7    C16   S    
Cr4   O25   S    
C50   O7    A    
C60   H36   S    
Cr5   O7    S    
C39   C44   S    
C57   H29   S    
C36   C52   S    
C1    C17   S    
C30   C36   A    
Cr3   O23   S    
C64   C65   A    
C19   C20   A    
C18   C22   A    
C2    C3    A    
Cr3   O16   S    
C37   C53   S    
C38   C43   S    
C7    C66   A    
C44   H28   S    
C26   C40   S    
C5    C6    S    
C20   C26   A    
Cr4   O5    S    
C33   C35   S    
C19   C24   S    
C14   H6    S    
C55   H15   S    
C61   C62   S    
C16   O1    A    
C62   H46   S    
Cr2   O24   S    
Cr2   O19   S    
C29   C30   A    
C54   H3    S    
C6    C66   S    
C47   O26   A    
Cr4   O11   S    
C65   C66   A    
C57   H23   S    
C5    H53   S    
Cr3   O22   S    
C14   C15   S    
Cr2   O13   S    
C8    C49   S    
C60   H33   S    
C61   H48   S    
