data_mof_unit_6723.cif
_audit_creation_date              2012-12-10T17:56:45-0500
_audit_creation_method            fapswitch 2.2
_symmetry_space_group_name_H-M    P1
_symmetry_Int_Tables_number       1
_space_group_crystal_system       triclinic
_cell_length_a                    10.841862
_cell_length_b                    9.507975
_cell_length_c                    10.938658
_cell_angle_alpha                 89.970666
_cell_angle_beta                  90.635762
_cell_angle_gamma                 89.416499
_cell_volume                      1127.47418603

loop_
_atom_site_label
_atom_site_type_symbol
_atom_type_description
_atom_site_fract_x
_atom_site_fract_y
_atom_site_fract_z
_atom_type_partial_charge
C1    C     C_R   0.261954 0.500748 0.501098 0.924479
C2    C     C_R   0.737558 0.499194 0.500266 0.914232
C3    C     C_R   0.933059 0.601437 0.434132 0.319707
C4    C     C_R   0.060826 0.611611 0.445544 0.326850
C5    C     C_R   0.417141 0.075452 0.429975 0.025283
C6    C     C_R   0.583585 0.073532 0.569230 0.027377
C7    C     C_R   0.417216 0.926645 0.430152 -0.046182
C8    C     C_R   0.584156 0.924692 0.568475 0.000563
C9    C     C_R   0.493312 0.500266 0.261966 0.835307
C10   C     C_R   0.508404 0.499962 0.737837 0.859228
C11   C     C_R   0.444242 0.758009 0.110425 -0.086789
C12   C     C_R   0.564239 0.755211 0.888030 -0.103970
C13   C     C_R   0.471631 0.884328 0.052832 -0.152884
C14   C     C_R   0.538990 0.882791 0.945399 -0.155295
C15   C     C_R   0.523409 0.627311 0.938727 0.011451
C16   C     C_R   0.483674 0.628234 0.060505 0.011318
C17   C     C_R   0.487825 0.500322 0.127315 -0.208109
C18   C     C_R   0.517506 0.499594 0.872310 -0.201904
C19   C     C_R   0.503856 0.372054 0.064146 0.287625
C20   C     C_R   0.503559 0.371737 0.936020 0.306144
C21   C     C_R   0.065863 0.392319 0.563717 0.253502
C22   C     C_R   0.936111 0.395186 0.567850 0.253504
C23   C     C_R   0.871046 0.497416 0.499693 -0.278741
C24   C     C_R   0.127633 0.502278 0.504106 -0.282821
Cu1   Cu    Cu3+1 0.500000 0.640660 0.500000 0.966061
Cu2   Cu    Cu3+1 0.500000 0.359340 0.500000 1.031629
H1    H     H_    0.389030 0.763132 0.191523 0.153842
H2    H     H_    0.618473 0.757575 0.806138 0.136450
H3    H     H_    0.442955 0.982717 0.093508 0.159174
H4    H     H_    0.568781 0.979893 0.904298 0.158912
H5    H     H_    0.350811 0.132296 0.373704 0.132064
H6    H     H_    0.650396 0.128886 0.624816 0.166650
H7    H     H_    0.351256 0.871321 0.374225 0.140275
H8    H     H_    0.652699 0.868098 0.621934 0.108740
N1    N     N_R   0.500000 0.852070 0.500000 -0.160227
N2    N     N_R   0.500000 0.147940 0.500000 -0.164631
O1    O     O_R   0.319640 0.618740 0.499990 -0.575396
O2    O     O_R   0.680360 0.618740 0.500010 -0.568215
O3    O     O_R   0.319620 0.381170 0.499990 -0.551528
O4    O     O_R   0.680380 0.381170 0.500010 -0.555110
O5    O     O_R   0.500000 0.618810 0.319650 -0.603146
O6    O     O_R   0.500000 0.618810 0.680350 -0.619347
O7    O     O_R   0.499970 0.381240 0.319640 -0.528192
O8    O     O_R   0.500030 0.381240 0.680360 -0.505927
O9    O     O_3   0.519150 0.247573 0.127946 -0.731210
H9    H     H_    0.571872 0.183344 0.079282 0.324455
O10   O     O_3   0.490309 0.247035 0.872727 -0.722645
H10   H     H_    0.438720 0.183072 0.921693 0.327593
O11   O     O_3   0.133972 0.286060 0.619391 -0.705792
H11   H     H_    0.085415 0.198354 0.616960 0.324728
O12   O     O_3   0.870922 0.303232 0.640110 -0.735374
H12   H     H_    0.923626 0.273030 0.710028 0.331604
O13   O     O_3   0.868563 0.699083 0.363738 -0.545392
C25   C     C_3   0.852903 0.643658 0.245096 -0.220347
H13   H     H_    0.800250 0.721246 0.188905 0.187154
H14   H     H_    0.798769 0.544794 0.246202 0.126494
H15   H     H_    0.943413 0.625451 0.200397 0.166634
O14   O     O_3   0.120708 0.720793 0.388043 -0.561824
C26   C     C_3   0.105357 0.844211 0.458555 -0.234485
H16   H     H_    0.142053 0.934590 0.406790 0.158041
H17   H     H_    0.157703 0.835719 0.546331 0.159589
H18   H     H_    0.006902 0.869385 0.477048 0.188823

loop_
_geom_bond_atom_site_label_1
_geom_bond_atom_site_label_2
_ccdc_geom_bond_type
Cu1   O6    S    
C5    H5    S    
C15   C18   A    
C6    H6    S    
C19   O9    S    
C2    O4    A    
C1    O1    A    
Cu1   O2    S    
C10   O6    A    
C3    O13   S    
C11   C16   A    
C2    O2    A    
C9    O5    A    
C19   C20   A    
C12   C15   A    
C11   H1    S    
C25   H15   S    
C21   O11   S    
O14   C26   S    
Cu2   O8    S    
C26   H16   S    
C8    H8    S    
O13   C25   S    
C9    C17   S    
C7    H7    S    
Cu2   O4    S    
C16   C17   A    
C7    N1    A    
C14   H4    S    
C13   H3    S    
C17   C19   A    
C10   C18   S    
Cu2   O7    S    
C18   C20   A    
C4    C24   A    
C25   H14   S    
Cu2   O3    S    
C26   H17   S    
C20   O10   S    
C9    O7    A    
C1    O3    A    
C4    O14   S    
C15   C16   A    
C5    N2    A    
O9    H9    S    
C12   C14   A    
C11   C13   A    
C12   H2    S    
C1    C24   S    
O11   H11   S    
C21   C24   A    
Cu2   N2    S    
C2    C23   S    
C5    C7    A    
C3    C23   A    
C22   C23   A    
Cu1   O5    S    
C26   H18   S    
C6    C8    A    
C25   H13   S    
C13   C14   A    
Cu1   O1    S    
Cu1   Cu2   S    
C21   C22   A    
C10   O8    A    
Cu1   N1    S    
C3    C4    A    
O12   H12   S    
C6    N2    A    
C22   O12   S    
O10   H10   S    
C8    N1    A    
