data_mof_unit_44521.cif
_audit_creation_date              2013-03-05T16:46:10-0500
_audit_creation_method            fapswitch 2.2
_symmetry_space_group_name_H-M    P1
_symmetry_Int_Tables_number       1
_space_group_crystal_system       triclinic
_cell_length_a                    10.747974
_cell_length_b                    10.708479
_cell_length_c                    9.874066
_cell_angle_alpha                 89.063077
_cell_angle_beta                  86.863964
_cell_angle_gamma                 91.321266
_cell_volume                      1134.27004621

loop_
_atom_site_label
_atom_site_type_symbol
_atom_site_description
_atom_site_fract_x
_atom_site_fract_y
_atom_site_fract_z
_atom_type_partial_charge
O1    O     O_R   0.500020 0.316790 0.614690 -0.613435
O2    O     O_R   0.500000 0.316760 0.385350 -0.633173
C1    C     C_R   0.501999 0.259822 0.500448 0.929440
O3    O     O_R   0.316770 0.500030 0.614670 -0.574554
O4    O     O_R   0.316750 0.499990 0.385330 -0.611666
C2    C     C_R   0.259673 0.505824 0.502987 0.919574
Zn1   Zn    Zn3+2 0.500010 0.500020 0.653130 0.978829
Zn2   Zn    Zn3+2 0.499990 0.499980 0.346870 0.950697
O5    O     O_R   0.500000 0.683240 0.614650 -0.627246
O6    O     O_R   0.499980 0.683210 0.385310 -0.628608
O7    O     O_R   0.683250 0.500010 0.614670 -0.626432
O8    O     O_R   0.683230 0.499970 0.385330 -0.629842
C3    C     C_R   0.506317 0.739756 0.498788 0.869287
C4    C     C_R   0.739455 0.494388 0.496875 0.884281
H1    H     H_    0.320645 0.876794 0.039635 0.142281
C5    C     C_R   0.261540 0.843851 0.249213 -0.112208
H2    H     H_    0.306336 0.928142 0.283631 0.156363
C6    C     C_R   0.196130 0.763807 0.342568 -0.113965
H3    H     H_    0.191962 0.786586 0.449197 0.131467
C7    C     C_R   0.135991 0.655152 0.298272 0.131644
C8    C     C_R   0.142284 0.627864 0.159400 -0.137455
H4    H     H_    0.096743 0.544398 0.123538 0.163986
C9    C     C_R   0.209817 0.707182 0.066698 -0.088253
H5    H     H_    0.216322 0.685247 0.960044 0.184215
C10   C     C_R   0.269129 0.815159 0.111546 -0.122047
C11   C     C_R   0.940082 0.555577 0.391167 -0.231299
H6    H     H_    0.893432 0.604110 0.311773 0.165547
C12   C     C_R   0.871517 0.486769 0.491748 -0.133780
C13   C     C_R   0.928604 0.427953 0.599255 -0.119251
C14   C     C_R   0.054806 0.448575 0.611245 0.338961
C15   C     C_R   0.125711 0.512554 0.507245 -0.227089
C16   C     C_R   0.067656 0.569875 0.398029 -0.025745
C17   C     C_R   0.825870 0.388391 0.831597 -0.006071
H7    H     H_    0.847747 0.483764 0.858321 0.144331
C18   C     C_R   0.764899 0.308324 0.928213 -0.148698
H8    H     H_    0.740422 0.341803 0.028796 0.131321
C19   C     C_R   0.735746 0.185089 0.895127 -0.121090
H9    H     H_    0.688567 0.123148 0.970054 0.117442
C20   C     C_R   0.768033 0.141659 0.765484 -0.105035
H10   H     H_    0.747018 0.045710 0.740678 0.135556
C21   C     C_R   0.828086 0.221689 0.668069 -0.111645
H11   H     H_    0.852942 0.186905 0.568055 0.131835
C22   C     C_R   0.858161 0.345359 0.700829 0.177073
C23   C     C_R   0.510119 0.059573 0.620359 0.017475
C24   C     C_R   0.517523 0.128127 0.499439 -0.041820
C25   C     C_R   0.549374 0.067743 0.377233 -0.231990
H12   H     H_    0.563659 0.119041 0.281950 0.161296
C26   C     C_R   0.553222 0.938307 0.376222 -0.239129
H13   H     H_    0.567550 0.891596 0.280323 0.158475
C27   C     C_R   0.527511 0.871093 0.497895 -0.051679
C28   C     C_R   0.521700 0.933362 0.620348 0.046297
C29   C     C_3   0.437075 0.913255 0.744131 -0.522220
C30   C     C_3   0.419221 0.053268 0.741661 0.131901
H14   H     H_    0.352066 0.856407 0.724732 0.230860
H15   H     H_    0.488243 0.881275 0.832580 0.159362
H16   H     H_    0.454893 0.099994 0.831688 0.074310
C31   C     C_R   0.467436 0.394302 0.076284 0.185154
N1    N     N_R   0.499160 0.499140 0.142800 -0.099057
C32   C     C_R   0.544971 0.600024 0.067340 -0.127971
H17   H     H_    0.579185 0.681740 0.117857 0.140177
C33   C     C_R   0.545769 0.599658 0.923466 -0.138252
H18   H     H_    0.581968 0.680423 0.865893 0.148755
N2    N     N_R   0.499160 0.499180 0.857150 -0.099661
C34   C     C_R   0.464451 0.395176 0.933595 0.160655
C35   C     C_3   0.336735 0.337423 0.946684 -0.402757
C36   C     C_3   0.345957 0.327603 0.098054 -0.494913
H19   H     H_    0.267833 0.406066 0.920175 0.281963
H20   H     H_    0.327955 0.246270 0.898438 0.242082
H21   H     H_    0.274950 0.382323 0.155732 0.236222
H22   H     H_    0.356659 0.230258 0.135810 0.203137
N3    N     N_R   0.290018 0.081998 0.714240 0.238378
O9    O     O_R   0.201566 0.051418 0.804755 -0.366351
O10   O     O_R   0.260551 0.129500 0.598474 -0.389719
N4    N     N_R   0.106191 0.418514 0.737062 0.192018
O11   O     O_R   0.113488 0.301797 0.773464 -0.342768
O12   O     O_R   0.100977 0.503475 0.829762 -0.495774

loop_
_geom_bond_atom_site_label_1
_geom_bond_atom_site_label_2
_geom_bond_distance
_ccdc_geom_bond_type
C11   C16   1.381645 A    
C21   H11   1.083107 S    
C18   H8    1.082362 S    
C31   C36   1.477281 S    
C20   C21   1.398528 A    
C24   C25   1.407791 A    
C23   C24   1.388911 A    
Zn1   O7    1.985236 S    
C11   H6    1.085249 S    
C19   H9    1.082509 S    
N4    O12   1.301027 A    
C12   C13   1.402573 A    
C18   C19   1.397366 A    
O4    C2    1.286883 A    
C14   N4    1.422047 S    
O7    C4    1.283924 A    
H1    C10   1.082207 S    
C36   H21   1.110915 S    
C6    H3    1.083406 S    
C33   N2    1.368037 A    
O5    C3    1.283216 A    
Zn2   N1    2.015674 S    
C23   C30   1.503298 S    
C5    H2    1.081636 S    
C35   H19   1.094204 S    
C9    H5    1.081610 S    
C29   H15   1.110820 S    
C26   C27   1.401439 A    
C2    C15   1.441634 S    
C32   H17   1.081321 S    
C8    H4    1.083043 S    
C13   C22   1.489446 S    
C21   C22   1.403080 A    
O3    Zn1   2.026036 S    
C29   H14   1.113274 S    
C17   H7    1.082829 S    
C25   C26   1.387821 A    
C32   C33   1.420245 A    
N4    O11   1.300161 A    
C28   C29   1.492732 S    
C17   C22   1.406348 A    
O3    C2    1.292322 A    
C20   H10   1.081795 S    
N3    O10   1.301432 A    
N1    C32   1.368826 A    
C1    C24   1.424035 S    
N2    C34   1.368156 A    
O1    C1    1.290560 A    
C13   C14   1.381028 A    
C15   C16   1.413761 A    
C14   C15   1.404273 A    
Zn2   O8    2.026037 S    
C35   H20   1.097510 S    
C27   C28   1.389422 A    
Zn1   N2    2.013900 S    
C23   C28   1.360103 A    
Zn2   O6    2.004575 S    
C26   H13   1.083348 S    
O8    C4    1.286152 A    
C8    C9    1.399858 A    
C30   N3    1.467817 S    
C29   C30   1.515911 S    
C31   C34   1.410921 A    
C7    C16   1.484614 S    
C30   H16   1.109309 S    
C5    C10   1.396961 A    
Zn1   O5    1.992355 S    
C25   H12   1.083470 S    
O1    Zn1   2.004574 S    
O2    Zn2   1.992353 S    
O6    C3    1.286635 A    
O4    Zn2   1.985236 S    
C11   C12   1.394018 A    
C34   C35   1.490721 S    
O2    C1    1.282354 A    
N3    O9    1.301120 A    
C19   C20   1.397745 A    
C31   N1    1.356079 A    
C36   H22   1.111913 S    
C17   C18   1.397713 A    
C6    C7    1.405630 A    
C9    C10   1.397529 A    
C33   H18   1.080158 S    
C3    C27   1.419359 S    
C7    C8    1.405027 A    
C5    C6    1.397902 A    
C35   C36   1.505450 S    
C4    C12   1.421807 S    
