data_mof_unit_28757.cif
_audit_creation_date              2013-03-05T15:41:00-0500
_audit_creation_method            fapswitch 2.2
_symmetry_space_group_name_H-M    P1
_symmetry_Int_Tables_number       1
_space_group_crystal_system       triclinic
_cell_length_a                    28.261437
_cell_length_b                    7.263791
_cell_length_c                    17.118751
_cell_angle_alpha                 90.053261
_cell_angle_beta                  103.006729
_cell_angle_gamma                 89.941986
_cell_volume                      3424.06085177

loop_
_atom_site_label
_atom_site_type_symbol
_atom_site_description
_atom_site_fract_x
_atom_site_fract_y
_atom_site_fract_z
_atom_type_partial_charge
O1    O     O_R   0.000700 0.436510 0.857920 -0.560967
O2    O     O_R   0.999300 0.563490 0.142080 -0.562188
O3    O     O_R   0.999300 0.936510 0.642080 -0.539549
O4    O     O_R   0.000700 0.063490 0.357920 -0.549848
O5    O     O_R   0.930080 0.766380 0.721890 -0.514721
O6    O     O_R   0.069920 0.233620 0.278110 -0.524234
O7    O     O_R   0.069920 0.266380 0.778110 -0.547337
O8    O     O_R   0.930080 0.733620 0.221890 -0.546283
C1    C     C_R   0.910642 0.597679 0.711445 0.826486
C2    C     C_R   0.089283 0.402040 0.292496 0.852598
C3    C     C_R   0.089275 0.097057 0.787237 0.850933
C4    C     C_R   0.910723 0.902235 0.207670 0.858312
O9    O     O_R   0.996180 0.766230 0.862310 -0.555119
O10   O     O_R   0.003820 0.233770 0.137690 -0.547732
O11   O     O_R   0.003820 0.266230 0.637690 -0.559107
O12   O     O_R   0.996180 0.733770 0.362310 -0.558716
O13   O     O_R   0.065870 0.936460 0.783500 -0.528412
O14   O     O_R   0.934130 0.063540 0.216500 -0.527723
O15   O     O_R   0.934130 0.436460 0.716500 -0.549867
O16   O     O_R   0.065870 0.563540 0.283500 -0.553913
C5    C     C_R   0.998473 0.596462 0.894309 0.837856
C6    C     C_R   0.001503 0.403534 0.105685 0.853786
C7    C     C_R   0.001483 0.096399 0.605696 0.865178
C8    C     C_R   0.998509 0.903607 0.394298 0.852902
O17   O     O_3   0.022790 0.603020 0.723980 -0.256305
O18   O     O_3   0.977210 0.396980 0.276020 -0.265058
O19   O     O_3   0.977210 0.103020 0.776020 -0.263730
O20   O     O_3   0.022790 0.896980 0.223980 -0.274256
V1    V     V_3+5 0.995770 0.877900 0.754830 1.243464
V2    V     V_3+5 0.004230 0.122100 0.245170 1.229547
V3    V     V_3+5 0.004230 0.377900 0.745170 1.212118
V4    V     V_3+5 0.995770 0.622100 0.254830 1.200612
C9    C     C_2   0.001680 0.082088 0.519542 -0.198038
C10   C     C_2   0.998364 0.917909 0.480475 -0.194721
C11   C     C_2   0.998249 0.582120 0.980479 -0.221334
C12   C     C_2   0.001684 0.417870 0.019500 -0.216859
H1    H     H_    0.004381 0.209508 0.487683 0.106976
H2    H     H_    0.995685 0.790486 0.512346 0.113260
H3    H     H_    0.995417 0.709531 0.012377 0.112407
H4    H     H_    0.004507 0.290456 0.987599 0.113612
C13   C     C_R   0.686954 0.968113 0.985338 0.575697
C14   C     C_R   0.321830 0.033066 0.936025 0.565623
C15   C     C_R   0.312679 0.447707 0.518339 0.567178
C16   C     C_R   0.678317 0.504777 0.568184 0.560085
O21   O     O_2   0.717532 0.006093 0.937314 -0.521469
O22   O     O_2   0.296157 0.031350 0.993713 -0.537060
O23   O     O_2   0.282532 0.427059 0.568615 -0.520713
O24   O     O_2   0.703481 0.507413 0.509781 -0.543200
N1    N     N_R   0.705311 0.928294 0.064518 -0.440559
N2    N     N_R   0.298369 0.054001 0.858039 -0.436764
N3    N     N_R   0.294231 0.447529 0.437190 -0.440032
N4    N     N_R   0.702246 0.519896 0.646191 -0.435472
C17   C     C_R   0.675055 0.886952 0.114157 0.566521
C18   C     C_R   0.323375 0.056534 0.798183 0.573165
C19   C     C_R   0.324101 0.471245 0.385215 0.569586
C20   C     C_R   0.677631 0.518780 0.706619 0.580218
C21   C     C_R   0.778431 0.065589 0.151439 -0.059443
C22   C     C_R   0.218141 0.927982 0.793393 -0.054812
C23   C     C_R   0.224696 0.282037 0.353082 -0.052833
C24   C     C_R   0.776617 0.696924 0.704053 -0.038895
C25   C     C_R   0.827905 0.058135 0.190768 0.302953
C26   C     C_R   0.167177 0.936767 0.773861 0.299651
C27   C     C_R   0.175456 0.272720 0.312928 0.303668
C28   C     C_R   0.827127 0.721169 0.719107 0.301012
C29   C     C_R   0.835307 0.772560 0.119942 -0.113027
C30   C     C_R   0.171513 0.226247 0.846971 -0.110906
C31   C     C_R   0.161146 0.557343 0.379155 -0.113069
C32   C     C_R   0.833931 0.428697 0.653457 -0.098336
C33   C     C_R   0.785976 0.781259 0.081967 0.023982
C34   C     C_R   0.222279 0.217270 0.864453 0.021153
C35   C     C_R   0.210357 0.566372 0.417307 0.025891
C36   C     C_R   0.783751 0.404847 0.640058 0.025005
C37   C     C_R   0.757193 0.927869 0.097314 0.220967
C38   C     C_R   0.245933 0.067389 0.838271 0.222712
C39   C     C_R   0.242549 0.428921 0.404658 0.214125
C40   C     C_R   0.754572 0.539381 0.664570 0.211599
C41   C     C_R   0.604410 0.935737 0.004358 -0.101954
C42   C     C_R   0.399438 0.003870 0.896263 -0.077062
C43   C     C_R   0.394672 0.483061 0.497481 -0.094067
C44   C     C_R   0.600446 0.498627 0.607995 -0.079569
C45   C     C_R   0.636274 0.969947 0.953762 -0.040482
C46   C     C_R   0.372263 0.010865 0.956655 -0.024680
C47   C     C_R   0.363015 0.469234 0.549662 -0.039026
C48   C     C_R   0.627813 0.491160 0.547856 -0.025418
C49   C     C_R   0.616884 0.009542 0.873196 -0.148683
C50   C     C_R   0.395670 0.995201 0.037262 -0.036636
C51   C     C_R   0.382180 0.479823 0.631940 -0.149610
C52   C     C_R   0.604537 0.469665 0.467563 -0.044119
C53   C     C_R   0.623905 0.900582 0.086795 -0.085675
C54   C     C_R   0.375052 0.023988 0.814832 -0.101212
C55   C     C_R   0.375209 0.478160 0.413541 -0.087431
C56   C     C_R   0.625230 0.506294 0.689693 -0.100610
C57   C     C_R   0.857175 0.910206 0.174339 -0.164711
C58   C     C_R   0.143198 0.085963 0.802583 -0.170575
C59   C     C_R   0.142738 0.411333 0.326680 -0.171412
C60   C     C_R   0.856611 0.585842 0.693305 -0.187157
H5    H     H_    0.856679 0.658689 0.105688 0.120020
H6    H     H_    0.154315 0.342281 0.869203 0.127662
H7    H     H_    0.137258 0.664802 0.391556 0.124548
H8    H     H_    0.855111 0.323132 0.632382 0.149204
H9    H     H_    0.769959 0.672374 0.041316 0.105654
H10   H     H_    0.243276 0.326502 0.898931 0.105494
H11   H     H_    0.223606 0.682309 0.455826 0.107595
H12   H     H_    0.767427 0.281846 0.609729 0.113626
H13   H     H_    0.640538 0.039362 0.833029 0.134675
H14   H     H_    0.375956 0.006741 0.084509 0.136549
H15   H     H_    0.358423 0.477572 0.673604 0.142525
H16   H     H_    0.624703 0.453057 0.421136 0.136976
C61   C     C_R   0.479774 0.984750 0.860818 0.055126
C62   C     C_R   0.522410 0.898386 0.024764 -0.040033
C63   C     C_R   0.519586 0.498340 0.643028 0.051392
C64   C     C_R   0.475811 0.524006 0.474678 -0.046713
C65   C     C_R   0.472579 0.941104 0.000703 0.074934
C66   C     C_R   0.532694 0.982702 0.890669 0.136480
C67   C     C_R   0.526331 0.503119 0.501385 0.075307
C68   C     C_R   0.466489 0.496563 0.613449 0.132040
C69   C     C_R   0.450688 0.975827 0.918725 0.007738
C70   C     C_R   0.553011 0.940737 0.973105 -0.008686
C71   C     C_R   0.548629 0.499747 0.584724 0.008053
C72   C     C_R   0.445913 0.498648 0.528908 -0.006442
C73   C     C_R   0.454449 0.994317 0.777122 0.442524
C74   C     C_R   0.543060 0.824137 0.101629 0.298523
C75   C     C_R   0.545265 0.493685 0.726745 0.441060
C76   C     C_R   0.453994 0.564631 0.393403 0.302759
C77   C     C_R   0.402397 0.006823 0.753776 -0.038644
C78   C     C_R   0.591598 0.868187 0.137713 0.019719
C79   C     C_R   0.597392 0.500056 0.750456 -0.039965
C80   C     C_R   0.407170 0.496215 0.361100 0.018495
O25   O     O_2   0.297829 0.094971 0.723685 -0.546362
O26   O     O_2   0.694594 0.822536 0.188291 -0.542274
O27   O     O_2   0.704474 0.529847 0.782117 -0.557406
O28   O     O_2   0.303959 0.499928 0.306939 -0.539069
C81   C     C_R   0.566825 0.019890 0.843012 0.003017
C82   C     C_R   0.444883 0.962874 0.058882 -0.010238
C83   C     C_R   0.432049 0.494792 0.662869 -0.008870
C84   C     C_R   0.554779 0.471918 0.444988 -0.016860
H17   H     H_    0.236482 0.813650 0.772165 0.125454
H18   H     H_    0.755745 0.175973 0.164996 0.120884
H19   H     H_    0.754315 0.802238 0.722739 0.128400
H20   H     H_    0.249862 0.178271 0.341645 0.123064
H21   H     H_    0.557304 0.071181 0.783158 0.174584
H22   H     H_    0.461213 0.957281 0.122381 0.106339
H23   H     H_    0.440379 0.510272 0.726026 0.178495
H24   H     H_    0.538745 0.450176 0.382056 0.103238
N5    N     N_R   0.140806 0.798490 0.721633 0.101108
O29   O     O_R   0.155367 0.628034 0.728465 -0.355014
O30   O     O_R   0.108008 0.846939 0.658736 -0.362884
N6    N     N_R   0.846910 0.196464 0.249558 0.101888
O31   O     O_R   0.830600 0.364473 0.240001 -0.345966
O32   O     O_R   0.874868 0.149832 0.317960 -0.348248
N7    N     N_R   0.847605 0.880720 0.762961 0.092967
O33   O     O_R   0.842405 0.904523 0.835882 -0.336270
O34   O     O_R   0.860444 0.019730 0.724657 -0.361045
N8    N     N_R   0.160226 0.127744 0.255665 0.103693
O35   O     O_R   0.179118 0.964163 0.269095 -0.348000
O36   O     O_R   0.133955 0.165749 0.184802 -0.339381
C85   C     C_3   0.373564 0.995279 0.665356 -0.168216
C86   C     C_3   0.396638 0.950828 0.594758 -0.339956
H25   H     H_    0.414116 0.073575 0.575246 0.187445
H26   H     H_    0.421817 0.833906 0.607304 0.180696
H27   H     H_    0.367481 0.910814 0.542367 0.097092
H28   H     H_    0.345682 0.886203 0.663043 0.149865
H29   H     H_    0.355240 0.128911 0.649100 0.183622
C87   C     C_3   0.605790 0.908580 0.227628 -0.138579
C88   C     C_3   0.568431 0.030160 0.255697 -0.393706
H30   H     H_    0.562589 0.159810 0.220403 0.142631
H31   H     H_    0.533168 0.958581 0.249311 0.218169
H32   H     H_    0.581971 0.065745 0.319968 0.155270
H33   H     H_    0.611746 0.779003 0.262743 0.191691
H34   H     H_    0.639913 0.989015 0.243036 0.157226
C89   C     C_3   0.625682 0.498601 0.839376 -0.174442
C90   C     C_3   0.602121 0.482119 0.911278 -0.340695
H35   H     H_    0.581254 0.606532 0.918624 0.192205
H36   H     H_    0.580214 0.356131 0.909336 0.182753
H37   H     H_    0.631379 0.472390 0.966676 0.099335
H38   H     H_    0.651028 0.379781 0.846589 0.166874
H39   H     H_    0.646532 0.629161 0.850332 0.171845
C91   C     C_3   0.394720 0.421511 0.275420 -0.134870
C92   C     C_3   0.435814 0.305568 0.255443 -0.391489
H40   H     H_    0.468314 0.390404 0.255015 0.210745
H41   H     H_    0.446062 0.192637 0.299798 0.154830
H42   H     H_    0.423451 0.243767 0.194951 0.142690
H43   H     H_    0.363452 0.325796 0.266903 0.156812
H44   H     H_    0.384750 0.535243 0.231555 0.198056
N9    N     N_R   0.480965 0.994535 0.715144 0.056904
O37   O     O_R   0.503720 0.849418 0.699523 -0.420529
O38   O     O_R   0.484163 0.143015 0.675041 -0.420944
N10   N     N_R   0.517553 0.684325 0.136518 0.091495
O39   O     O_R   0.481132 0.597365 0.091510 -0.358794
O40   O     O_R   0.536868 0.613130 0.206089 -0.373164
N11   N     N_R   0.519066 0.488224 0.788839 0.053105
O41   O     O_R   0.503394 0.334363 0.811023 -0.439810
O42   O     O_R   0.508280 0.638110 0.821666 -0.415548
N12   N     N_R   0.475528 0.699193 0.349373 0.085485
O43   O     O_R   0.454700 0.741194 0.275811 -0.365425
O44   O     O_R   0.508724 0.810797 0.387972 -0.382253

loop_
_geom_bond_atom_site_label_1
_geom_bond_atom_site_label_2
_geom_bond_distance
_ccdc_geom_bond_type
O17   V3    1.780215 S    
N12   O44   1.302102 A    
C89   C90   1.530392 S    
N1    C17   1.368008 A    
O1    C5    1.325929 A    
C85   C86   1.530915 S    
O19   V1    1.778619 S    
O13   V1    1.977457 S    
O3    C7    1.326417 A    
C11   C12   1.360563 D    
C14   C46   1.398303 A    
C44   C48   1.420998 A    
O4    V2    2.001231 S    
O15   V3    1.976790 S    
C62   C70   1.403532 A    
C32   H8    1.082685 S    
N5    O29   1.301396 A    
C61   C69   1.424652 A    
C68   C83   1.426166 A    
C42   C54   1.416787 A    
O7    C3    1.340472 A    
C17   O26   1.348914 S    
C41   C53   1.417992 A    
C32   C60   1.407956 A    
C23   H20   1.083349 S    
O2    V4    2.000425 S    
C87   C88   1.533365 S    
C25   N6    1.437661 S    
N3    C39   1.447747 S    
C18   C54   1.442952 A    
N2    C38   1.447095 S    
C52   H16   1.083780 S    
C25   C57   1.421372 A    
N9    O38   1.293131 A    
C31   C35   1.398706 A    
C67   C84   1.406582 A    
C79   C89   1.551965 S    
C27   C59   1.421206 A    
O1    V3    2.000425 S    
C15   C47   1.411589 A    
O11   V3    2.007749 S    
C63   C71   1.427873 A    
C14   O22   1.350703 S    
C21   C37   1.403090 A    
O3    V1    2.001231 S    
C34   C38   1.401978 A    
C19   C55   1.417310 A    
C86   H27   1.111392 S    
C73   C77   1.437742 A    
C74   N10   1.450556 S    
C1    O15   1.338751 A    
N10   O40   1.300667 A    
C2    O16   1.338129 A    
C7    C9    1.479674 S    
C26   N5    1.436516 S    
O2    C6    1.325896 A    
N7    O33   1.300732 A    
C33   C37   1.399554 A    
C63   C68   1.471842 A    
O14   V2    1.977457 S    
C85   H29   1.105641 S    
N8    O36   1.301475 A    
C91   H43   1.108434 S    
C90   H37   1.111348 S    
C31   H7    1.083153 S    
C76   C80   1.405479 A    
C92   H42   1.110214 S    
C16   N4    1.358687 A    
O11   C7    1.344898 A    
N12   O43   1.300794 A    
C44   C71   1.428527 A    
O12   C8    1.344917 A    
C31   C59   1.411181 A    
C87   H33   1.109404 S    
C50   H14   1.083612 S    
O10   V2    2.009122 S    
C49   H13   1.083562 S    
C13   N1    1.368925 A    
N5    O30   1.301206 A    
C50   C82   1.376351 A    
C45   C49   1.394773 A    
C91   C92   1.533380 S    
O5    V1    1.987888 S    
C53   C78   1.416995 A    
O7    V3    1.986786 S    
C55   C80   1.415771 A    
C28   N7    1.430338 S    
C63   C75   1.453821 A    
N11   O41   1.291105 A    
O8    V4    1.986783 S    
C51   C83   1.393862 A    
C12   H4    1.086140 S    
C42   C69   1.426901 A    
N6    O31   1.301484 A    
C52   C84   1.372029 A    
C41   C70   1.430981 A    
C64   C72   1.401232 A    
O18   V4    1.780216 S    
C36   H12   1.082970 S    
N4    C40   1.448018 S    
C46   C50   1.394225 A    
N6    O32   1.301496 A    
C24   C40   1.401792 A    
C8    C10   1.479717 S    
C68   C72   1.433203 A    
N10   O39   1.302131 A    
C74   C78   1.408827 A    
C11   H3    1.086147 S    
N11   O42   1.292044 A    
O5    C1    1.338696 A    
C54   C77   1.438192 A    
C82   H22   1.081904 S    
C42   C46   1.420735 A    
C75   C79   1.438108 A    
C1    C60   1.490748 S    
C41   C45   1.405300 A    
O8    C4    1.340847 A    
C13   C45   1.412543 A    
C43   C72   1.431396 A    
C4    O14   1.337732 A    
C9    C10   1.359705 D    
O9    C5    1.345387 A    
C36   C40   1.401590 A    
N2    C18   1.369575 A    
C21   C25   1.409737 A    
C44   C56   1.417274 A    
C78   C87   1.528936 S    
C62   C65   1.409791 A    
C28   C60   1.420870 A    
N8    O35   1.301446 A    
C66   C70   1.431717 A    
C22   C26   1.404792 A    
C14   N2    1.358962 A    
C65   C69   1.423131 A    
C61   C66   1.467687 A    
C22   H17   1.083408 S    
O6    V2    1.987888 S    
C88   H32   1.110815 S    
C67   C71   1.424233 A    
C65   C82   1.407105 A    
C26   C58   1.422325 A    
C17   C53   1.419118 A    
C86   H25   1.107350 S    
N1    C37   1.447279 S    
C4    C57   1.493440 S    
C80   C91   1.528455 S    
C75   N11   1.426207 S    
C56   C79   1.439264 A    
C23   C39   1.404019 A    
C90   H35   1.101085 S    
C22   C38   1.400382 A    
O16   V4    1.976790 S    
O9    V1    2.009122 S    
C18   O25   1.345898 S    
C35   H11   1.082904 S    
C3    O13   1.335968 A    
C10   H2    1.086165 S    
C77   C85   1.551391 S    
C23   C27   1.408222 A    
C48   C52   1.392560 A    
C27   N8    1.436744 S    
C3    C58   1.489133 S    
C16   C48   1.394537 A    
C47   C51   1.392700 A    
O6    C2    1.340474 A    
C34   H10   1.082814 S    
C64   C76   1.420308 A    
C5    C11   1.480319 S    
C33   H9    1.082879 S    
C32   C36   1.395620 A    
O12   V4    2.007749 S    
C6    C12   1.480300 S    
C89   H38   1.110147 S    
C87   H34   1.107833 S    
C81   H21   1.066516 S    
C30   C58   1.408046 A    
C24   C28   1.403575 A    
O10   C6    1.345367 A    
O20   V2    1.778620 S    
C30   H6    1.083197 S    
C29   H5    1.083276 S    
C84   H24   1.082121 S    
C62   C74   1.420536 A    
C35   C39   1.399230 A    
C86   H26   1.097332 S    
C15   N3    1.369521 A    
N9    O37   1.292948 A    
C30   C34   1.399562 A    
C2    C59   1.493819 S    
O4    C8    1.326365 A    
C29   C33   1.400783 A    
C83   H23   1.059359 S    
C29   C57   1.410402 A    
C90   H36   1.101708 S    
C66   C81   1.422721 A    
C21   H18   1.083244 S    
N3    C19   1.368418 A    
N7    O34   1.300107 A    
C43   C55   1.418738 A    
C9    H1    1.086157 S    
C20   O27   1.345698 S    
C24   H19   1.083544 S    
C73   N9    1.430100 S    
C92   H40   1.107975 S    
C43   C47   1.403050 A    
N4    C20   1.370425 A    
C88   H30   1.111318 S    
C20   C56   1.446527 A    
C51   H15   1.084128 S    
C88   H31   1.107862 S    
C19   O28   1.349051 S    
C76   N12   1.450141 S    
C13   O21   1.348889 S    
C89   H39   1.110329 S    
C61   C73   1.452046 A    
C15   O23   1.348962 S    
C85   H28   1.112380 S    
C64   C67   1.405862 A    
C91   H44   1.109589 S    
C16   O24   1.351233 S    
C49   C81   1.394598 A    
C92   H41   1.111313 S    
