data_mof_unit_54502.cif
_audit_creation_date              2012-10-26T19:21:09-0400
_audit_creation_method            fapswitch 2.2
_symmetry_space_group_name_H-M    P1
_symmetry_Int_Tables_number       1
_space_group_crystal_system       triclinic
_cell_length_a                    9.819175
_cell_length_b                    11.071981
_cell_length_c                    13.460845
_cell_angle_alpha                 93.546769
_cell_angle_beta                  82.097017
_cell_angle_gamma                 111.11465
_cell_volume                      1352.09314671

loop_
_atom_site_label
_atom_site_type_symbol
_atom_type_description
_atom_site_fract_x
_atom_site_fract_y
_atom_site_fract_z
_atom_type_partial_charge
Br1   Br    Br    0.906119 0.718404 0.247164 -0.456337
Br2   Br    Br    0.275389 0.833803 0.607243 -0.517116
Br3   Br    Br    0.927762 0.552744 0.824858 -0.393479
Br4   Br    Br    0.984907 0.758132 0.005253 -0.385873
Br5   Br    Br    0.638918 0.317631 0.744046 -0.467134
Br6   Br    Br    0.722058 0.158345 0.478380 -0.537498
C1    C     C_R   0.551155 0.742804 0.518170 0.560417
C2    C     C_R   0.371842 0.445281 0.798201 0.004769
C3    C     C_2   0.571846 0.876231 0.550052 0.275730
C4    C     C_R   0.420589 0.475463 0.689791 0.563458
C5    C     C_2   0.468906 0.925202 0.538784 0.192932
C6    C     C_2   0.409147 0.110577 0.492872 0.266229
C7    C     C_2   0.512343 0.062895 0.511636 0.206091
C8    C     C_2   0.924689 0.494759 0.488918 0.050861
C9    C     C_2   0.075507 0.505834 0.510644 0.022017
C10   C     C_R   0.443773 0.253252 0.491675 0.546688
C11   C     C_R   0.578164 0.515486 0.309702 0.592311
C12   C     C_R   0.435406 0.464184 0.969987 0.004319
C13   C     C_R   0.802623 0.624091 0.055665 0.203825
C14   C     C_R   0.623891 0.530623 0.200856 -0.021812
C15   C     C_R   0.222970 0.416126 0.836942 0.283521
C16   C     C_R   0.182703 0.420237 0.940256 -0.089991
C17   C     C_R   0.288333 0.449408 0.005868 -0.111200
C18   C     C_3   0.151290 0.045522 0.504566 0.004614
C19   C     C_3   0.017543 0.921673 0.500966 -0.309638
C20   C     C_3   0.630425 0.879713 0.708623 -0.002363
C21   C     C_3   0.732643 0.955487 0.783845 -0.363607
C22   C     C_3   0.397931 0.254613 0.166271 -0.012830
C23   C     C_R   0.474774 0.454633 0.865900 -0.052239
C24   C     C_3   0.251662 0.152897 0.205687 -0.316930
C25   C     C_3   0.057204 0.257275 0.755232 -0.009528
C26   C     C_3   0.988413 0.234905 0.658208 -0.328155
C27   C     C_R   0.547714 0.496272 0.033730 -0.031206
C28   C     C_R   0.697008 0.552378 0.991645 -0.045546
C29   C     C_R   0.731937 0.523755 0.889309 0.200723
C30   C     C_R   0.617063 0.454455 0.833788 0.188062
C31   C     C_R   0.516807 0.469430 0.136486 0.214792
C32   C     C_R   0.764992 0.613878 0.160565 0.127781
Cu1   Cu    Cu3+1 0.362000 0.479240 0.482530 1.002286
Cu2   Cu    Cu3+1 0.638000 0.520760 0.517470 1.033939
H1    H     H_    0.119033 0.563187 0.574842 0.222484
H2    H     H_    0.916296 0.945646 0.510923 0.176327
H3    H     H_    0.023928 0.871963 0.427333 0.225548
H4    H     H_    0.631937 0.779566 0.704592 0.152799
H5    H     H_    0.517525 0.876513 0.738346 0.180682
H6    H     H_    0.731744 0.055576 0.791659 0.188854
H7    H     H_    0.694459 0.908332 0.858133 0.133956
H8    H     H_    0.846051 0.957419 0.759157 0.156393
H9    H     H_    0.482877 0.251780 0.212209 0.137863
H10   H     H_    0.427488 0.229500 0.086779 0.151703
H11   H     H_    0.165551 0.150158 0.159114 0.174379
H12   H     H_    0.880242 0.435928 0.425388 0.184969
H13   H     H_    0.262054 0.056098 0.202944 0.162014
H14   H     H_    0.218334 0.176490 0.284449 0.174841
H15   H     H_    0.971126 0.211235 0.817990 0.149323
H16   H     H_    0.141460 0.210089 0.746493 0.116111
H17   H     H_    0.075438 0.272588 0.594677 0.175513
H18   H     H_    0.931535 0.130354 0.644655 0.148486
H19   H     H_    0.908945 0.285323 0.661129 0.250848
H20   H     H_    0.110912 0.394607 0.395259 0.227431
H21   H     H_    0.889977 0.606912 0.603861 0.247816
H22   H     H_    0.253790 0.464378 0.083879 0.197176
H23   H     H_    0.069589 0.405665 0.969480 0.168001
H24   H     H_    0.131908 0.116422 0.458933 0.162966
H25   H     H_    0.157972 0.079076 0.584051 0.136409
H26   H     H_    0.009711 0.855267 0.561544 0.184445
N1    N     N_2   0.845330 0.551960 0.543750 -0.322072
N2    N     N_2   0.154690 0.448120 0.456210 -0.368552
O1    O     O_R   0.426290 0.668220 0.490680 -0.479173
O2    O     O_3   0.677175 0.939413 0.613384 -0.565384
O3    O     O_3   0.383742 0.377393 0.173667 -0.558499
O4    O     O_3   0.117208 0.391801 0.773464 -0.491804
O5    O     O_R   0.659360 0.703290 0.520190 -0.493659
O6    O     O_R   0.326580 0.473880 0.629020 -0.459039
O7    O     O_R   0.559660 0.508940 0.658530 -0.484837
O8    O     O_R   0.340640 0.296710 0.479810 -0.543365
O9    O     O_R   0.573710 0.331780 0.509320 -0.443147
O10   O     O_R   0.440340 0.491060 0.341470 -0.440854
O11   O     O_R   0.673420 0.526120 0.370980 -0.474522
O12   O     O_3   0.279130 0.021927 0.461633 -0.555311

loop_
_geom_bond_atom_site_label_1
_geom_bond_atom_site_label_2
_ccdc_geom_bond_type
C21   H8    S    
C24   H11   S    
C5    C7    S    
Cu1   N2    S    
C29   C30   A    
C26   H18   S    
C19   H3    S    
C20   H4    S    
C1    O5    A    
C24   H14   S    
C23   C30   A    
C20   C21   S    
C2    C23   A    
C10   O9    A    
Br5   C30   S    
C11   O11   A    
C11   C14   S    
Cu2   O5    S    
C28   C29   A    
C22   H9    S    
Cu1   O6    S    
C20   H5    S    
C16   H23   S    
Br4   C13   S    
C22   H10   S    
C18   O12   S    
C17   H22   S    
C8    H12   S    
C6    C10   S    
Cu2   N1    S    
C8    N1    D    
C25   H16   S    
C18   H24   S    
C10   O8    A    
C15   C16   A    
C26   H17   S    
Br2   C5    S    
C2    C15   A    
C24   H13   S    
C15   O4    S    
C12   C17   A    
Cu1   O10   S    
C18   C19   S    
C9    H1    S    
Cu1   Cu2   S    
C27   C31   A    
C13   C32   A    
C14   C32   A    
C4    O7    A    
H21   N1    S    
C25   C26   S    
Br3   C29   S    
C27   C28   A    
Cu1   O1    S    
Cu2   O11   S    
C12   C23   A    
Cu1   O8    S    
C3    O2    S    
C3    C5    D    
Br1   C32   S    
C18   H25   S    
C21   H6    S    
C25   O4    S    
C31   O3    S    
C20   O2    S    
C22   O3    S    
C21   H7    S    
C1    C3    S    
C16   C17   A    
C19   H26   S    
C13   C28   A    
C19   H2    S    
C1    O1    A    
Cu2   O7    S    
C22   C24   S    
Br6   C7    S    
C14   C31   A    
C4    O6    A    
C9    N2    D    
C6    O12   S    
C11   O10   A    
Cu2   O9    S    
C12   C27   A    
C6    C7    D    
H20   N2    S    
C2    C4    S    
C8    C9    S    
C26   H19   S    
C25   H15   S    
