data_mof_unit_5388.cif
_audit_creation_date              2012-12-10T16:38:04-0500
_audit_creation_method            fapswitch 2.2
_symmetry_space_group_name_H-M    P1
_symmetry_Int_Tables_number       1
_space_group_crystal_system       triclinic
_cell_length_a                    28.046812
_cell_length_b                    18.45957
_cell_length_c                    17.026924
_cell_angle_alpha                 90.032364
_cell_angle_beta                  60.921894
_cell_angle_gamma                 90.052767
_cell_volume                      7704.27284348

loop_
_atom_site_label
_atom_site_type_symbol
_atom_type_description
_atom_site_fract_x
_atom_site_fract_y
_atom_site_fract_z
_atom_type_partial_charge
C1    C     C_R   0.706394 0.277702 0.672829 0.897018
C2    C     C_R   0.112588 0.500179 0.455498 0.070424
C3    C     C_R   0.186916 0.225173 0.912028 0.072901
C4    C     C_R   0.620861 0.327760 0.043546 -0.175020
C5    C     C_R   0.379862 0.672670 0.955485 -0.174118
C6    C     C_R   0.384206 0.326306 0.951258 -0.169821
C7    C     C_R   0.620705 0.672628 0.043588 -0.173945
C8    C     C_R   0.108662 0.814817 0.052344 -0.176556
C9    C     C_R   0.891744 0.185517 0.947013 -0.183358
C10   C     C_R   0.891901 0.814171 0.946965 -0.183249
C11   C     C_R   0.115249 0.174456 0.049021 -0.169726
C12   C     C_R   0.651496 0.316890 0.086903 -0.211885
C13   C     C_R   0.399591 0.998793 0.506032 0.071506
C14   C     C_R   0.349292 0.683717 0.911989 -0.210427
C15   C     C_R   0.353855 0.314337 0.907795 -0.195462
C16   C     C_R   0.651339 0.683481 0.086958 -0.208014
C17   C     C_R   0.134719 0.792538 0.100097 -0.200044
C18   C     C_R   0.865928 0.208308 0.898961 -0.207391
C19   C     C_R   0.866074 0.791379 0.898896 -0.206917
C20   C     C_R   0.145473 0.186738 0.092645 -0.199935
C21   C     C_R   0.779728 0.277654 0.757956 -0.174846
C22   C     C_R   0.221501 0.725596 0.240064 -0.162871
C23   C     C_R   0.250676 0.200470 0.211160 -0.162536
C24   C     C_R   0.577654 0.998864 0.571644 0.077231
C25   C     C_R   0.779720 0.722278 0.757930 -0.174620
C26   C     C_R   0.246460 0.695417 0.789330 -0.171735
C27   C     C_R   0.753874 0.304940 0.210130 -0.175789
C28   C     C_R   0.753692 0.695141 0.210204 -0.169756
C29   C     C_R   0.248744 0.300406 0.789168 -0.158574
C30   C     C_R   0.809753 0.261679 0.801238 -0.211584
C31   C     C_R   0.191456 0.740961 0.196949 -0.199049
C32   C     C_R   0.219123 0.189123 0.169571 -0.181532
C33   C     C_R   0.809784 0.738163 0.801202 -0.211062
C34   C     C_R   0.277044 0.682364 0.832133 -0.217478
C35   C     C_R   0.120647 0.370207 0.432895 -0.149041
C36   C     C_R   0.723553 0.318389 0.166951 -0.220410
C37   C     C_R   0.723355 0.681755 0.167020 -0.212545
C38   C     C_R   0.280174 0.312040 0.830927 -0.170668
C39   C     C_R   0.072281 0.102462 0.936230 0.905098
C40   C     C_R   0.928374 0.896737 0.063203 0.903791
C41   C     C_R   0.928332 0.103213 0.063257 0.905680
C42   C     C_R   0.071757 0.896872 0.936627 0.901017
C43   C     C_R   0.572380 0.602519 0.936276 0.900541
C44   C     C_R   0.427639 0.397620 0.063824 0.906756
C45   C     C_R   0.427723 0.602588 0.063618 0.899652
C46   C     C_R   0.929950 0.630470 0.400719 -0.158777
C47   C     C_R   0.572432 0.397547 0.936213 0.903602
C48   C     C_R   0.519028 0.127570 0.593391 -0.129546
C49   C     C_R   0.456753 0.869849 0.491436 -0.141107
C50   C     C_R   0.424195 0.124365 0.575050 -0.133717
C51   C     C_R   0.534552 0.867065 0.549870 -0.139451
C52   C     C_R   0.071342 0.631369 0.427114 -0.138322
C53   C     C_R   0.980802 0.368362 0.399608 -0.131726
C54   C     C_R   0.978967 0.631189 0.403442 -0.133190
C55   C     C_R   0.075960 0.369246 0.417081 -0.137127
C56   C     C_R   0.486455 0.189876 0.611682 0.533013
C57   C     C_R   0.930701 0.368578 0.399660 -0.156279
C58   C     C_R   0.481258 0.804046 0.493708 0.533837
C59   C     C_R   0.438641 0.187790 0.604719 0.529372
C60   C     C_R   0.518217 0.802216 0.526560 0.536170
C61   C     C_R   0.051002 0.696870 0.412537 0.495166
C62   C     C_R   0.009402 0.303618 0.391035 0.530529
C63   C     C_R   0.005350 0.696661 0.400138 0.537350
C64   C     C_R   0.056857 0.304123 0.399011 0.527429
C65   C     C_R   0.456111 0.061949 0.557788 -0.050591
C66   C     C_R   0.511362 0.932952 0.545319 -0.050504
C67   C     C_R   0.501867 0.062754 0.571225 -0.056227
C68   C     C_R   0.114509 0.631080 0.445773 -0.182225
C69   C     C_R   0.469877 0.933650 0.521817 -0.052823
C70   C     C_R   0.001046 0.565490 0.412913 -0.054981
C71   C     C_R   0.049295 0.434373 0.420565 -0.053161
C72   C     C_R   0.047453 0.565616 0.424472 -0.040186
C73   C     C_R   0.002192 0.434073 0.410542 -0.054404
C74   C     C_R   0.976491 0.499657 0.411442 0.077657
C75   C     C_R   0.069933 0.500043 0.433316 0.079867
C76   C     C_R   0.442084 0.998270 0.527891 0.080772
C77   C     C_R   0.529829 0.998200 0.564068 0.080024
C78   C     C_R   0.899744 0.433132 0.416617 0.021542
C79   C     C_R   0.575117 0.867731 0.574467 -0.143369
C80   C     C_R   0.132957 0.566467 0.468481 0.037756
C81   C     C_R   0.135652 0.434144 0.462615 0.023962
C82   C     C_R   0.899457 0.565901 0.416980 0.023432
C83   C     C_R   0.386618 0.935236 0.473882 0.032855
C84   C     C_R   0.601022 0.065394 0.576481 0.026279
C85   C     C_R   0.603104 0.932839 0.570314 0.022373
C86   C     C_R   0.369072 0.062292 0.518682 0.019546
C87   C     C_R   0.844089 0.434364 0.436741 -0.114320
C88   C     C_R   0.171481 0.564523 0.501656 -0.099621
C89   C     C_R   0.173289 0.435672 0.497507 -0.105284
C90   C     C_R   0.378688 0.122220 0.561866 -0.143807
C91   C     C_R   0.843905 0.564975 0.437113 -0.115444
C92   C     C_R   0.340092 0.935920 0.460388 -0.125255
C93   C     C_R   0.655572 0.065114 0.562476 -0.125981
C94   C     C_R   0.656387 0.934473 0.560523 -0.122923
C95   C     C_R   0.330085 0.062940 0.487566 -0.104832
C96   C     C_R   0.818197 0.499678 0.443478 -0.283629
C97   C     C_R   0.188768 0.499967 0.518393 -0.307660
C98   C     C_R   0.316345 0.000400 0.459205 -0.290377
C99   C     C_R   0.680732 0.999934 0.559650 -0.274913
C100  C     C_R   0.418975 0.872817 0.460427 -0.135653
C101  C     C_R   0.294000 0.723020 0.326699 0.873969
C102  C     C_R   0.568759 0.128788 0.595066 -0.145773
C103  C     C_R   0.730719 0.286680 0.944954 0.021928
C104  C     C_R   0.270252 0.714821 0.053644 0.026579
C105  C     C_R   0.281601 0.261584 0.043337 0.024363
C106  C     C_R   0.730676 0.713388 0.944955 0.022811
C107  C     C_R   0.209836 0.745314 0.963507 0.026023
C108  C     C_R   0.790881 0.255677 0.035454 0.022537
C109  C     C_R   0.790879 0.744230 0.035437 0.022832
C110  C     C_R   0.217737 0.239538 0.957153 0.023037
C111  C     C_R   0.785537 0.262599 0.895589 0.046623
C112  C     C_R   0.298782 0.266836 0.323038 0.885510
C113  C     C_R   0.215493 0.739160 0.102880 0.032638
C114  C     C_R   0.231930 0.222899 0.087686 0.036407
C115  C     C_R   0.785559 0.737300 0.895559 0.046348
C116  C     C_R   0.261196 0.710773 0.917672 0.046535
C117  C     C_R   0.739571 0.290246 0.081203 0.048546
C118  C     C_R   0.739475 0.709826 0.081226 0.045100
C119  C     C_R   0.267364 0.278313 0.912850 0.036381
C120  C     C_R   0.814312 0.241873 0.942153 0.047390
C121  C     C_R   0.186517 0.759386 0.056638 0.039877
C122  C     C_R   0.198748 0.214761 0.046159 0.041230
C123  C     C_R   0.706389 0.722282 0.672833 0.893846
C124  C     C_R   0.814372 0.757950 0.942112 0.047730
C125  C     C_R   0.293597 0.702138 0.960346 0.045133
C126  C     C_R   0.707265 0.298950 0.038404 0.046280
C127  C     C_R   0.707163 0.701221 0.038431 0.043576
C128  C     C_R   0.300553 0.286432 0.954363 0.039314
C129  C     C_R   0.644975 0.324303 0.949237 0.074298
C130  C     C_R   0.355758 0.676550 0.049803 0.072990
C131  C     C_R   0.361736 0.314863 0.044594 0.063095
C132  C     C_R   0.644871 0.675952 0.949276 0.072432
C133  C     C_R   0.133359 0.806727 0.958268 0.063796
C134  C     C_R   0.201014 0.766471 0.676906 0.905942
C135  C     C_R   0.867007 0.193655 0.041165 0.069385
C136  C     C_R   0.867093 0.806139 0.041125 0.069622
C137  C     C_R   0.137821 0.185782 0.955653 0.064214
C138  C     C_R   0.616858 0.345046 0.901429 -0.139536
C139  C     C_R   0.383630 0.655555 0.097971 -0.139709
C140  C     C_R   0.386820 0.340019 0.095508 -0.136404
C141  C     C_R   0.616757 0.655136 0.901493 -0.138772
C142  C     C_R   0.111356 0.837407 0.905304 -0.136869
C143  C     C_R   0.888822 0.162786 0.094383 -0.140121
C144  C     C_R   0.888896 0.837088 0.094336 -0.139740
C145  C     C_R   0.798998 0.233517 0.323016 0.889775
C146  C     C_R   0.112941 0.160273 0.904596 -0.136096
C147  C     C_R   0.637256 0.326034 0.813014 -0.297540
C148  C     C_R   0.363247 0.674796 0.186352 -0.298578
C149  C     C_R   0.367493 0.317983 0.183112 -0.301742
C150  C     C_R   0.637165 0.674087 0.813063 -0.301183
C151  C     C_R   0.132069 0.817674 0.816546 -0.298601
C152  C     C_R   0.868024 0.182455 0.183209 -0.294690
C153  C     C_R   0.868087 0.817467 0.183173 -0.295251
C154  C     C_R   0.132345 0.182182 0.816912 -0.301360
C155  C     C_R   0.689114 0.298573 0.765206 -0.116274
C156  C     C_R   0.799002 0.766473 0.322999 0.886542
C157  C     C_R   0.311569 0.702840 0.233885 -0.110432
C158  C     C_R   0.321678 0.275117 0.225371 -0.116483
C159  C     C_R   0.689070 0.701477 0.765219 -0.114249
C160  C     C_R   0.177020 0.773171 0.774875 -0.125307
C161  C     C_R   0.823084 0.226955 0.224876 -0.124234
C162  C     C_R   0.823083 0.773003 0.224870 -0.123518
C163  C     C_R   0.178085 0.225213 0.774717 -0.118672
C164  C     C_R   0.723049 0.291195 0.806580 0.063517
C165  C     C_R   0.277935 0.710895 0.192005 0.055328
C166  C     C_R   0.294465 0.250437 0.176704 0.059483
C167  C     C_R   0.201158 0.233272 0.676977 0.888713
C168  C     C_R   0.723016 0.708844 0.806578 0.063281
C169  C     C_R   0.202224 0.744783 0.824874 0.068663
C170  C     C_R   0.798077 0.255564 0.174627 0.071955
C171  C     C_R   0.798024 0.744401 0.174646 0.068850
C172  C     C_R   0.205081 0.250256 0.823559 0.058090
C173  C     C_R   0.690698 0.129639 0.537080 0.903969
C174  C     C_R   0.308460 0.871046 0.467530 0.902661
C175  C     C_R   0.303360 0.127999 0.483075 0.897415
C176  C     C_R   0.691236 0.870505 0.535623 0.905976
C177  C     C_R   0.196076 0.628242 0.517138 0.878071
C178  C     C_R   0.925481 0.499528 0.413830 0.078655
C179  C     C_R   0.809092 0.370246 0.463200 0.867789
C180  C     C_R   0.808990 0.629465 0.463605 0.863229
C181  C     C_R   0.197466 0.371679 0.513359 0.899452
C182  C     C_R   0.699463 0.299985 0.900416 0.075670
C183  C     C_R   0.301467 0.701517 0.098296 0.075454
C184  C     C_R   0.312547 0.275683 0.088324 0.073511
C185  C     C_R   0.699405 0.700147 0.900428 0.075848
C186  C     C_R   0.181771 0.765622 0.915536 0.076427
C187  C     C_R   0.818712 0.234981 0.083743 0.076303
C188  C     C_R   0.818729 0.764891 0.083727 0.076078
F1    F     F_    0.082757 0.240467 0.392680 -0.650367
F2    F     F_    0.985546 0.760761 0.389180 -0.644847
F3    F     F_    0.990637 0.239516 0.377618 -0.644783
F4    F     F_    0.073929 0.761449 0.413726 -0.659974
F5    F     F_    0.540637 0.737872 0.529878 -0.640837
F6    F     F_    0.407904 0.248720 0.623076 -0.652419
F7    F     F_    0.468132 0.741281 0.467038 -0.641866
F8    F     F_    0.500865 0.252791 0.635982 -0.647321
H1    H     H_    0.775628 0.499719 0.460332 0.199242
H2    H     H_    0.351097 0.167542 0.587191 0.223405
H3    H     H_    0.416078 0.826113 0.424829 0.217674
H4    H     H_    0.581128 0.178843 0.612808 0.215971
H5    H     H_    0.613432 0.336572 0.779601 0.199033
H6    H     H_    0.386854 0.663825 0.220034 0.195265
H7    H     H_    0.386708 0.338118 0.220830 0.194590
H8    H     H_    0.613328 0.663512 0.779658 0.194829
H9    H     H_    0.114777 0.841027 0.777521 0.195763
H10   H     H_    0.885220 0.158999 0.222323 0.201657
H11   H     H_    0.885310 0.840954 0.222277 0.201195
H12   H     H_    0.216221 0.499839 0.546471 0.191322
H13   H     H_    0.113284 0.161783 0.779075 0.194659
H14   H     H_    0.577644 0.336927 0.085644 0.166414
H15   H     H_    0.423021 0.662998 0.913481 0.168892
H16   H     H_    0.426062 0.342519 0.909082 0.184068
H17   H     H_    0.577461 0.663534 0.085640 0.169254
H18   H     H_    0.068053 0.836379 0.091721 0.180042
H19   H     H_    0.932224 0.163530 0.907795 0.171274
H20   H     H_    0.932432 0.836103 0.907791 0.171425
H21   H     H_    0.073426 0.158023 0.091043 0.182869
H22   H     H_    0.630134 0.320045 0.159427 0.150131
H23   H     H_    0.284129 0.001014 0.441279 0.193795
H24   H     H_    0.370634 0.680193 0.839491 0.157480
H25   H     H_    0.373837 0.325012 0.836464 0.186758
H26   H     H_    0.629951 0.680442 0.159490 0.160270
H27   H     H_    0.113629 0.803975 0.171129 0.175338
H28   H     H_    0.886943 0.196919 0.827901 0.147602
H29   H     H_    0.887141 0.802687 0.827820 0.148759
H30   H     H_    0.125440 0.176117 0.163991 0.182092
H31   H     H_    0.802748 0.281487 0.685719 0.185824
H32   H     H_    0.198511 0.723384 0.311823 0.185307
H33   H     H_    0.240695 0.166477 0.268455 0.189256
H34   H     H_    0.722042 0.000160 0.549282 0.199284
H35   H     H_    0.802717 0.718426 0.685690 0.186550
H36   H     H_    0.258141 0.663876 0.729586 0.184302
H37   H     H_    0.741999 0.336144 0.270176 0.181308
H38   H     H_    0.741709 0.663990 0.270298 0.183146
H39   H     H_    0.258727 0.334236 0.731735 0.185981
H40   H     H_    0.852674 0.251382 0.758624 0.149154
H41   H     H_    0.148665 0.751678 0.239606 0.189628
H42   H     H_    0.186050 0.150715 0.201049 0.168958
H43   H     H_    0.852730 0.748359 0.758579 0.150759
H44   H     H_    0.311567 0.646275 0.799153 0.153818
H45   H     H_    0.143042 0.320395 0.420144 0.229634
H46   H     H_    0.689042 0.354506 0.199884 0.148290
H47   H     H_    0.688739 0.645746 0.199992 0.153341
H48   H     H_    0.313186 0.350543 0.799502 0.164237
H49   H     H_    0.916140 0.680785 0.386539 0.220560
H50   H     H_    0.916693 0.318081 0.386140 0.219902
H51   H     H_    0.132048 0.683146 0.440858 0.226668
H52   H     H_    0.584789 0.816736 0.594109 0.219448
O1    O     O_R   0.746490 0.236330 0.638080 -0.641683
O2    O     O_R   0.325830 0.813840 0.483730 -0.625613
O3    O     O_R   0.325830 0.186160 0.483730 -0.633139
O4    O     O_R   0.674170 0.813840 0.516270 -0.620262
O5    O     O_R   0.174170 0.686160 0.516270 -0.652894
O6    O     O_R   0.825830 0.313840 0.483730 -0.642911
O7    O     O_R   0.825830 0.686160 0.483730 -0.641023
O8    O     O_R   0.174170 0.313840 0.516270 -0.639118
O9    O     O_R   0.739960 0.127620 0.525000 -0.616853
O10   O     O_R   0.260040 0.872380 0.475000 -0.613475
O11   O     O_R   0.260040 0.127620 0.475000 -0.629455
O12   O     O_R   0.253510 0.763670 0.361920 -0.644170
O13   O     O_R   0.739960 0.872380 0.525000 -0.619741
O14   O     O_R   0.239960 0.627620 0.525000 -0.632127
O15   O     O_R   0.760040 0.372380 0.475000 -0.634966
O16   O     O_R   0.760040 0.627620 0.475000 -0.634070
O17   O     O_R   0.239960 0.372380 0.525000 -0.629376
O18   O     O_R   0.680700 0.294870 0.629350 -0.620618
O19   O     O_R   0.319300 0.705130 0.370650 -0.622181
O20   O     O_R   0.319300 0.294870 0.370650 -0.618417
O21   O     O_R   0.680700 0.705130 0.629350 -0.622723
O22   O     O_R   0.180700 0.794870 0.629350 -0.613261
O23   O     O_R   0.253510 0.236330 0.361920 -0.648806
O24   O     O_R   0.819300 0.205130 0.370650 -0.613829
O25   O     O_R   0.819300 0.794870 0.370650 -0.614857
O26   O     O_R   0.180700 0.205130 0.629350 -0.616780
O27   O     O_R   0.062020 0.072840 0.007170 -0.623049
O28   O     O_R   0.937980 0.927160 0.992830 -0.623283
O29   O     O_R   0.937980 0.072840 0.992830 -0.623681
O30   O     O_R   0.062020 0.927160 0.007170 -0.620912
O31   O     O_R   0.562020 0.572840 0.007170 -0.622086
O32   O     O_R   0.437980 0.427160 0.992830 -0.624802
O33   O     O_R   0.437980 0.572840 0.992830 -0.622148
O34   O     O_R   0.746490 0.763670 0.638080 -0.641217
O35   O     O_R   0.562020 0.427160 0.007170 -0.623409
O36   O     O_R   0.947860 0.073950 0.109290 -0.611253
O37   O     O_R   0.052140 0.926050 0.890710 -0.619347
O38   O     O_R   0.052140 0.073950 0.890710 -0.619733
O39   O     O_R   0.947860 0.926050 0.109290 -0.612690
O40   O     O_R   0.447860 0.573950 0.109290 -0.613691
O41   O     O_R   0.552140 0.426050 0.890710 -0.609627
O42   O     O_R   0.552140 0.573950 0.890710 -0.612689
O43   O     O_R   0.447860 0.426050 0.109290 -0.617715
O44   O     O_R   0.246490 0.736330 0.638080 -0.637426
O45   O     O_R   0.753510 0.263670 0.361920 -0.641949
O46   O     O_R   0.753510 0.736330 0.361920 -0.637053
O47   O     O_R   0.246490 0.263670 0.638080 -0.644275
O48   O     O_R   0.674170 0.186160 0.516270 -0.623832
Zn1   Zn    Zn3+2 0.792340 0.208750 0.507670 0.998667
Zn2   Zn    Zn3+2 0.494040 0.500000 0.919480 0.969321
Zn3   Zn    Zn3+2 0.005960 1.000000 0.080520 0.980750
Zn4   Zn    Zn3+2 0.994040 0.000000 0.919480 0.949572
Zn5   Zn    Zn3+2 0.207660 0.791250 0.492330 1.003667
Zn6   Zn    Zn3+2 0.207660 0.208750 0.492330 0.995529
Zn7   Zn    Zn3+2 0.792340 0.791250 0.507670 1.003140
Zn8   Zn    Zn3+2 0.292340 0.708750 0.507670 1.002348
Zn9   Zn    Zn3+2 0.707660 0.291250 0.492330 0.986194
Zn10  Zn    Zn3+2 0.707660 0.708750 0.492330 1.008851
Zn11  Zn    Zn3+2 0.292340 0.291250 0.507670 0.995939
Zn12  Zn    Zn3+2 0.505960 0.500000 0.080520 0.955567

loop_
_geom_bond_atom_site_label_1
_geom_bond_atom_site_label_2
_ccdc_geom_bond_type
O32   Zn2   S    
C108  C120  A    
C16   H26   S    
O17   Zn11  S    
O5    Zn5   S    
C88   C177  S    
O13   Zn7   S    
O14   Zn8   S    
C50   C59   A    
C41   C143  S    
C8    H18   S    
C52   C61   A    
C180  O16   A    
C12   C126  A    
C54   C63   A    
C40   O28   A    
C58   C60   A    
C43   O42   A    
C58   F7    S    
C45   C139  S    
C61   C63   A    
C103  C126  A    
C95   C175  S    
C62   C64   A    
C131  C140  A    
C91   C96   A    
C179  O6    A    
C179  O15   A    
C50   C90   A    
C162  C171  A    
C170  C187  A    
C70   C74   A    
C4    C12   A    
C34   H44   S    
C24   C85   A    
C112  O20   A    
O8    Zn6   S    
C88   C97   A    
C119  C128  A    
C68   H51   S    
C49   C69   A    
C14   H24   S    
O26   Zn6   S    
C12   H22   S    
O27   Zn3   S    
C109  C118  A    
C21   H31   S    
C173  O48   A    
C11   C20   A    
C150  C159  A    
C165  C183  A    
C137  C146  A    
C166  C184  A    
O15   Zn9   S    
C86   C90   A    
C71   C73   A    
C106  C127  A    
C82   C91   A    
C51   C66   A    
C89   C181  S    
C142  C151  A    
C173  O9    A    
C52   C72   A    
C131  C184  A    
C105  C114  A    
C54   C70   A    
C82   C178  A    
C36   C117  A    
C7    C132  A    
C112  C158  S    
C38   C119  A    
C5    C130  A    
C83   C100  A    
C47   O41   A    
C79   C85   A    
C66   C77   A    
C40   O39   A    
C57   C78   A    
O33   Zn2   S    
C176  O4    A    
O46   Zn10  S    
O36   Zn3   S    
C8    C17   A    
C56   C59   A    
C106  C115  A    
C80   C88   A    
O6    Zn1   S    
C23   C32   A    
C145  C161  S    
O2    Zn8   S    
C93   C173  S    
C84   C93   A    
C48   C67   A    
O7    Zn7   S    
C86   C95   A    
C24   C77   A    
C104  C183  A    
C43   O31   A    
O3    Zn11  S    
O43   Zn12  S    
C2    C81   A    
C55   C71   A    
C2    C75   A    
C28   H38   S    
C78   C87   A    
C134  C160  S    
C84   C102  A    
C67   C77   A    
C148  H6    S    
C9    H19   S    
C133  C142  A    
C45   O40   A    
C123  C159  S    
C33   H43   S    
C152  H10   S    
C130  C183  A    
C1    O1    A    
C22   H32   S    
C3    C110  A    
C20   H30   S    
C69   C76   A    
C85   C94   A    
C29   H39   S    
C46   C82   A    
C29   C38   A    
C149  C158  A    
C20   C122  A    
C152  C161  A    
C135  C143  A    
C105  C184  A    
C153  H11   S    
C136  C188  A    
C72   C75   A    
C112  O23   A    
C135  C187  A    
C180  O7    A    
C141  C150  A    
O22   Zn5   S    
C25   C168  A    
C139  C148  A    
C104  C125  A    
C147  H5    S    
C157  C165  A    
C92   C174  S    
C17   H27   S    
C181  O8    A    
C175  O3    A    
C91   C180  S    
C151  H9    S    
C23   H33   S    
C47   O35   A    
C9    C135  A    
C35   H45   S    
C116  C125  A    
O37   Zn4   S    
C118  C127  A    
O20   Zn11  S    
C147  C155  A    
O35   Zn12  S    
C117  C126  A    
C39   O27   A    
C132  C141  A    
C11   H21   S    
C59   F6    S    
C108  C117  A    
C57   H50   S    
C110  C119  A    
C174  O10   A    
C62   F3    S    
C134  O22   A    
C63   F2    S    
C36   H46   S    
C19   H29   S    
C10   H20   S    
C44   O32   A    
C28   C37   A    
C47   C138  S    
C148  C157  A    
C97   H12   S    
C149  H7    S    
C50   C65   A    
C51   C79   A    
C107  C116  A    
C41   O29   A    
C104  C113  A    
C9    C18   A    
C113  C121  A    
C51   C60   A    
C30   H40   S    
C140  C149  A    
C31   C113  A    
C25   C33   A    
O47   Zn11  S    
C129  C182  A    
C37   H47   S    
C44   O43   A    
C73   C74   A    
O42   Zn2   S    
C150  H8    S    
C41   O36   A    
C64   F1    S    
C107  C186  A    
C65   C76   A    
O39   Zn3   S    
C171  C188  A    
C145  O24   A    
C134  O44   A    
C169  C186  A    
C42   O30   A    
C151  C160  A    
C3    C172  A    
O48   Zn9   S    
C103  C111  A    
C56   F8    S    
C1    O18   A    
C65   C67   A    
C160  C169  A    
C3    C137  A    
C18   H28   S    
C93   C99   A    
C81   C89   A    
C123  O21   A    
C8    C133  A    
C101  C157  S    
C44   C140  S    
C21   C164  A    
C98   H23   S    
O19   Zn8   S    
C130  C139  A    
C167  O26   A    
O28   Zn4   S    
O12   Zn5   S    
C5    H15   S    
C33   C115  A    
C53   C57   A    
C132  C185  A    
C177  O14   A    
C102  H4    S    
O29   Zn4   S    
O30   Zn3   S    
C10   C19   A    
C48   C102  A    
C46   C54   A    
C27   C170  A    
C5    C14   A    
O34   Zn7   S    
C181  O17   A    
C17   C121  A    
C143  C152  A    
C15   C128  A    
C43   C141  S    
C107  C121  A    
O16   Zn10  S    
C158  C166  A    
C25   H35   S    
C115  C124  A    
C39   O38   A    
C78   C178  A    
C106  C185  A    
C6    C131  A    
C123  O34   A    
C4    C129  A    
C27   C36   A    
C38   H48   S    
C21   C30   A    
C13   C83   A    
O11   Zn6   S    
O4    Zn10  S    
C156  O46   A    
C153  C162  A    
C60   F5    S    
C11   C137  A    
C136  C144  A    
C110  C122  A    
O31   Zn12  S    
C32   H42   S    
C39   C146  S    
C42   O37   A    
C164  C182  A    
O21   Zn10  S    
C176  O13   A    
O23   Zn6   S    
O18   Zn9   S    
C94   C176  S    
C68   C80   A    
O1    Zn1   S    
C74   C178  A    
C103  C182  A    
C108  C187  A    
C35   C81   A    
C95   C98   A    
C92   C98   A    
C83   C92   A    
C14   C125  A    
O41   Zn2   S    
C10   C136  A    
C154  H13   S    
C66   C69   A    
C6    H16   S    
C34   C116  A    
C101  O12   A    
C4    H14   S    
C159  C168  A    
C144  C153  A    
C1    C155  S    
C6    C15   A    
C22   C165  A    
C26   C34   A    
O40   Zn12  S    
C129  C138  A    
C26   C169  A    
C146  C154  A    
C13   C86   A    
C42   C142  S    
C61   F4    S    
C52   C68   A    
C31   H41   S    
C156  C162  S    
O38   Zn4   S    
C16   C127  A    
C109  C188  A    
C167  O47   A    
C96   H1    S    
C19   C124  A    
C45   O33   A    
C22   C31   A    
C37   C118  A    
C35   C55   A    
C154  C163  A    
C174  O2    A    
C26   H36   S    
C49   C58   A    
C89   C97   A    
C111  C120  A    
C15   H25   S    
C163  C167  S    
C163  C172  A    
C23   C166  A    
O45   Zn9   S    
C53   C62   A    
C28   C171  A    
C13   C76   A    
C138  C147  A    
C87   C96   A    
C156  O25   A    
C7    H17   S    
C133  C186  A    
C161  C170  A    
C40   C144  S    
C18   C120  A    
C99   H34   S    
O9    Zn1   S    
C48   C56   A    
C7    C16   A    
C168  C185  A    
C105  C128  A    
O10   Zn5   S    
C53   C73   A    
O25   Zn7   S    
C46   H49   S    
C109  C124  A    
C90   H2    S    
C55   C64   A    
C155  C164  A    
C177  O5    A    
C30   C111  A    
C79   H52   S    
C24   C84   A    
C145  O45   A    
C49   C100  A    
C71   C75   A    
C94   C99   A    
O44   Zn8   S    
C29   C172  A    
C101  O19   A    
C2    C80   A    
C27   H37   S    
C87   C179  S    
C114  C122  A    
C100  H3    S    
C70   C72   A    
C32   C114  A    
O24   Zn1   S    
C175  O11   A    
