data_mof_unit_40857.cif
_audit_creation_date              2012-12-11T16:04:40-0500
_audit_creation_method            fapswitch 2.2
_symmetry_space_group_name_H-M    P1
_symmetry_Int_Tables_number       1
_space_group_crystal_system       triclinic
_cell_length_a                    19.874871
_cell_length_b                    20.096612
_cell_length_c                    20.096423
_cell_angle_alpha                 107.128304
_cell_angle_beta                  110.91673
_cell_angle_gamma                 110.147223
_cell_volume                      6190.27350589

loop_
_atom_site_label
_atom_site_type_symbol
_atom_type_description
_atom_site_fract_x
_atom_site_fract_y
_atom_site_fract_z
_atom_type_partial_charge
C1    C     C_R   0.071984 0.340173 0.062756 -0.137091
C2    C     C_R   0.070010 0.495296 0.225185 -0.184320
C3    C     C_R   0.525213 0.826591 0.471858 0.150052
C4    C     C_R   0.497225 0.770296 0.392705 -0.100724
C5    C     C_R   0.503715 0.700974 0.378215 -0.120408
C6    C     C_R   0.535638 0.684889 0.441701 -0.086476
C7    C     C_R   0.560903 0.738023 0.519883 -0.105870
C8    C     C_R   0.555538 0.807904 0.534791 -0.176783
C9    C     C_3   0.076682 0.053866 0.966555 -0.432748
C10   C     C_3   0.107479 0.125639 0.949560 -0.288292
C11   C     C_3   0.083301 0.096675 0.860823 -0.922736
C12   C     C_R   0.868216 0.983065 0.893789 0.144803
C13   C     C_R   0.221568 0.731289 0.161949 -0.167040
C14   C     C_R   0.892446 0.038692 0.865810 -0.145002
C15   C     C_R   0.842974 0.022019 0.786593 -0.138642
C16   C     C_R   0.767664 0.949787 0.733487 -0.090046
C17   C     C_R   0.741072 0.894471 0.759870 -0.111602
C18   C     C_R   0.790283 0.911090 0.839104 -0.156294
C19   C     C_3   0.941182 0.095620 0.151548 -0.417260
C20   C     C_3   0.968408 0.127000 0.241719 -0.253899
C21   C     C_3   0.908554 0.149766 0.259467 -0.956665
C22   C     C_3   0.170822 0.152797 0.116309 -0.408928
C23   C     C_3   0.207316 0.185596 0.208631 -0.292368
C24   C     C_R   0.929987 0.482429 0.766178 -0.160595
C25   C     C_3   0.302160 0.239231 0.255310 -0.958568
C26   C     C_R   0.153505 0.611943 0.859364 0.118321
C27   C     C_R   0.194091 0.591552 0.819051 -0.154996
C28   C     C_R   0.273481 0.649130 0.841703 -0.125471
C29   C     C_R   0.312623 0.727366 0.904324 -0.087305
C30   C     C_R   0.272337 0.748255 0.944268 -0.131948
C31   C     C_R   0.192940 0.690888 0.921824 -0.171921
C32   C     C_R   0.253513 0.640417 0.294349 0.126942
C33   C     C_R   0.290115 0.592656 0.284380 -0.171444
C34   C     C_R   0.321433 0.571373 0.343934 -0.107333
C35   C     C_R   0.802492 0.468810 0.038414 -0.156245
C36   C     C_R   0.317779 0.599026 0.414344 -0.068389
C37   C     C_R   0.282119 0.647412 0.424934 -0.126028
C38   C     C_R   0.249887 0.667920 0.364985 -0.180270
C39   C     C_R   0.260522 0.737385 0.237033 0.052865
C40   C     C_R   0.774086 0.517150 0.017658 0.110990
C41   C     C_R   0.001783 0.449070 0.225824 0.067697
C42   C     C_R   0.999182 0.741329 0.020036 0.113595
C43   C     C_3   0.541487 0.532105 0.015404 -0.147311
C44   C     C_3   0.513201 0.512791 0.072595 -0.132577
C45   C     C_R   0.999530 0.511006 0.759725 0.059030
C46   C     C_1   0.355440 0.560406 0.065564 -0.057154
C47   C     C_1   0.730979 0.547091 0.047930 -0.049476
C48   C     C_3   0.530934 0.606647 0.035020 -0.211409
C49   C     C_R   0.806732 0.265556 0.835002 -0.138171
C50   C     C_3   0.503277 0.587320 0.092377 0.210354
C51   C     C_3   0.621721 0.658917 0.106664 0.054586
C52   C     C_3   0.631885 0.584621 0.086878 0.166901
C53   C     C_3   0.592932 0.640529 0.164695 -0.217400
C54   C     C_3   0.604035 0.565360 0.144273 -0.165855
C55   C     C_1   0.425029 0.577374 0.083197 -0.079752
C56   C     C_R   0.785012 0.259552 0.759424 0.106835
C57   C     C_1   0.690586 0.568523 0.070093 -0.094964
C58   C     C_3   0.912809 0.386592 0.476230 0.006892
C59   C     C_3   0.072305 0.449988 0.557960 -0.406869
C60   C     C_3   0.076808 0.436712 0.480258 -0.403776
C61   C     C_R   0.228486 0.566794 0.999913 -0.137978
C62   C     C_1   0.004759 0.431999 0.289085 -0.043479
C63   C     C_3   0.997212 0.462261 0.550392 0.378813
C64   C     C_3   0.920443 0.368026 0.399171 -0.489238
C65   C     C_3   0.002812 0.436349 0.418723 0.420702
C66   C     C_3   0.008012 0.518702 0.456108 -0.399533
C67   C     C_R   0.270996 0.535846 0.038938 0.100042
C68   C     C_3   0.009019 0.535836 0.536064 -0.457427
C69   C     C_1   0.005260 0.427114 0.346383 -0.132467
C70   C     C_1   0.997150 0.480803 0.624868 -0.129996
C71   C     C_1   0.998075 0.496506 0.686748 -0.039176
C72   C     C_3   0.522757 0.905537 0.494795 -0.129200
C73   C     C_R   0.804767 0.334461 0.765099 -0.132069
C74   C     C_3   0.452766 0.990771 0.471440 0.012531
C75   C     C_3   0.537268 0.061022 0.550710 -0.500284
C76   C     C_1   0.736345 0.187326 0.686530 -0.056318
C77   C     C_3   0.476809 0.927818 0.429161 0.194737
C78   C     C_R   0.220654 0.663532 0.232517 0.024446
C79   C     C_3   0.610097 0.979678 0.560350 -0.483478
C80   C     C_3   0.614466 0.055587 0.553875 0.371193
C81   C     C_3   0.616711 0.049988 0.476906 -0.461408
C82   C     C_3   0.537570 0.972160 0.402174 0.019177
C83   C     C_1   0.686618 0.126730 0.625014 -0.086385
C84   C     C_1   0.401513 0.858539 0.358838 -0.148831
C85   C     C_R   0.225292 0.493854 0.064922 -0.148093
C86   C     C_1   0.337594 0.802774 0.302199 -0.042377
C87   C     C_3   0.082936 0.072853 0.051963 0.291635
C88   C     C_3   0.916703 0.996926 0.980872 -0.160576
C89   C     C_R   0.795523 0.532152 0.963445 -0.135082
C90   C     C_3   0.925761 0.923376 0.980078 -0.483091
C91   C     C_1   0.998854 0.813893 0.045026 -0.061163
C92   C     C_3   0.002755 0.075880 0.052947 0.220834
C93   C     C_3   0.083223 0.000484 0.066704 -0.506641
C94   C     C_3   0.001111 0.948151 0.060793 0.360064
C95   C     C_3   0.996645 0.996786 0.132870 -0.478082
C96   C     C_3   0.004785 0.076902 0.133304 -0.043389
C97   C     C_R   0.069647 0.551840 0.835661 0.023351
C98   C     C_1   0.999396 0.875564 0.058869 -0.082536
C99   C     C_1   0.004539 0.147190 0.051493 -0.124175
C100  C     C_R   0.931584 0.423237 0.154995 0.141089
C101  C     C_1   0.004757 0.203998 0.045698 -0.087403
C102  C     C_R   0.932184 0.270239 0.993875 -0.150458
C103  C     C_R   0.003130 0.267350 0.031775 0.103756
C104  C     C_3   0.846506 0.351204 0.117869 -0.459026
C105  C     C_3   0.850417 0.278722 0.126385 -0.226174
C106  C     C_3   0.766932 0.200665 0.067195 -0.955595
C107  C     C_R   0.680145 0.742682 0.126778 0.128849
C108  C     C_R   0.652232 0.798259 0.129226 -0.165470
C109  C     C_R   0.705434 0.876511 0.147986 -0.108046
C110  C     C_R   0.786888 0.899847 0.164632 -0.106727
C111  C     C_R   0.069323 0.734825 0.038495 -0.154436
C112  C     C_R   0.815435 0.845204 0.162980 -0.117556
C113  C     C_R   0.762445 0.766929 0.144330 -0.148417
C114  C     C_3   0.883063 0.310903 0.488594 -0.403495
C115  C     C_3   0.820291 0.304332 0.517675 -0.276796
C116  C     C_3   0.801242 0.237030 0.540618 -0.930255
C117  C     C_R   0.411688 0.019411 0.411887 0.124774
C118  C     C_R   0.326206 0.968785 0.350727 -0.128104
C119  C     C_R   0.286809 0.990971 0.295653 -0.132668
C120  C     C_R   0.331199 0.064403 0.300034 -0.097759
C121  C     C_R   0.415096 0.115848 0.359596 -0.108918
C122  C     C_R   0.929888 0.666300 0.965162 -0.133446
C123  C     C_R   0.455126 0.094053 0.414947 -0.184942
C124  C     C_R   0.390419 0.961411 0.500689 0.119207
C125  C     C_R   0.346228 0.881412 0.485968 -0.195362
C126  C     C_R   0.291587 0.860967 0.514605 -0.109332
C127  C     C_R   0.278095 0.918840 0.556762 -0.084273
C128  C     C_R   0.319283 0.997577 0.570627 -0.118728
C129  C     C_R   0.374503 0.018636 0.542925 -0.136111
C130  C     C_3   0.555356 0.921794 0.341944 -0.404187
C131  C     C_3   0.629177 0.908411 0.378071 -0.213430
C132  C     C_3   0.624739 0.841380 0.312987 -0.954207
H1    H     H_    0.136232 0.360373 0.103905 0.094442
H2    H     H_    0.635103 0.548415 0.188939 0.117077
H3    H     H_    0.844283 0.097034 0.222604 0.260237
H4    H     H_    0.928932 0.170660 0.324572 0.248138
H5    H     H_    0.970825 0.080120 0.259489 0.197476
H6    H     H_    0.031708 0.181410 0.279402 0.191176
H7    H     H_    0.935253 0.142408 0.135445 0.206135
H8    H     H_    0.878093 0.041252 0.115489 0.185926
H9    H     H_    0.331444 0.204063 0.238665 0.256690
H10   H     H_    0.320010 0.290356 0.241896 0.262882
H11   H     H_    0.326267 0.263800 0.321391 0.253395
H12   H     H_    0.183103 0.224576 0.229742 0.194991
H13   H     H_    0.866367 0.456663 0.719372 0.097688
H14   H     H_    0.192395 0.137250 0.225868 0.195091
H15   H     H_    0.217387 0.142530 0.103273 0.200118
H16   H     H_    0.170418 0.203630 0.105178 0.177510
H17   H     H_    0.164949 0.530971 0.771005 0.112425
H18   H     H_    0.304747 0.633031 0.810826 0.104494
H19   H     H_    0.374141 0.771803 0.921862 0.098863
H20   H     H_    0.302644 0.808880 0.992673 0.107563
H21   H     H_    0.162441 0.707959 0.953175 0.116560
H22   H     H_    0.295674 0.573205 0.231524 0.107148
H23   H     H_    0.349583 0.534385 0.336000 0.102056
H24   H     H_    0.612646 0.684822 0.225915 0.130206
H25   H     H_    0.342648 0.583050 0.460675 0.093655
H26   H     H_    0.278935 0.668541 0.479263 0.103303
H27   H     H_    0.220593 0.703802 0.372555 0.115202
H28   H     H_    0.499893 0.623476 0.990178 0.119384
H29   H     H_    0.919667 0.310012 0.376148 0.165452
H30   H     H_    0.131582 0.503951 0.610839 0.158554
H31   H     H_    0.067275 0.397910 0.568904 0.149414
H32   H     H_    0.074885 0.378528 0.453926 0.157151
H33   H     H_    0.136843 0.485653 0.495401 0.156949
H34   H     H_    0.958537 0.549202 0.533791 0.155932
H35   H     H_    0.775029 0.561635 0.930631 0.092865
H36   H     H_    0.795562 0.216950 0.849939 0.103196
H37   H     H_    0.069356 0.590409 0.586703 0.176716
H38   H     H_    0.953592 0.518490 0.413233 0.158439
H39   H     H_    0.863715 0.403789 0.465620 0.114909
H40   H     H_    0.866078 0.362102 0.349871 0.149629
H41   H     H_    0.065415 0.568215 0.467472 0.160709
H42   H     H_    0.621916 0.987830 0.621551 0.152004
H43   H     H_    0.489442 0.899739 0.528312 0.126519
H44   H     H_    0.536927 0.058020 0.605193 0.168151
H45   H     H_    0.255415 0.613691 0.986377 0.131529
H46   H     H_    0.133250 0.783347 0.075694 0.099105
H47   H     H_    0.545619 0.121511 0.562255 0.151235
H48   H     H_    0.503899 0.993268 0.364314 0.119190
H49   H     H_    0.675184 0.052060 0.483501 0.164192
H50   H     H_    0.660083 0.970799 0.553907 0.162083
H51   H     H_    0.619842 0.103768 0.470418 0.146926
H52   H     H_    0.092622 0.961222 0.022975 0.149598
H53   H     H_    0.869965 0.994896 0.999167 0.134108
H54   H     H_    0.789439 0.347736 0.715374 0.098277
H55   H     H_    0.933654 0.895525 0.928673 0.171468
H56   H     H_    0.867651 0.876751 0.970685 0.155756
H57   H     H_    0.867041 0.653719 0.932068 0.092486
H58   H     H_    0.065250 0.125667 0.185217 0.132592
H59   H     H_    0.047580 0.010374 0.190934 0.146629
H60   H     H_    0.136288 0.020571 0.126217 0.160578
H61   H     H_    0.936615 0.959553 0.127312 0.170859
H62   H     H_    0.245887 0.471170 0.106081 0.089451
H63   H     H_    0.869114 0.226520 0.973036 0.110894
H64   H     H_    0.717368 0.206002 0.077675 0.266175
H65   H     H_    0.749693 0.186752 0.003743 0.258542
H66   H     H_    0.771711 0.150206 0.076291 0.253245
H67   H     H_    0.899109 0.271417 0.115722 0.202363
H68   H     H_    0.132508 0.510277 0.264141 0.145640
H69   H     H_    0.866414 0.288601 0.188635 0.197532
H70   H     H_    0.813279 0.369107 0.147354 0.173806
H71   H     H_    0.810516 0.332643 0.052446 0.199513
H72   H     H_    0.589197 0.780896 0.116428 0.109701
H73   H     H_    0.683530 0.919054 0.149655 0.103526
H74   H     H_    0.827941 0.960274 0.179104 0.112026
H75   H     H_    0.878784 0.863565 0.176529 0.107120
H76   H     H_    0.786460 0.726267 0.144676 0.116960
H77   H     H_    0.774742 0.178265 0.487768 0.256463
H78   H     H_    0.858818 0.249348 0.591374 0.268261
H79   H     H_    0.245013 0.774359 0.142547 0.105008
H80   H     H_    0.755277 0.233700 0.560442 0.249292
H81   H     H_    0.844500 0.361534 0.571029 0.205258
H82   H     H_    0.761294 0.291719 0.468494 0.188099
H83   H     H_    0.851196 0.254857 0.430596 0.191189
H84   H     H_    0.936945 0.311466 0.532182 0.195893
H85   H     H_    0.288828 0.911820 0.345865 0.126892
H86   H     H_    0.221511 0.951075 0.249558 0.111294
H87   H     H_    0.300511 0.081328 0.257168 0.108648
H88   H     H_    0.449567 0.172830 0.362677 0.106014
H89   H     H_    0.520375 0.135899 0.457975 0.108623
H90   H     H_    0.795117 0.446676 0.079474 0.104260
H91   H     H_    0.353436 0.833838 0.453560 0.131893
H92   H     H_    0.259507 0.799915 0.504185 0.100495
H93   H     H_    0.235548 0.902587 0.578540 0.098240
H94   H     H_    0.308521 0.042542 0.602987 0.106172
H95   H     H_    0.405270 0.080355 0.554477 0.113049
H96   H     H_    0.566756 0.783390 0.285461 0.257057
H97   H     H_    0.626172 0.857140 0.264825 0.266506
H98   H     H_    0.679066 0.833698 0.340344 0.253842
H99   H     H_    0.688901 0.963997 0.403774 0.182177
H100  H     H_    0.631471 0.893528 0.427104 0.210037
H101  H     H_    0.467308 0.452391 0.058333 0.109967
H102  H     H_    0.497420 0.863928 0.294605 0.188008
H103  H     H_    0.569647 0.954160 0.308015 0.170851
H104  H     H_    0.471748 0.778721 0.341277 0.126077
H105  H     H_    0.483151 0.659198 0.317272 0.104197
H106  H     H_    0.539913 0.630812 0.430129 0.093321
H107  H     H_    0.584651 0.725070 0.569078 0.098176
H108  H     H_    0.574957 0.847683 0.596035 0.104913
H109  H     H_    0.111461 0.060010 0.844720 0.259883
H110  H     H_    0.014621 0.059779 0.820338 0.266140
H111  H     H_    0.106586 0.149482 0.850877 0.250275
H112  H     H_    0.520508 0.487238 0.953812 0.117890
H113  H     H_    0.083835 0.166396 0.966134 0.203111
H114  H     H_    0.176646 0.162308 0.986309 0.192414
H115  H     H_    0.117007 0.028068 0.961168 0.177888
H116  H     H_    0.013614 0.005520 0.916262 0.208306
H117  H     H_    0.949074 0.094954 0.902987 0.145048
H118  H     H_    0.863297 0.065427 0.766378 0.118042
H119  H     H_    0.729897 0.937007 0.672134 0.103049
H120  H     H_    0.682007 0.838737 0.719108 0.098776
H121  H     H_    0.766747 0.867359 0.857843 0.104537
H122  H     H_    0.908312 0.199333 0.245682 0.262006
N1    N     N_R   0.043550 0.386750 0.043430 -0.038287
N2    N     N_R   0.843320 0.343600 0.886740 -0.044319
N3    N     N_R   0.156920 0.543410 0.000250 -0.043676
N4    N     N_R   0.843210 0.386780 0.843560 -0.042227
N5    N     N_R   0.157030 0.500230 0.043430 -0.040961
N6    N     N_R   0.043140 0.543420 0.886740 -0.062436
N7    N     N_R   0.957090 0.343580 0.000250 -0.039422
N8    N     N_R   0.156790 0.613220 0.156440 -0.059021
N9    N     N_R   0.842970 0.499770 0.956570 -0.040633
N10   N     N_R   0.956860 0.456580 0.113260 -0.061005
N11   N     N_R   0.042910 0.656420 0.999750 -0.045795
N12   N     N_R   0.956450 0.613250 0.956570 -0.040997
N13   N     N_R   0.043310 0.499740 0.156440 -0.052008
N14   N     N_R   0.156680 0.656400 0.113260 -0.045514
N15   N     N_R   0.843080 0.456590 0.999750 -0.045892
N16   N     N_R   0.956690 0.500260 0.843560 -0.045770
Ni1   Ni    Ni4+2 0.099270 0.499990 0.099040 0.208598
Ni2   Ni    Ni4+2 0.900730 0.500010 0.900960 0.208651
Ni3   Ni    Ni4+2 0.900990 0.400990 0.000000 0.205426
Ni4   Ni    Ni4+2 0.099010 0.599010 0.000000 0.205376

loop_
_geom_bond_atom_site_label_1
_geom_bond_atom_site_label_2
_ccdc_geom_bond_type
C131  H100  S    
C20   H5    S    
C40   C47   S    
C66   C68   S    
C61   H45   S    
C93   C94   S    
C56   C76   S    
C41   C100  A    
C45   C71   S    
C117  C118  A    
C11   H111  S    
C13   H79   S    
C58   H39   S    
C95   C96   S    
C108  H72   S    
C81   H49   S    
C42   C111  A    
C128  C129  A    
C81   C82   S    
C7    C8    A    
C20   C21   S    
C14   H117  S    
N1    Ni1   S    
C53   C54   S    
C28   H18   S    
C48   H28   S    
C42   C122  A    
N3    Ni4   S    
C126  C127  A    
C5    H105  S    
C2    H68   S    
C24   C45   A    
C75   H47   S    
C28   C29   A    
C84   C86   T    
C38   H27   S    
C72   C79   S    
C24   H13   S    
C132  H96   S    
N8    N14   A    
C30   C31   A    
C93   H52   S    
C126  H92   S    
C85   H62   S    
N7    Ni3   S    
C90   H55   S    
C94   C98   S    
C2    C41   A    
C96   H58   S    
C15   C16   A    
C54   H2    S    
C9    C10   S    
C87   C93   S    
C130  H103  S    
C92   C96   S    
C108  C109  A    
C115  H81   S    
C131  C132  S    
C42   C91   S    
C72   H43   S    
C20   H6    S    
C9    H116  S    
C118  C119  A    
C89   H35   S    
C116  H78   S    
C72   C77   S    
C21   H122  S    
C130  C131  S    
N13   Ni1   S    
C48   C51   S    
C107  C113  A    
C88   C92   S    
C19   H8    S    
C74   C77   S    
N2    N4    A    
C46   C55   T    
C111  H46   S    
C107  C108  A    
C66   H41   S    
C70   C71   T    
C89   N9    A    
C61   N3    A    
C40   C89   A    
C82   C130  S    
C29   C30   A    
N4    Ni2   S    
N11   N12   A    
C1    C103  A    
C21   H4    S    
C34   C36   A    
C95   H59   S    
C106  H66   S    
N6    Ni4   S    
C48   C50   S    
N8    Ni1   S    
C9    H115  S    
C59   C60   S    
C101  C103  S    
C87   C92   S    
C102  H63   S    
N6    N16   A    
C78   N8    A    
C79   H42   S    
C25   H11   S    
C41   C62   S    
C35   N15   A    
C80   C83   S    
C1    H1    S    
C76   C83   T    
C104  C105  S    
C31   H21   S    
C16   H119  S    
C52   C54   S    
C90   C94   S    
C8    H108  S    
C18   H121  S    
C58   C64   S    
C23   H14   S    
C25   H9    S    
C67   C85   A    
C50   C53   S    
C121  C123  A    
C74   C75   S    
C12   C88   S    
C51   C52   S    
C104  H71   S    
N1    N7    A    
C111  N11   A    
C49   H36   S    
C82   H48   S    
C3    C8    A    
C10   C11   S    
C35   H90   S    
C29   H19   S    
C127  C128  A    
C49   N2    A    
C73   N4    A    
C16   C17   A    
C106  H64   S    
C77   C84   S    
C100  C104  S    
C34   H23   S    
C130  H102  S    
C128  H94   S    
C62   C69   T    
C24   N16   A    
C51   C53   S    
C104  H70   S    
C37   H26   S    
C64   H40   S    
C2    N13   A    
C43   C44   S    
C113  H76   S    
C37   C38   A    
C114  H84   S    
C119  H86   S    
C6    H106  S    
C68   H37   S    
C61   C67   A    
C105  H69   S    
C63   C70   S    
C105  H67   S    
C43   C48   S    
C97   N6    A    
C129  H95   S    
C118  H85   S    
C17   C18   A    
C26   C27   A    
C102  N7    A    
C94   C95   S    
C110  H74   S    
C10   H113  S    
C22   C87   S    
C85   N5    A    
N3    N5    A    
C109  H73   S    
C36   H25   S    
C53   H24   S    
C106  H65   S    
C10   H114  S    
C51   C107  S    
C88   H53   S    
C99   C101  T    
C22   H16   S    
C60   C65   S    
C125  H91   S    
C32   C38   A    
C73   H54   S    
C125  C126  A    
C11   H109  S    
C121  H88   S    
N16   Ni2   S    
N2    Ni3   S    
C95   H61   S    
C12   C18   A    
C3    C4    A    
C13   N14   A    
C23   H12   S    
C27   C28   A    
N5    Ni1   S    
C120  C121  A    
C122  N12   A    
C122  H57   S    
C58   C114  S    
C4    H104  S    
C93   H60   S    
C131  H99   S    
C58   C63   S    
C74   C117  S    
C63   C68   S    
C36   C37   A    
C88   C90   S    
C56   C73   A    
C75   H44   S    
C33   H22   S    
C26   C31   A    
C114  H83   S    
C66   H38   S    
C22   C23   S    
C100  N10   A    
C60   H33   S    
C112  H75   S    
C30   H20   S    
C80   C81   S    
C116  H77   S    
C132  H98   S    
C119  C120  A    
C132  H97   S    
C114  C115  S    
C6    C7    A    
C15   H118  S    
C43   H112  S    
C49   C56   A    
C105  C106  S    
C17   H120  S    
C59   C63   S    
N10   Ni3   S    
C79   H50   S    
N15   Ni3   S    
C32   C33   A    
C123  H89   S    
C19   C20   S    
C3    C72   S    
C12   C14   A    
C46   C67   S    
C116  H80   S    
C59   H30   S    
N12   Ni2   S    
C44   H101  S    
C9    C87   S    
C50   C55   S    
C25   H10   S    
C64   H29   S    
C5    C6    A    
C90   H56   S    
C77   C82   S    
C7    H107  S    
C120  H87   S    
C65   C69   S    
C4    C5    A    
N10   N13   A    
C64   C65   S    
C60   H32   S    
C33   C34   A    
C124  C129  A    
C35   C40   A    
C112  C113  A    
C23   C25   S    
C91   C98   T    
C117  C123  A    
C102  C103  A    
C43   C52   S    
C110  C112  A    
C13   C39   A    
N9    Ni2   S    
C59   H31   S    
C52   C57   S    
C26   C97   S    
C32   C78   S    
C79   C80   S    
C44   C54   S    
N11   Ni4   S    
N9    N15   A    
C75   C80   S    
C22   H15   S    
C115  H82   S    
C44   C50   S    
C27   H17   S    
C65   C66   S    
N14   Ni4   S    
C47   C57   T    
C127  H93   S    
C11   H110  S    
C81   H51   S    
C14   C15   A    
C45   C97   A    
C39   C86   S    
C115  C116  S    
C39   C78   A    
C109  C110  A    
C21   H3    S    
C19   H7    S    
C19   C96   S    
C1    N1    A    
C92   C99   S    
C124  C125  A    
C74   C124  S    
C68   H34   S    
