data_mof_unit_63372.cif
_audit_creation_date              2012-12-10T21:36:39-0500
_audit_creation_method            fapswitch 2.2
_symmetry_space_group_name_H-M    P1
_symmetry_Int_Tables_number       1
_space_group_crystal_system       triclinic
_cell_length_a                    10.506449
_cell_length_b                    16.225872
_cell_length_c                    16.730592
_cell_angle_alpha                 88.222983
_cell_angle_beta                  91.819055
_cell_angle_gamma                 92.199647
_cell_volume                      2847.36393611

loop_
_atom_site_label
_atom_site_type_symbol
_atom_type_description
_atom_site_fract_x
_atom_site_fract_y
_atom_site_fract_z
_atom_type_partial_charge
Br1   Br    Br    0.726612 0.692889 0.620487 -0.496527
Br2   Br    Br    0.279563 0.719438 0.415058 -0.562863
Br3   Br    Br    0.285415 0.309180 0.371662 -0.504839
Br4   Br    Br    0.732613 0.403020 0.302178 -0.467804
Br5   Br    Br    0.462268 0.661368 0.749437 -0.368859
Br6   Br    Br    0.729088 0.363930 0.111662 -0.299939
Br7   Br    Br    0.638741 0.652518 0.915961 -0.333438
Br8   Br    Br    0.597955 0.300453 0.920046 -0.384388
Br9   Br    Br    0.340790 0.601033 0.047148 -0.410435
Br10  Br    Br    0.698624 0.284422 0.603143 -0.527581
C1    C     C_R   0.495752 0.489314 0.653874 0.920796
C2    C     C_R   0.567477 0.236197 0.535590 0.328294
C3    C     C_R   0.433996 0.851093 0.472111 -0.320857
C4    C     C_R   0.561797 0.149747 0.533203 -0.317605
C5    C     C_R   0.533113 0.892281 0.514643 0.218144
C6    C     C_R   0.471437 0.108513 0.483535 0.214728
C7    C     C_R   0.623669 0.843858 0.556080 0.003710
C8    C     C_R   0.387831 0.156822 0.435819 0.003916
C9    C     C_R   0.611466 0.756034 0.554234 0.350367
C10   C     C_R   0.396488 0.244478 0.439910 0.337454
C11   C     C_R   0.742601 0.499621 0.501109 0.927070
C12   C     C_R   0.504686 0.510306 0.346841 0.936698
C13   C     C_R   0.257638 0.499984 0.501935 0.881630
C14   C     C_3   0.953351 0.430383 0.467486 -0.145503
C15   C     C_3   0.047083 0.568152 0.538321 -0.142051
C16   C     C_3   0.040840 0.431651 0.543504 -0.188212
C17   C     C_3   0.959779 0.566971 0.461932 -0.150890
C18   C     C_3   0.122900 0.499844 0.502757 -0.075030
C19   C     C_3   0.877491 0.498775 0.502514 -0.077710
C20   C     C_3   0.037463 0.498478 0.427377 0.178300
C21   C     C_3   0.962692 0.499784 0.577931 0.166758
C22   C     C_R   0.507609 0.483507 0.742215 -0.252707
C23   C     C_R   0.610520 0.476651 0.898239 0.120062
C24   C     C_R   0.523637 0.512532 0.260429 -0.221163
C25   C     C_R   0.531712 0.556932 0.784714 0.225361
C26   C     C_R   0.613057 0.458745 0.230982 0.169605
C27   C     C_R   0.591300 0.553052 0.860062 0.217243
C28   C     C_R   0.616632 0.444928 0.149175 0.240966
C29   C     C_3   0.731420 0.886630 0.603493 -0.391568
C30   C     C_3   0.692075 0.901730 0.688682 -0.683917
C31   C     C_3   0.288961 0.114455 0.381226 -0.345788
C32   C     C_3   0.161463 0.102962 0.422135 -0.777985
C33   C     C_3   0.083652 0.492989 0.341681 -0.341258
C34   C     C_R   0.532974 0.486882 0.096392 0.125873
C35   C     C_3   0.024157 0.557096 0.284927 -0.803820
C36   C     C_3   0.914043 0.497868 0.663166 -0.405987
C37   C     C_3   0.023435 0.496037 0.725099 -0.774620
C38   C     C_3   0.443813 0.328197 0.752151 -0.272858
C39   C     C_3   0.301594 0.340961 0.736983 -0.842666
C40   C     C_3   0.355979 0.621748 0.235105 -0.338981
C41   C     C_3   0.419943 0.707841 0.230547 -0.683129
C42   C     C_R   0.571340 0.403017 0.861291 0.211365
C43   C     C_R   0.449278 0.543729 0.124477 0.240530
C44   C     C_R   0.512708 0.405679 0.784212 0.037940
C45   C     C_R   0.444683 0.558164 0.206670 -0.010360
C46   C     C_R   0.426207 0.764633 0.470445 0.342502
H1    H     H_    0.078040 0.376961 0.576826 0.173582
H2    H     H_    0.819011 0.850527 0.604953 0.243227
H3    H     H_    0.759869 0.946618 0.574193 0.214891
H4    H     H_    0.172414 0.063876 0.477455 0.257775
H5    H     H_    0.124891 0.163503 0.437851 0.280527
H6    H     H_    0.090794 0.072073 0.381151 0.259057
H7    H     H_    0.276423 0.149694 0.323831 0.252232
H8    H     H_    0.320150 0.053090 0.363805 0.217884
H9    H     H_    0.918595 0.551473 0.285966 0.280614
H10   H     H_    0.056302 0.620199 0.302358 0.269670
H11   H     H_    0.054075 0.547322 0.222999 0.271658
H12   H     H_    0.922109 0.621966 0.429378 0.177455
H13   H     H_    0.188788 0.501473 0.341395 0.199507
H14   H     H_    0.058857 0.430466 0.319348 0.261901
H15   H     H_    0.075202 0.438176 0.720836 0.250221
H16   H     H_    0.090524 0.549813 0.715713 0.271462
H17   H     H_    0.985026 0.498322 0.786024 0.276149
H18   H     H_    0.858188 0.553040 0.671930 0.254187
H19   H     H_    0.850354 0.442367 0.672212 0.238177
H20   H     H_    0.285187 0.388638 0.689248 0.246196
H21   H     H_    0.253873 0.282343 0.717612 0.254868
H22   H     H_    0.257673 0.359854 0.792774 0.278182
H23   H     H_    0.912519 0.373719 0.439597 0.213927
H24   H     H_    0.487071 0.307148 0.697631 0.249942
H25   H     H_    0.450104 0.274676 0.794308 0.243135
H26   H     H_    0.350918 0.754595 0.245679 0.264012
H27   H     H_    0.502743 0.711623 0.273412 0.258185
H28   H     H_    0.453212 0.722616 0.169239 0.277748
H29   H     H_    0.265638 0.621284 0.199045 0.239356
H30   H     H_    0.325935 0.607273 0.296595 0.230821
H31   H     H_    0.089188 0.623765 0.567590 0.194513
H32   H     H_    0.628531 0.115272 0.570379 0.204877
H33   H     H_    0.360901 0.885698 0.440572 0.204770
H34   H     H_    0.609397 0.942416 0.687816 0.256732
H35   H     H_    0.666009 0.842491 0.720113 0.303468
H36   H     H_    0.772609 0.932284 0.722263 0.249552
N1    N     N_2   0.631601 0.476728 0.981389 -0.049772
N2    N     N_2   0.526625 0.473009 0.013886 -0.070569
N3    N     N_R   0.515540 0.716920 0.509720 -0.138351
N4    N     N_R   0.484460 0.283080 0.490280 -0.138500
N5    N     N_2   0.543689 0.980950 0.519020 -0.153930
N6    N     N_2   0.460793 0.019847 0.479830 -0.155858
O1    O     O_R   0.494440 0.422540 0.612660 -0.610971
O2    O     O_R   0.505560 0.577460 0.387340 -0.611929
O3    O     O_R   0.504420 0.561850 0.618900 -0.547398
O4    O     O_R   0.495580 0.438150 0.381100 -0.541366
O5    O     O_R   0.681060 0.430360 0.496900 -0.564512
O6    O     O_R   0.318940 0.569640 0.503100 -0.577031
O7    O     O_R   0.691040 0.569670 0.503140 -0.602312
O8    O     O_R   0.308960 0.430330 0.496860 -0.601697
Zn1   Zn    Zn3+2 0.493340 0.406980 0.495830 1.033604
Zn2   Zn    Zn3+2 0.506660 0.593020 0.504170 1.032159

loop_
_geom_bond_atom_site_label_1
_geom_bond_atom_site_label_2
_ccdc_geom_bond_type
C15   C21   S    
C46   N3    A    
Br4   C26   S    
N1    N2    D    
C17   C19   S    
C31   C32   S    
C36   H18   S    
N5    N6    D    
C39   H22   S    
C23   C42   A    
C38   C44   S    
C25   C27   A    
C14   C16   S    
O8    Zn1   S    
C15   H31   S    
C38   H25   S    
C1    O1    A    
C7    C29   S    
C14   C19   S    
C17   H12   S    
C40   H29   S    
C34   C43   A    
C21   C36   S    
C35   H11   S    
Br6   C28   S    
Br8   C42   S    
C8    C10   A    
C3    C46   A    
O3    Zn2   S    
C10   N4    A    
C24   C45   A    
C33   H13   S    
C17   C20   S    
C5    N5    S    
C22   C44   A    
C36   H19   S    
C42   C44   A    
C43   C45   A    
C12   C24   S    
O7    Zn2   S    
Br1   C9    S    
O2    Zn2   S    
C22   C25   A    
O4    Zn1   S    
C12   O2    A    
C37   H17   S    
C8    C31   S    
C32   H4    S    
C29   C30   S    
C13   O8    A    
C11   C19   S    
C23   C27   A    
C15   C18   S    
C28   C34   A    
C14   H23   S    
C13   O6    A    
C32   H5    S    
C29   H3    S    
C40   C41   S    
Br7   C27   S    
C39   H20   S    
Br3   C10   S    
C1    O3    A    
C13   C18   S    
C30   H36   S    
C33   C35   S    
C41   H26   S    
C37   H15   S    
Br10  C2    S    
C38   C39   S    
N4    Zn1   S    
C2    C4    A    
C1    C22   S    
C33   H14   S    
C3    C5    A    
C35   H9    S    
C4    C6    A    
C20   C33   S    
Br9   C43   S    
C31   H7    S    
C41   H27   S    
O6    Zn2   S    
C9    N3    A    
C5    C7    A    
C32   H6    S    
C36   C37   S    
C3    H33   S    
C23   N1    S    
C15   C17   S    
O1    Zn1   S    
C16   C18   S    
C40   C45   S    
C12   O4    A    
C38   H24   S    
C18   C20   S    
C4    H32   S    
C19   C21   S    
Br2   C46   S    
C29   H2    S    
C6    N6    S    
Br5   C25   S    
C26   C28   A    
C7    C9    A    
C39   H21   S    
C24   C26   A    
C30   H35   S    
C16   H1    S    
C14   C20   S    
C37   H16   S    
C34   N2    S    
N3    Zn2   S    
C40   H30   S    
C11   O5    A    
C16   C21   S    
C6    C8    A    
C35   H10   S    
C2    N4    A    
O5    Zn1   S    
C31   H8    S    
C30   H34   S    
C41   H28   S    
C11   O7    A    
