data_mof_unit_24021.cif
_audit_creation_date              2012-12-10T17:14:06-0500
_audit_creation_method            fapswitch 2.2
_symmetry_space_group_name_H-M    P1
_symmetry_Int_Tables_number       1
_space_group_crystal_system       triclinic
_cell_length_a                    15.898923
_cell_length_b                    12.952973
_cell_length_c                    11.798695
_cell_angle_alpha                 99.051193
_cell_angle_beta                  92.778551
_cell_angle_gamma                 91.787286
_cell_volume                      2394.87056512

loop_
_atom_site_label
_atom_site_type_symbol
_atom_type_description
_atom_site_fract_x
_atom_site_fract_y
_atom_site_fract_z
_atom_type_partial_charge
C1    C     C_R   0.498123 0.299832 0.479399 0.807258
C2    C     C_3   0.953312 0.475620 0.614126 0.069515
C3    C     C_3   0.916437 0.505731 0.494196 0.078883
C4    C     C_3   0.950977 0.622234 0.481324 0.012844
C5    C     C_3   0.053557 0.624693 0.493163 0.140941
C6    C     C_1   0.823664 0.503530 0.495618 -0.024288
C7    C     C_1   0.176364 0.504794 0.501037 0.078298
C8    C     C_1   0.251626 0.502357 0.502752 -0.067577
C9    C     C_R   0.515404 0.811549 0.527475 -0.019030
C10   C     C_R   0.492071 0.186383 0.468384 -0.140717
C11   C     C_R   0.408860 0.026148 0.403845 0.123138
C12   C     C_R   0.340681 0.500113 0.501032 0.827392
C13   C     C_R   0.423311 0.133040 0.403759 0.152286
C14   C     C_R   0.552040 0.132400 0.525278 -0.085034
C15   C     C_R   0.544632 0.021884 0.511476 0.054887
C16   C     C_R   0.466345 0.970795 0.466187 0.011567
C17   C     C_R   0.450365 0.866574 0.484231 0.043381
C18   C     C_R   0.596694 0.855866 0.552698 -0.011618
C19   C     C_R   0.612806 0.960754 0.541531 0.003691
C20   C     C_R   0.409861 0.412121 0.030931 0.057782
C21   C     C_R   0.420897 0.420858 0.150414 0.127852
C22   C     C_R   0.539011 0.537589 0.154103 0.128965
C23   C     C_R   0.503215 0.699716 0.520312 0.905351
C24   C     C_R   0.529512 0.535750 0.032136 -0.004609
C25   C     C_R   0.467257 0.466537 0.968018 -0.070926
C26   C     C_R   0.464608 0.456641 0.844857 0.102063
C27   C     C_R   0.570700 0.591544 0.851651 0.329416
C28   C     C_R   0.578675 0.602248 0.972799 0.020850
C29   C     C_R   0.659312 0.500341 0.498973 0.818398
C30   C     C_3   0.051759 0.466930 0.607254 -0.381358
C31   C     C_3   0.046171 0.428587 0.384323 -0.110137
C32   C     C_3   0.943690 0.423088 0.385537 -0.025272
C33   C     C_1   0.748407 0.501795 0.496852 -0.109303
C34   C     C_3   0.083500 0.507522 0.496299 -0.034634
Cu1   Cu    Cu3+1 0.506190 0.507730 0.615930 1.002295
Cu2   Cu    Cu3+1 0.493810 0.492270 0.384070 0.974514
H1    H     H_    0.065182 0.383287 0.595152 0.180177
H2    H     H_    0.377213 0.379629 0.196736 0.181965
N1    N     N_R   0.515490 0.519350 0.790130 -0.213861
N2    N     N_R   0.484510 0.480650 0.209890 -0.260999
O1    O     O_R   0.504390 0.354460 0.582000 -0.574036
O2    O     O_R   0.493940 0.341410 0.386200 -0.558638
O3    O     O_R   0.384660 0.506540 0.597940 -0.609406
O4    O     O_R   0.374210 0.493480 0.402140 -0.564233
O5    O     O_R   0.506060 0.658590 0.613800 -0.545547
O6    O     O_R   0.495610 0.645540 0.418000 -0.625838
O7    O     O_R   0.625790 0.506520 0.597860 -0.539031
O8    O     O_R   0.615340 0.493460 0.402060 -0.584854
N3    N     N_3   0.916053 0.374661 0.636209 -0.553465
H3    H     H_    0.926989 0.367699 0.722905 0.260047
H4    H     H_    0.945281 0.310058 0.593219 0.195441
C35   C     C_2   0.103535 0.504647 0.719706 0.376119
H5    H     H_    0.109205 0.586004 0.758173 0.094196
O9    O     O_2   0.140708 0.442186 0.769437 -0.537821
C36   C     C_2   0.928820 0.556707 0.715376 0.481544
H6    H     H_    0.972430 0.617453 0.758313 0.037717
O10   O     O_2   0.857147 0.556185 0.748418 -0.525067
C37   C     C_2   0.911195 0.652883 0.369577 0.445403
H7    H     H_    0.843529 0.662173 0.363833 0.092891
O11   O     O_2   0.950299 0.666455 0.286392 -0.516389
N4    N     N_3   0.367683 0.816696 0.471299 -0.592388
H8    H     H_    0.349233 0.793272 0.384840 0.229841
H9    H     H_    0.324842 0.865293 0.515643 0.255673
N5    N     N_3   0.663278 0.790794 0.582644 -0.601418
H10   H     H_    0.691039 0.823744 0.662811 0.228675
H11   H     H_    0.708584 0.787658 0.520978 0.202241
N6    N     N_3   0.340470 0.975839 0.329597 -0.598821
H12   H     H_    0.291050 0.954248 0.377013 0.235373
H13   H     H_    0.362268 0.913011 0.273444 0.233517
C38   C     C_2   0.702379 0.998676 0.543838 0.401814
H14   H     H_    0.749082 0.974164 0.603154 0.081504
O12   O     O_2   0.725475 0.054030 0.475563 -0.543251
N7    N     N_3   0.364674 0.189823 0.343048 -0.554899
H15   H     H_    0.362327 0.157775 0.255847 0.258515
H16   H     H_    0.304889 0.180609 0.374220 0.257493
C39   C     C_2   0.617060 0.193267 0.606496 0.528418
H17   H     H_    0.647718 0.263158 0.584999 0.056200
O13   O     O_2   0.634599 0.167590 0.699803 -0.518120
C40   C     C_2   0.412364 0.373035 0.773648 0.433877
H18   H     H_    0.352588 0.390035 0.734020 0.081108
O14   O     O_2   0.435144 0.282967 0.761486 -0.528843
N8    N     N_3   0.621267 0.656104 0.791440 -0.501060
H19   H     H_    0.684877 0.644223 0.809730 0.237898
H20   H     H_    0.608891 0.734553 0.818988 0.200992
N9    N     N_3   0.335377 0.354440 0.980269 -0.563836
H21   H     H_    0.351293 0.283400 0.933078 0.269686
H22   H     H_    0.300725 0.399620 0.930213 0.248050
N10   N     N_3   0.633017 0.684895 0.034823 -0.589917
H23   H     H_    0.694512 0.674816 0.008740 0.261987
H24   H     H_    0.612389 0.756766 0.017039 0.217670
C41   C     C_2   0.610583 0.595899 0.221573 0.522433
H25   H     H_    0.600809 0.666081 0.281705 0.062584
O15   O     O_2   0.682144 0.566198 0.208477 -0.550453
C42   C     C_2   0.077474 0.467841 0.275716 0.526983
H26   H     H_    0.036901 0.505339 0.219771 0.150041
O16   O     O_2   0.151721 0.464710 0.253217 -0.514203
C43   C     C_2   0.081928 0.318495 0.384054 0.462927
H27   H     H_    0.063793 0.270596 0.446892 0.064494
O17   O     O_2   0.128986 0.279510 0.311614 -0.485413
C44   C     C_2   0.904914 0.312993 0.388134 0.314750
H28   H     H_    0.852863 0.301969 0.441541 0.136441
O18   O     O_2   0.922739 0.237833 0.318350 -0.503304
N11   N     N_3   0.905524 0.449850 0.277555 -0.569147
H29   H     H_    0.839680 0.447599 0.278006 0.254039
H30   H     H_    0.920263 0.394510 0.207335 0.257590
C45   C     C_2   0.090016 0.697120 0.601850 0.285937
H31   H     H_    0.052528 0.724231 0.673700 0.107140
O19   O     O_2   0.164641 0.724493 0.611582 -0.549199
N12   N     N_3   0.089708 0.667333 0.396334 -0.517821
H32   H     H_    0.155317 0.663160 0.398227 0.256210
H33   H     H_    0.077295 0.746968 0.402895 0.253390
N13   N     N_3   0.919094 0.700841 0.572341 -0.659465
H34   H     H_    0.853203 0.699016 0.569964 0.226901
H35   H     H_    0.937818 0.776108 0.559097 0.215785

loop_
_geom_bond_atom_site_label_1
_geom_bond_atom_site_label_2
_ccdc_geom_bond_type
C36   H6    S    
C23   O5    A    
N7    H15   S    
Cu2   O2    S    
Cu1   Cu2   S    
C3    C6    S    
Cu1   O7    S    
N13   H35   S    
C43   H27   S    
C7    C8    T    
N9    H21   S    
C15   C19   A    
C45   O19   D    
C29   O7    A    
C39   O13   D    
C12   O3    A    
C2    C36   S    
N12   H33   S    
C26   N1    A    
C20   C25   A    
C37   O11   D    
C15   C16   A    
C29   C33   S    
C11   N6    S    
C18   C19   A    
N4    H9    S    
C17   N4    S    
C21   H2    S    
C27   N1    A    
C16   C17   A    
N3    H4    S    
C28   N10   S    
C22   C41   S    
Cu2   O6    S    
C38   H14   S    
Cu1   O3    S    
N4    H8    S    
C4    N13   S    
C23   O6    A    
C5    C34   S    
N7    H16   S    
C3    C32   S    
N13   H34   S    
C43   O17   D    
C35   O9    D    
C5    C45   S    
N9    H22   S    
C32   N11   S    
C30   C34   S    
C29   O8    A    
N6    H12   S    
Cu2   N2    S    
C24   C25   A    
C10   C14   A    
C41   H25   S    
C40   O14   D    
C9    C23   S    
C25   C26   A    
C32   C44   S    
C30   H1    S    
N6    H13   S    
N5    H11   S    
Cu1   N1    S    
C2    N3    S    
C41   O15   D    
C11   C16   A    
C1    O2    A    
C31   C32   S    
C8    C12   S    
C22   N2    A    
C20   N9    S    
C20   C21   A    
C44   O18   D    
C31   C34   S    
N11   H30   S    
C39   H17   S    
C42   O16   D    
C1    O1    A    
C13   N7    S    
N3    H3    S    
N8    H20   S    
C36   O10   D    
C7    C34   S    
C22   C24   A    
Cu2   O4    S    
C3    C4    S    
Cu1   O5    S    
N11   H29   S    
C35   H5    S    
C9    C17   A    
C30   C35   S    
C27   N8    S    
C1    C10   S    
C24   C28   A    
N10   H24   S    
C4    C5    S    
C10   C13   A    
C31   C42   S    
C26   C40   S    
C6    C33   T    
C2    C30   S    
N5    H10   S    
C2    C3    S    
C37   H7    S    
C12   O4    A    
N12   H32   S    
C11   C13   A    
C18   N5    S    
C21   N2    A    
C5    N12   S    
C44   H28   S    
Cu2   O8    S    
C31   C43   S    
C42   H26   S    
Cu1   O1    S    
C40   H18   S    
C9    C18   A    
N10   H23   S    
N8    H19   S    
C45   H31   S    
C4    C37   S    
C27   C28   A    
C14   C15   A    
C19   C38   S    
C38   O12   D    
C14   C39   S    
