data_mof_unit_15400.cif
_audit_creation_date              2013-03-05T16:01:37-0500
_audit_creation_method            fapswitch 2.2
_symmetry_space_group_name_H-M    P1
_symmetry_Int_Tables_number       1
_space_group_crystal_system       triclinic
_cell_length_a                    14.703712
_cell_length_b                    14.816292
_cell_length_c                    23.582077
_cell_angle_alpha                 76.209453
_cell_angle_beta                  103.601144
_cell_angle_gamma                 115.190933
_cell_volume                      4462.29339238

loop_
_atom_site_label
_atom_site_type_symbol
_atom_site_description
_atom_site_fract_x
_atom_site_fract_y
_atom_site_fract_z
_atom_type_partial_charge
O1    O     O_R   0.977900 0.338110 0.520250 -0.619178
O2    O     O_R   0.022100 0.661890 0.479750 -0.574790
O3    O     O_R   0.839850 0.379180 0.494310 -0.560770
O4    O     O_R   0.160150 0.620820 0.505690 -0.536485
C1    C     C_R   0.879973 0.312319 0.509558 0.863940
C2    C     C_R   0.120593 0.688063 0.490812 0.808706
O5    O     O_R   0.069020 0.479430 0.595090 -0.593483
O6    O     O_R   0.930980 0.520570 0.404910 -0.611497
O7    O     O_R   0.930970 0.520500 0.569150 -0.593287
O8    O     O_R   0.069030 0.479500 0.430850 -0.584443
C3    C     C_R   0.001308 0.502112 0.609156 0.783845
C4    C     C_R   0.999685 0.499918 0.390728 0.815724
Cu1   Cu    Cu3+1 0.081740 0.475680 0.515360 0.979670
Cu2   Cu    Cu3+1 0.918260 0.524320 0.484640 0.971532
C5    C     C_R   0.080085 0.596124 0.116151 0.615407
C6    C     C_R   0.976764 0.412868 0.891533 0.617145
N1    N     N_R   0.034124 0.508243 0.151704 -0.461495
N2    N     N_R   0.025843 0.500094 0.856478 -0.458015
C7    C     C_R   0.996477 0.416931 0.133281 0.542345
C8    C     C_R   0.085639 0.587323 0.878645 0.544014
C9    C     C_R   0.995183 0.411202 0.073902 -0.047660
C10   C     C_R   0.091815 0.592130 0.938870 -0.048014
C11   C     C_R   0.044594 0.502211 0.036503 -0.006373
C12   C     C_R   0.042927 0.501011 0.976364 -0.008515
C13   C     C_R   0.094218 0.594831 0.059124 -0.056086
C14   C     C_R   0.990811 0.408843 0.953343 -0.059106
C15   C     C_R   0.949211 0.318063 0.051437 -0.084608
C16   C     C_R   0.147561 0.683396 0.963011 -0.081776
C17   C     C_R   0.951117 0.316636 0.992076 -0.081351
C18   C     C_R   0.152331 0.683532 0.023513 -0.081355
O9    O     O_2   0.108279 0.684096 0.135685 -0.483597
O10   O     O_2   0.912157 0.331765 0.865798 -0.485412
O11   O     O_2   0.960445 0.332910 0.172834 -0.534318
O12   O     O_2   0.138280 0.668241 0.841897 -0.543925
C19   C     C_R   0.946437 0.535132 0.753184 0.007936
C20   C     C_R   0.931546 0.504391 0.222482 0.017760
C21   C     C_R   0.940824 0.538282 0.691816 -0.107552
C22   C     C_R   0.920753 0.500791 0.281378 -0.091669
C23   C     C_R   0.004400 0.504979 0.672388 -0.151256
C24   C     C_R   0.003279 0.503268 0.327689 -0.140547
C25   C     C_R   0.073080 0.471573 0.714427 -0.159993
C26   C     C_R   0.094825 0.511706 0.314057 -0.172940
C27   C     C_R   0.079493 0.468190 0.774797 -0.028524
C28   C     C_R   0.106614 0.515987 0.256360 -0.014299
C29   C     C_R   0.015843 0.499559 0.794338 0.238024
C30   C     C_R   0.024702 0.511685 0.210474 0.232977
C31   C     C_R   0.812171 0.204981 0.520956 -0.044009
C32   C     C_R   0.189826 0.795894 0.491150 -0.116718
C33   C     C_R   0.783485 0.041056 0.581170 -0.107850
C34   C     C_R   0.213178 0.969363 0.488974 -0.099661
C35   C     C_R   0.848859 0.138760 0.562472 -0.237746
C36   C     C_R   0.149823 0.867533 0.488988 -0.180608
C37   C     C_R   0.708126 0.170689 0.496418 -0.061620
C38   C     C_R   0.296610 0.827480 0.497551 -0.026605
C39   C     C_R   0.639244 0.079817 0.524678 -0.012697
C40   C     C_R   0.360926 0.927039 0.507884 -0.008942
C41   C     C_R   0.677994 0.009230 0.562340 0.134892
C42   C     C_R   0.319636 0.001699 0.495452 0.117023
C43   C     C_R   0.533014 0.055853 0.515773 0.052614
C44   C     C_R   0.466400 0.954867 0.528107 0.070519
C45   C     C_R   0.505321 0.885539 0.564808 -0.238843
C46   C     C_R   0.492230 0.130539 0.500487 -0.323405
C47   C     C_R   0.609535 0.910636 0.581899 -0.038479
C48   C     C_R   0.386911 0.105247 0.491432 0.017320
N3    N     N_R   0.795430 0.560810 0.461550 -0.213106
N4    N     N_R   0.204570 0.439190 0.538450 -0.212981
C49   C     C_R   0.705872 0.657061 0.394153 -0.113012
C50   C     C_R   0.283228 0.324962 0.594253 -0.048235
C51   C     C_R   0.793598 0.635745 0.414640 0.103715
C52   C     C_R   0.207241 0.363152 0.584922 0.099064
C53   C     C_R   0.714006 0.509352 0.490797 0.028177
C54   C     C_R   0.280335 0.482614 0.504476 0.110764
C55   C     C_R   0.628544 0.537110 0.477289 -0.038492
C56   C     C_R   0.370466 0.462086 0.521001 -0.043452
C57   C     C_R   0.627899 0.616522 0.429706 0.106529
C58   C     C_R   0.372948 0.385029 0.569581 0.077821
C59   C     C_R   0.544069 0.488472 0.509337 0.082853
C60   C     C_R   0.457532 0.515054 0.491168 0.100145
C61   C     C_R   0.463724 0.598619 0.446718 -0.232760
C62   C     C_R   0.546460 0.418775 0.561222 -0.299513
C63   C     C_R   0.550011 0.653669 0.419671 0.027943
C64   C     C_R   0.465268 0.371561 0.592888 -0.008050
H1    H     H_    0.269301 0.534183 0.465488 0.140119
H2    H     H_    0.718242 0.447454 0.524554 0.136565
H3    H     H_    0.405418 0.628347 0.435404 0.136084
H4    H     H_    0.614298 0.405166 0.580935 0.156416
C65   C     C_2   0.896337 0.221195 0.088848 0.446270
H5    H     H_    0.832675 0.212144 0.108536 0.120325
O13   O     O_2   0.924435 0.151658 0.098332 -0.485011
C66   C     C_2   0.199825 0.780374 0.925507 0.441771
H6    H     H_    0.156433 0.810061 0.887771 0.119702
O14   O     O_2   0.291628 0.826788 0.936235 -0.490258
H7    H     H_    0.816510 0.993813 0.613349 0.193424
H8    H     H_    0.177371 0.020897 0.485934 0.207329
H9    H     H_    0.453906 0.812195 0.583010 0.197651
H10   H     H_    0.542851 0.209641 0.497462 0.128691
C67   C     C_2   0.559883 0.756023 0.387667 0.459325
H11   H     H_    0.492380 0.769811 0.365391 0.076724
O15   O     O_2   0.642380 0.827069 0.389056 -0.518626
C68   C     C_2   0.486127 0.319145 0.653584 0.519714
H12   H     H_    0.542599 0.286288 0.663681 0.069059
O16   O     O_2   0.445031 0.317078 0.693522 -0.482112
C69   C     C_2   0.134280 0.321889 0.627743 0.320021
H13   H     H_    0.055437 0.309183 0.614796 0.116278
O17   O     O_2   0.163510 0.301985 0.680327 -0.511024
C70   C     C_2   0.883136 0.695856 0.384384 0.409932
H14   H     H_    0.902595 0.665156 0.353992 0.111079
O18   O     O_2   0.932131 0.784243 0.390236 -0.543885
C71   C     C_2   0.691724 0.708906 0.332164 0.482251
H15   H     H_    0.755862 0.768157 0.312754 0.118783
O19   O     O_2   0.608506 0.682259 0.301221 -0.491069
C72   C     C_2   0.259272 0.216255 0.620112 0.434201
H16   H     H_    0.201220 0.175344 0.648328 0.126524
O20   O     O_2   0.300071 0.169018 0.607044 -0.573540
C73   C     C_2   0.914271 0.217111 0.972239 0.576971
H17   H     H_    0.841529 0.158441 0.981713 0.073406
O21   O     O_2   0.967490 0.198635 0.947729 -0.474117
C74   C     C_2   0.221840 0.776782 0.048908 0.578692
H18   H     H_    0.221032 0.849674 0.026807 0.073146
O22   O     O_2   0.283851 0.773014 0.093166 -0.472362
C75   C     C_2   0.883349 0.573863 0.773906 0.478238
H19   H     H_    0.859243 0.631464 0.745496 0.102328
O23   O     O_2   0.856134 0.541131 0.822424 -0.511500
C76   C     C_2   0.843421 0.494544 0.174076 0.492221
H20   H     H_    0.766316 0.452289 0.183596 0.106022
O24   O     O_2   0.855507 0.534520 0.123269 -0.512271
C77   C     C_2   0.869819 0.577748 0.648570 0.356305
H21   H     H_    0.897289 0.636614 0.611877 0.115254
O25   O     O_2   0.779841 0.543757 0.653249 -0.537411
C78   C     C_2   0.823399 0.493624 0.294142 0.309802
H22   H     H_    0.789199 0.440589 0.331005 0.170391
O26   O     O_2   0.781664 0.548783 0.264182 -0.532265
H23   H     H_    0.123025 0.447963 0.700114 0.232913
H24   H     H_    0.158575 0.515357 0.348956 0.190799
C79   C     C_2   0.154510 0.433292 0.817499 0.488384
H25   H     H_    0.162762 0.433179 0.864428 0.073812
O27   O     O_2   0.208513 0.404133 0.800814 -0.465701
C80   C     C_2   0.204384 0.522673 0.244386 0.476600
H26   H     H_    0.213613 0.522397 0.200151 0.088902
O28   O     O_2   0.276329 0.528564 0.283922 -0.520302
C81   C     C_2   0.641137 0.828996 0.618070 0.395536
H27   H     H_    0.592861 0.771888 0.648661 0.101172
O29   O     O_2   0.716615 0.820135 0.611396 -0.523440
C82   C     C_2   0.353349 0.190828 0.474474 0.421572
H28   H     H_    0.403523 0.263004 0.488341 0.078005
O30   O     O_2   0.273503 0.184575 0.442143 -0.526203
C83   C     C_2   0.340748 0.767499 0.479235 0.343821
H29   H     H_    0.360410 0.786822 0.435126 0.059914
O31   O     O_2   0.358463 0.699106 0.513672 -0.556509
C84   C     C_2   0.675064 0.215563 0.435370 0.375754
H30   H     H_    0.595765 0.189256 0.415674 0.099356
O32   O     O_2   0.736821 0.276688 0.404012 -0.559407
H31   H     H_    0.068780 0.845299 0.486120 0.211278
H32   H     H_    0.928491 0.162552 0.581156 0.148888

loop_
_geom_bond_atom_site_label_1
_geom_bond_atom_site_label_2
_geom_bond_distance
_ccdc_geom_bond_type
C65   H5    1.085183 S    
C35   H32   1.081400 S    
C39   C43   1.420955 A    
C15   C17   1.412059 A    
C55   C57   1.420784 A    
C83   H29   1.084682 S    
C25   H23   1.080352 S    
C67   H11   1.085846 S    
C79   H25   1.084260 S    
C23   C25   1.402969 A    
C59   C60   1.430894 A    
C32   C38   1.415542 A    
C1    C31   1.472384 S    
C2    C32   1.485467 S    
O1    C1    1.299882 A    
C22   C78   1.486266 S    
C7    C9    1.418143 A    
C12   C14   1.419068 A    
C46   H10   1.084067 S    
C71   O19   1.221369 D    
C3    C23   1.491321 S    
N3    C51   1.372251 A    
C5    C13   1.413926 A    
C70   H14   1.079404 S    
C73   H17   1.085290 S    
C33   C41   1.406661 A    
C79   O27   1.221466 D    
C50   C72   1.496625 S    
O4    Cu1   1.945489 S    
C45   C47   1.394524 A    
C74   H18   1.085275 S    
C62   H4    1.077098 S    
C49   C71   1.492634 S    
N4    C54   1.364102 A    
C73   O21   1.221419 D    
C34   C36   1.395550 A    
C11   C12   1.416849 A    
C20   C30   1.417699 A    
C46   C48   1.404543 A    
C31   C37   1.412646 A    
C8    O12   1.348206 S    
C70   O18   1.220350 D    
C24   C26   1.404260 A    
C9    C15   1.424064 A    
C43   C44   1.400591 A    
C10   C16   1.424247 A    
Cu1   Cu2   2.688681 S    
C42   C48   1.422714 A    
C25   C27   1.394636 A    
O2    C2    1.306994 A    
C26   C28   1.394912 A    
C72   O20   1.221424 D    
C72   H16   1.083128 S    
C67   O15   1.221197 D    
C28   C30   1.407184 A    
O5    C3    1.306729 A    
Cu1   N4    2.019646 S    
C37   C39   1.418285 A    
C6    C14   1.413591 A    
C38   C40   1.416015 A    
C83   O31   1.219455 D    
C34   C42   1.409656 A    
C19   C75   1.492847 S    
N1    C30   1.439641 S    
C62   C64   1.389795 A    
C7    O11   1.348257 S    
C58   C64   1.418429 A    
C53   C55   1.427906 A    
C52   C69   1.483671 S    
C57   C63   1.420395 A    
C31   C35   1.398701 A    
C48   C82   1.486393 S    
C33   C35   1.387256 A    
C36   H31   1.082422 S    
N3    C53   1.360505 A    
C40   C44   1.415676 A    
C44   C45   1.405449 A    
C49   C51   1.406381 A    
C4    C24   1.488217 S    
C78   O26   1.221224 D    
O7    Cu2   1.946770 S    
C77   O25   1.221114 D    
C27   C79   1.487589 S    
C84   O32   1.219871 D    
C82   O30   1.219967 D    
O7    C3    1.300886 A    
C66   O14   1.221119 D    
C32   C36   1.402408 A    
O6    C4    1.302628 A    
C68   O16   1.221161 D    
C47   C81   1.485533 S    
C69   O17   1.221593 D    
C39   C41   1.426067 A    
C15   C65   1.487178 S    
C27   C29   1.406954 A    
C75   H19   1.084468 S    
O3    Cu2   1.945488 S    
O8    C4    1.303363 A    
C54   C56   1.429832 A    
C8    C10   1.418608 A    
C9    C11   1.422794 A    
C37   C84   1.496851 S    
C10   C12   1.422978 A    
O4    C2    1.297948 A    
O1    Cu1   1.954633 S    
C56   C58   1.417570 A    
C77   H21   1.085021 S    
C19   C29   1.417512 A    
N2    C29   1.439527 S    
C61   H3    1.076109 S    
C19   C21   1.420655 A    
C76   O24   1.220700 D    
C53   H2    1.075118 S    
C59   C62   1.404629 A    
C13   C18   1.420540 A    
C5    N1    1.360877 A    
C43   C46   1.409641 A    
O6    Cu2   1.948655 S    
C20   C76   1.492040 S    
C60   C61   1.403636 A    
C64   C68   1.487368 S    
C6    N2    1.360769 A    
C34   H8    1.078745 S    
C41   C47   1.416098 A    
C82   H28   1.084641 S    
O3    C1    1.298686 A    
O8    Cu1   1.946773 S    
C51   C70   1.475213 S    
C45   H9    1.080536 S    
C5    O9    1.348854 S    
C80   O28   1.221581 D    
C50   C58   1.409104 A    
C18   C74   1.488829 S    
C61   C63   1.390491 A    
C26   H24   1.083558 S    
C81   O29   1.220531 D    
C78   H22   1.081467 S    
C21   C23   1.424461 A    
C71   H15   1.084541 S    
C20   C22   1.420633 A    
C22   C24   1.422796 A    
C66   H6    1.085201 S    
N4    C52   1.378613 A    
C63   C67   1.486248 S    
C6    O10   1.348886 S    
C28   C80   1.487480 S    
C16   C18   1.412354 A    
C68   H12   1.085834 S    
N1    C7    1.362020 A    
Cu2   N3    2.019647 S    
C40   C42   1.418298 A    
N2    C8    1.362070 A    
C11   C13   1.419043 A    
C17   C73   1.488733 S    
O2    Cu2   1.954633 S    
C74   O22   1.221376 D    
C75   O23   1.220659 D    
C54   H1    1.075129 S    
C80   H26   1.084275 S    
O5    Cu1   1.948653 S    
C49   C57   1.415616 A    
C14   C17   1.420707 A    
C50   C52   1.407160 A    
C56   C60   1.433479 A    
C69   H13   1.071326 S    
C65   O13   1.221157 D    
C55   C59   1.432893 A    
C84   H30   1.082547 S    
C76   H20   1.084518 S    
C16   C66   1.487000 S    
C33   H7    1.079080 S    
C81   H27   1.085703 S    
C38   C83   1.484369 S    
C21   C77   1.485463 S    
