data_mof_unit_12520.cif
_audit_creation_date              2012-10-26T19:03:00-0400
_audit_creation_method            fapswitch 2.2
_symmetry_space_group_name_H-M    P1
_symmetry_Int_Tables_number       1
_space_group_crystal_system       triclinic
_cell_length_a                    15.077733
_cell_length_b                    11.068291
_cell_length_c                    9.830617
_cell_angle_alpha                 111.52806
_cell_angle_beta                  98.37311
_cell_angle_gamma                 91.245464
_cell_volume                      1504.81739794

loop_
_atom_site_label
_atom_site_type_symbol
_atom_type_description
_atom_site_fract_x
_atom_site_fract_y
_atom_site_fract_z
_atom_type_partial_charge
C1    C     C_R   0.493284 0.253765 0.439705 0.563998
C2    C     C_2   0.492325 0.489524 0.918327 0.002701
C3    C     C_R   0.329075 0.503425 0.501656 0.578398
C4    C     C_R   0.670956 0.495020 0.498080 0.542854
C5    C     C_R   0.804542 0.534895 0.401795 -0.144345
C6    C     C_R   0.194803 0.453576 0.589858 -0.153571
C7    C     C_R   0.767282 0.487240 0.495439 -0.003580
C8    C     C_R   0.232658 0.507570 0.502565 0.040023
C9    C     C_R   0.821821 0.433478 0.585281 0.104496
C10   C     C_R   0.179298 0.561653 0.412933 0.089350
C11   C     C_R   0.915960 0.436466 0.587121 0.102858
C12   C     C_R   0.506286 0.746233 0.560306 0.580657
C13   C     C_R   0.083818 0.550099 0.400276 0.036759
C14   C     C_R   0.952966 0.489512 0.493640 -0.001292
C15   C     C_R   0.046554 0.496305 0.493588 0.011558
C16   C     C_R   0.896375 0.536012 0.399942 -0.024772
C17   C     C_R   0.102778 0.449357 0.587905 -0.010178
C18   C     C_R   0.974691 0.389674 0.680018 0.121604
C19   C     C_R   0.023236 0.588337 0.299913 0.101638
C20   C     C_R   0.066866 0.396646 0.678788 -0.127425
C21   C     C_R   0.931522 0.582848 0.303850 -0.064663
C22   C     C_2   0.489334 0.113648 0.403263 0.196975
C23   C     C_2   0.509079 0.886331 0.596760 0.200712
C24   C     C_2   0.497072 0.069216 0.513595 -0.114074
C25   C     C_2   0.494919 0.930553 0.486397 -0.109162
C26   C     C_2   0.507695 0.510443 0.081661 0.004266
Cl1   Cl    Cl    0.531308 0.991170 0.786106 -0.537004
Cl2   Cl    Cl    0.475263 0.009115 0.213998 -0.541325
Cu1   Cu    Cu3+1 0.515770 0.521810 0.644910 0.994924
Cu2   Cu    Cu3+1 0.484230 0.478190 0.355090 1.013112
H1    H     H_    0.761716 0.573811 0.331640 0.125358
H2    H     H_    0.410952 0.377300 0.064710 0.220264
H3    H     H_    0.728405 0.305057 0.601291 0.245719
H4    H     H_    0.758835 0.442246 0.758295 0.263501
H5    H     H_    0.206096 0.733864 0.388488 0.237372
H6    H     H_    0.217448 0.594653 0.236097 0.241438
H7    H     H_    0.973345 0.391677 0.886341 0.236814
H8    H     H_    0.961991 0.241292 0.751183 0.238280
H9    H     H_    0.086974 0.712456 0.226132 0.244551
H10   H     H_    0.081679 0.547741 0.115081 0.228697
H11   H     H_    0.237501 0.413495 0.658939 0.118430
H12   H     H_    0.110827 0.360757 0.750663 0.108595
H13   H     H_    0.886767 0.613703 0.228025 0.143647
H14   H     H_    0.481648 0.861752 0.372425 0.184394
H15   H     H_    0.505535 0.137858 0.627509 0.182052
H16   H     H_    0.439669 0.417070 0.844537 0.146163
H17   H     H_    0.560361 0.582882 0.155445 0.147949
H18   H     H_    0.589054 0.622692 0.935285 0.223227
N1    N     N_2   0.460520 0.445420 0.137370 -0.337199
N2    N     N_2   0.539480 0.554580 0.862630 -0.339095
N3    N     N_3   0.781752 0.371568 0.669568 -0.560984
N4    N     N_3   0.225577 0.638754 0.351217 -0.612271
N5    N     N_3   0.942396 0.336211 0.777919 -0.572396
N6    N     N_3   0.049056 0.622901 0.183544 -0.646223
O1    O     O_R   0.508410 0.332340 0.577400 -0.543758
O2    O     O_R   0.491590 0.667660 0.422600 -0.532024
O3    O     O_R   0.481780 0.295500 0.332650 -0.431328
O4    O     O_R   0.518220 0.704500 0.667350 -0.426874
O5    O     O_R   0.383570 0.518390 0.622380 -0.508512
O6    O     O_R   0.616430 0.481610 0.377620 -0.498773
O7    O     O_R   0.356940 0.481550 0.377630 -0.472888
O8    O     O_R   0.643060 0.518450 0.622370 -0.509616

loop_
_geom_bond_atom_site_label_1
_geom_bond_atom_site_label_2
_ccdc_geom_bond_type
C20   H12   S    
H7    N5    S    
C11   C18   A    
Cu1   Cu2   S    
C1    O3    A    
H3    N3    S    
C5    C7    A    
H10   N6    S    
H6    N4    S    
C10   N4    S    
C4    O6    A    
C22   C24   D    
H18   N2    S    
C1    O1    A    
C12   O4    A    
C1    C22   S    
C2    C26   S    
C22   Cl2   S    
C2    H16   S    
C9    C11   A    
C12   C23   S    
H4    N3    S    
C16   C21   A    
H8    N5    S    
C26   H17   S    
C4    C7    S    
C24   H15   S    
Cu1   O4    S    
C25   H14   S    
C8    C10   A    
C12   O2    A    
Cu2   N1    S    
C18   C20   A    
Cu1   N2    S    
C13   C15   A    
C2    N2    D    
C11   C14   A    
C14   C16   A    
H2    N1    S    
Cu2   O7    S    
H9    N6    S    
C13   C19   A    
C3    O7    A    
Cu2   O3    S    
C4    O8    A    
C23   C25   D    
Cu2   O6    S    
C24   C25   S    
C19   N6    S    
C7    C9    A    
C3    C8    S    
C26   N1    D    
H5    N4    S    
C15   C17   A    
C6    C17   A    
C14   C15   A    
C5    C16   A    
C6    C8    A    
Cu1   O1    S    
C18   N5    S    
C19   C21   A    
Cu1   O8    S    
Cu2   O2    S    
C17   C20   A    
C10   C13   A    
C21   H13   S    
C23   Cl1   S    
Cu1   O5    S    
C3    O5    A    
C5    H1    S    
C6    H11   S    
C9    N3    S    
