data_mof_unit_11759.cif
_audit_creation_date              2012-12-11T14:42:00-0500
_audit_creation_method            fapswitch 2.2
_symmetry_space_group_name_H-M    P1
_symmetry_Int_Tables_number       1
_space_group_crystal_system       triclinic
_cell_length_a                    18.946293
_cell_length_b                    10.944265
_cell_length_c                    18.910527
_cell_angle_alpha                 90.099633
_cell_angle_beta                  90.08357
_cell_angle_gamma                 89.914181
_cell_volume                      3921.14477523

loop_
_atom_site_label
_atom_site_type_symbol
_atom_type_description
_atom_site_fract_x
_atom_site_fract_y
_atom_site_fract_z
_atom_type_partial_charge
C1    C     C_R   0.725722 0.958660 0.855083 0.566847
C2    C     C_R   0.274278 0.958512 0.144908 0.554266
C3    C     C_R   0.225724 0.458654 0.855080 0.567630
C4    C     C_R   0.774277 0.458511 0.144908 0.554824
C5    C     C_R   0.701423 0.478497 0.036560 -0.173090
C6    C     C_R   0.298359 0.478900 0.963631 -0.173133
C7    C     C_R   0.201424 0.978501 0.036559 -0.172935
C8    C     C_R   0.798352 0.978923 0.963638 -0.173286
C9    C     C_R   0.760606 0.429236 0.070883 -0.072154
C10   C     C_R   0.239442 0.429313 0.929065 -0.071074
C11   C     C_R   0.260607 0.929238 0.070882 -0.072123
C12   C     C_R   0.739438 0.929329 0.929070 -0.071056
C13   C     C_R   0.815313 0.377628 0.030781 0.381521
C14   C     C_R   0.184950 0.376976 0.968944 0.381850
C15   C     C_R   0.315313 0.877629 0.030780 0.381493
C16   C     C_R   0.684946 0.876990 0.968948 0.381790
C17   C     C_R   0.812285 0.379335 0.958360 0.401111
C18   C     C_R   0.187934 0.378185 0.041372 0.400240
C19   C     C_R   0.312286 0.879337 0.958359 0.401274
C20   C     C_R   0.687930 0.878198 0.041377 0.400677
C21   C     C_R   0.750341 0.417194 0.923318 -0.080150
C22   C     C_R   0.249615 0.416604 0.076640 -0.084391
C23   C     C_R   0.250342 0.917196 0.923317 -0.080018
C24   C     C_R   0.749610 0.916617 0.076645 -0.083752
C25   C     C_R   0.544904 0.264658 0.524725 0.294537
C26   C     C_R   0.537197 0.257100 0.452916 0.332800
C27   C     C_R   0.046695 0.762488 0.524394 0.291026
C28   C     C_R   0.039073 0.754369 0.452513 0.320910
C29   C     C_R   0.500313 0.159661 0.424020 -0.065998
C30   C     C_R   0.518474 0.171043 0.568419 -0.099884
C31   C     C_R   0.000165 0.658983 0.424074 -0.064662
C32   C     C_R   0.018624 0.670809 0.568410 -0.086671
C33   C     C_R   0.478785 0.060625 0.466716 0.368519
C34   C     C_R   0.487955 0.066803 0.539070 0.327253
C35   C     C_R   0.976977 0.561545 0.467149 0.365690
C36   C     C_R   0.986414 0.567850 0.539457 0.327842
C37   C     C_R   0.787502 0.314551 0.527949 0.386028
C38   C     C_R   0.187192 0.417138 0.455470 0.325512
C39   C     C_R   0.286164 0.812999 0.527802 0.397403
C40   C     C_R   0.686568 0.916915 0.455380 0.317328
C41   C     C_R   0.787382 0.328519 0.455955 -0.041800
C42   C     C_R   0.180333 0.426011 0.527734 -0.145432
C43   C     C_R   0.286492 0.827476 0.455795 -0.040466
C44   C     C_R   0.680161 0.923295 0.527806 -0.145458
C45   C     C_R   0.530133 0.177826 0.851034 0.560518
C46   C     C_R   0.469932 0.177613 0.149004 0.559458
C47   C     C_R   0.030133 0.677826 0.851034 0.560480
C48   C     C_R   0.969932 0.677613 0.149004 0.554772
C49   C     C_R   0.749539 0.422734 0.424634 -0.016187
C50   C     C_R   0.240015 0.430591 0.571927 -0.004487
C51   C     C_R   0.249457 0.922787 0.424636 -0.014981
C52   C     C_R   0.740022 0.930994 0.571692 0.000784
C53   C     C_R   0.706056 0.500758 0.467125 -0.029836
C54   C     C_R   0.308174 0.434957 0.542499 0.039296
C55   C     C_R   0.206442 0.001404 0.467232 -0.027064
C56   C     C_R   0.807887 0.939522 0.541803 -0.010900
C57   C     C_R   0.710878 0.493078 0.541548 -0.031512
C58   C     C_R   0.314459 0.445038 0.468257 -0.099403
C59   C     C_R   0.211455 0.993790 0.541644 -0.030879
C60   C     C_R   0.813889 0.944233 0.467478 -0.098826
C61   C     C_R   0.749377 0.395811 0.571659 0.072627
C62   C     C_R   0.254113 0.417479 0.425021 -0.018005
C63   C     C_R   0.249174 0.895529 0.571620 0.068846
C64   C     C_R   0.753275 0.918447 0.424599 0.019262
C65   C     C_R   0.738745 0.366382 0.852288 0.551065
C66   C     C_R   0.261246 0.366125 0.147684 0.548453
C67   C     C_R   0.238746 0.866382 0.852288 0.550586
C68   C     C_R   0.761245 0.866129 0.147687 0.545926
C69   C     C_R   0.726728 0.957609 0.646160 0.614231
C70   C     C_R   0.271373 0.956689 0.353018 0.555084
C71   C     C_R   0.226747 0.457439 0.646267 0.618285
C72   C     C_R   0.771369 0.456663 0.353004 0.558003
C73   C     C_R   0.533604 0.177008 0.642638 0.626951
C74   C     C_R   0.470329 0.174821 0.354852 0.604031
C75   C     C_R   0.033600 0.676982 0.642646 0.633223
C76   C     C_R   0.970295 0.674739 0.354879 0.597811
C77   C     C_R   0.739303 0.359830 0.645320 0.622982
C78   C     C_R   0.261417 0.363930 0.353940 0.556324
C79   C     C_R   0.239283 0.859874 0.645341 0.623062
C80   C     C_R   0.761083 0.864432 0.353666 0.569328
C81   C     C_2   0.498167 0.169639 0.921328 -0.116644
C82   C     C_2   0.501989 0.169147 0.078751 -0.119218
C83   C     C_2   0.998169 0.669639 0.921329 -0.116885
C84   C     C_2   0.001991 0.669147 0.078752 -0.119641
C85   C     C_2   0.492161 0.069936 0.037969 -0.108643
C86   C     C_2   0.507724 0.070062 0.961760 -0.108892
C87   C     C_2   0.992164 0.569936 0.037970 -0.108561
C88   C     C_2   0.007727 0.570062 0.961762 -0.108968
C89   C     C_R   0.695501 0.473770 0.962736 -0.098111
C90   C     C_R   0.304229 0.473851 0.037456 -0.097526
C91   C     C_R   0.195502 0.973774 0.962735 -0.097927
C92   C     C_R   0.804222 0.973873 0.037463 -0.098870
Cr1   Cr    Cr6+3 0.769270 0.163730 0.750710 1.159341
Cr2   Cr    Cr6+3 0.230730 0.163730 0.249290 1.160106
Cr3   Cr    Cr6+3 0.269270 0.663730 0.750710 1.168785
Cr4   Cr    Cr6+3 0.730730 0.663730 0.249290 1.153644
Cr5   Cr    Cr6+3 0.612620 0.009790 0.748780 1.146656
Cr6   Cr    Cr6+3 0.387380 0.009790 0.251220 1.158442
Cr7   Cr    Cr6+3 0.112620 0.509790 0.748780 1.143452
Cr8   Cr    Cr6+3 0.887380 0.509790 0.251220 1.167344
Cr9   Cr    Cr6+3 0.614160 0.322500 0.747710 1.117074
Cr10  Cr    Cr6+3 0.385840 0.322500 0.252290 1.057733
Cr11  Cr    Cr6+3 0.114160 0.822500 0.747710 1.114994
Cr12  Cr    Cr6+3 0.885840 0.822500 0.252290 1.111222
H1    H     H_    0.471757 0.986161 0.060542 0.256532
H2    H     H_    0.527910 0.986106 0.938894 0.255906
H3    H     H_    0.971761 0.486160 0.060543 0.256755
H4    H     H_    0.027915 0.486107 0.938896 0.255897
H5    H     H_    0.819738 0.267449 0.424542 0.218415
H6    H     H_    0.127338 0.428845 0.549146 0.185735
H7    H     H_    0.318157 0.765552 0.424196 0.202434
H8    H     H_    0.627271 0.923373 0.549519 0.191831
H9    H     H_    0.525038 0.251465 0.056587 0.138018
H10   H     H_    0.475343 0.252172 0.943768 0.139231
H11   H     H_    0.025039 0.751466 0.056588 0.138128
H12   H     H_    0.975344 0.752171 0.943769 0.138958
H13   H     H_    0.660992 0.524475 0.067210 0.228483
H14   H     H_    0.338597 0.525401 0.933191 0.227855
H15   H     H_    0.160994 0.024480 0.067209 0.228769
H16   H     H_    0.838589 0.025429 0.933199 0.227754
O1    O     O_R   0.784320 0.290430 0.830510 -0.425170
O2    O     O_R   0.215680 0.290430 0.169490 -0.415644
O3    O     O_R   0.284320 0.790430 0.830510 -0.425341
O4    O     O_R   0.715680 0.790430 0.169490 -0.418064
O5    O     O_R   0.554640 0.080370 0.673500 -0.465157
O6    O     O_R   0.445360 0.080370 0.326500 -0.431151
O7    O     O_R   0.054640 0.580370 0.673500 -0.469198
O8    O     O_R   0.945360 0.580370 0.326500 -0.434450
O9    O     O_R   0.543920 0.282180 0.666790 -0.436208
O10   O     O_R   0.456080 0.282180 0.333210 -0.488974
O11   O     O_R   0.043920 0.782180 0.666790 -0.433300
O12   O     O_R   0.956080 0.782180 0.333210 -0.459504
O13   O     O_R   0.679040 0.374160 0.674430 -0.459666
O14   O     O_R   0.320960 0.374160 0.325570 -0.561784
O15   O     O_R   0.179040 0.874160 0.674430 -0.458975
O16   O     O_R   0.820960 0.874160 0.325570 -0.491240
O17   O     O_3   0.665350 0.165340 0.749070 -0.327096
O18   O     O_3   0.334650 0.165340 0.250930 -0.309221
O19   O     O_3   0.165350 0.665340 0.749070 -0.328207
O20   O     O_3   0.834650 0.665340 0.250930 -0.319849
O21   O     O_R   0.762640 0.040960 0.825200 -0.507510
O22   O     O_R   0.237360 0.040960 0.174800 -0.505210
O23   O     O_R   0.262640 0.540960 0.825200 -0.506902
O24   O     O_R   0.737360 0.540960 0.174800 -0.506480
O25   O     O_R   0.667400 0.923970 0.829950 -0.432578
O26   O     O_R   0.332600 0.923970 0.170050 -0.443092
O27   O     O_R   0.167400 0.423970 0.829950 -0.432955
O28   O     O_R   0.832600 0.423970 0.170050 -0.439653
O29   O     O_R   0.553960 0.081340 0.821780 -0.480531
O30   O     O_R   0.446040 0.081340 0.178220 -0.481639
O31   O     O_R   0.053960 0.581340 0.821780 -0.480587
O32   O     O_R   0.946040 0.581340 0.178220 -0.483290
O33   O     O_R   0.543180 0.283240 0.826740 -0.494842
O34   O     O_R   0.456820 0.283240 0.173260 -0.490157
O35   O     O_R   0.043180 0.783240 0.826740 -0.495526
O36   O     O_R   0.956820 0.783240 0.173260 -0.489757
O37   O     O_R   0.678360 0.375140 0.822710 -0.536860
O38   O     O_R   0.321640 0.375140 0.177290 -0.536758
O39   O     O_R   0.178360 0.875140 0.822710 -0.537412
O40   O     O_R   0.821640 0.875140 0.177290 -0.535434
O41   O     O_R   0.785050 0.289380 0.670560 -0.432613
O42   O     O_R   0.214950 0.289380 0.329440 -0.428968
O43   O     O_R   0.285050 0.789380 0.670560 -0.430788
O44   O     O_R   0.714950 0.789380 0.329440 -0.445480
O45   O     O_R   0.763320 0.039990 0.676930 -0.449110
O46   O     O_R   0.236680 0.039990 0.323070 -0.470916
O47   O     O_R   0.263320 0.539990 0.676930 -0.439085
O48   O     O_R   0.736680 0.539990 0.323070 -0.474755
O49   O     O_R   0.668130 0.922920 0.670000 -0.504201
O50   O     O_R   0.331870 0.922920 0.330000 -0.474143
O51   O     O_R   0.168130 0.422920 0.670000 -0.507187
O52   O     O_R   0.831870 0.422920 0.330000 -0.463335
C93   C     C_2   0.656651 0.592017 0.436134 0.353825
H17   H     H_    0.651702 0.681525 0.459622 0.111332
O53   O     O_2   0.618203 0.565981 0.386536 -0.338732
C94   C     C_2   0.372658 0.419113 0.587445 0.311389
H18   H     H_    0.424791 0.437591 0.566720 0.185415
O54   O     O_2   0.368950 0.377643 0.647220 -0.480180
C95   C     C_2   0.156975 0.092549 0.436300 0.344950
H19   H     H_    0.152325 0.182319 0.459496 0.108851
O55   O     O_2   0.118103 0.066042 0.387113 -0.337482
C96   C     C_2   0.872101 0.943686 0.587487 0.288153
H20   H     H_    0.917880 0.996581 0.572028 0.162060
O56   O     O_2   0.875093 0.884981 0.642272 -0.474021
C97   C     C_2   0.675328 0.585472 0.587464 0.272428
H21   H     H_    0.624943 0.624763 0.572386 0.158756
O57   O     O_2   0.703061 0.620516 0.642181 -0.482415
C98   C     C_2   0.381455 0.495683 0.438593 0.233321
H22   H     H_    0.405591 0.462310 0.391041 0.197247
O58   O     O_2   0.411030 0.580905 0.467931 -0.392764
C99   C     C_2   0.176567 0.086760 0.587673 0.268147
H23   H     H_    0.126529 0.127355 0.572607 0.147167
O59   O     O_2   0.204469 0.120787 0.642519 -0.482280
C100  C     C_2   0.883313 0.976924 0.436326 0.304373
H24   H     H_    0.931459 0.935923 0.456202 0.132822
O60   O     O_2   0.887325 0.054193 0.390011 -0.425083
C101  C     C_2   0.633760 0.533177 0.928612 0.344535
H25   H     H_    0.636437 0.563192 0.874085 0.156710
O61   O     O_2   0.579430 0.551852 0.961626 -0.384894
C102  C     C_2   0.365651 0.533686 0.071837 0.343184
H26   H     H_    0.362746 0.563625 0.126427 0.147641
O62   O     O_2   0.419965 0.552786 0.038970 -0.382875
C103  C     C_2   0.133762 0.033182 0.928611 0.344478
H27   H     H_    0.136439 0.063196 0.874084 0.156387
O63   O     O_2   0.079432 0.051858 0.961624 -0.384868
C104  C     C_2   0.865640 0.033714 0.071847 0.343617
H28   H     H_    0.862735 0.063643 0.126440 0.153219
O64   O     O_2   0.919953 0.052828 0.038980 -0.382548
F1    F     F_    0.873808 0.328113 0.061011 -0.565157
F2    F     F_    0.126655 0.327230 0.938510 -0.565369
F3    F     F_    0.373807 0.828110 0.061011 -0.566359
F4    F     F_    0.626653 0.827241 0.938514 -0.565327
F5    F     F_    0.869772 0.337134 0.922819 -0.545415
F6    F     F_    0.130620 0.335152 0.076651 -0.543964
F7    F     F_    0.369772 0.837136 0.922818 -0.545156
F8    F     F_    0.630616 0.835161 0.076656 -0.544507
F9    F     F_    0.578097 0.364456 0.551122 -0.600705
F10   F     F_    0.562051 0.348579 0.411724 -0.543810
F11   F     F_    0.081340 0.860856 0.550619 -0.608268
F12   F     F_    0.065693 0.843703 0.410828 -0.547011
F13   F     F_    0.444581 0.962072 0.439643 -0.529680
F14   F     F_    0.464794 0.973750 0.580409 -0.540496
F15   F     F_    0.940950 0.464663 0.440473 -0.538732
F16   F     F_    0.961746 0.476462 0.581161 -0.546566
F17   F     F_    0.825055 0.219127 0.554284 -0.602096
F18   F     F_    0.128044 0.406044 0.415245 -0.586783
F19   F     F_    0.321840 0.715617 0.554225 -0.565263
F20   F     F_    0.627310 0.904974 0.415413 -0.584998

loop_
_geom_bond_atom_site_label_1
_geom_bond_atom_site_label_2
_ccdc_geom_bond_type
C58   C62   A    
C100  O60   D    
C103  H27   S    
Cr5   O25   S    
C3    O27   A    
C55   C59   A    
C26   F10   S    
C64   C80   S    
C14   C18   A    
C5    C89   A    
C25   F9    S    
C35   C36   A    
C84   C87   D    
C87   C88   S    
C43   C51   A    
C68   O4    A    
C32   C75   S    
Cr10  O14   S    
C97   H21   S    
C60   C100  S    
C63   C79   S    
C93   H17   S    
Cr8   O32   S    
C71   O51   A    
C27   F11   S    
C103  O63   D    
C19   F7    S    
C8    H16   S    
C4    O24   A    
C50   C54   A    
C43   H7    S    
Cr6   O18   S    
C20   F8    S    
C56   C60   A    
Cr1   O1    S    
C38   C42   A    
C35   F15   S    
C39   C63   A    
C70   O46   A    
Cr1   O17   S    
C85   C86   S    
C88   H4    S    
C73   O5    A    
C97   O57   D    
Cr8   O52   S    
C23   C67   S    
C4    O28   A    
C29   C33   A    
Cr5   O49   S    
C98   O58   D    
Cr10  O18   S    
C54   C94   S    
C101  O61   D    
C9    C13   A    
C96   H20   S    
C80   O44   A    
Cr11  O15   S    
C52   C69   S    
Cr8   O20   S    
C46   C82   S    
C52   C56   A    
C59   C99   S    
C92   C104  S    
C22   C66   S    
C12   C16   A    
C61   C77   S    
C102  H26   S    
C49   C72   S    
C81   H10   S    
C15   F3    S    
C66   O2    A    
C8    C92   A    
C51   C70   S    
C65   O1    A    
C13   F1    S    
C36   F16   S    
C39   F19   S    
C81   C86   D    
C16   C20   A    
C38   F18   S    
C44   C52   A    
C94   O54   D    
C83   C88   D    
C48   O36   A    
Cr9   O37   S    
C28   F12   S    
C71   O47   A    
C37   C41   A    
C72   O48   A    
Cr7   O19   S    
C18   F6    S    
C1    C12   S    
C77   O13   A    
C79   O15   A    
Cr12  O40   S    
C17   F5    S    
C2    C11   S    
C24   C92   A    
C41   C49   A    
C44   H8    S    
C75   O11   A    
C7    C11   A    
C96   O56   D    
C93   O53   D    
C77   O41   A    
C46   O34   A    
C73   O9    A    
Cr9   O17   S    
C30   C34   A    
C58   C98   S    
C99   H23   S    
Cr2   O22   S    
C7    H15   S    
C16   F4    S    
C3    O23   A    
C45   O29   A    
Cr5   O5    S    
C10   C14   A    
C30   C73   S    
C14   F2    S    
C104  H28   S    
C21   C89   A    
C29   C74   S    
Cr6   O26   S    
C25   C26   A    
C6    C90   A    
C38   C62   A    
Cr7   O31   S    
C17   C21   A    
Cr4   O44   S    
C67   O3    A    
C98   H22   S    
Cr2   O18   S    
C5    H13   S    
C40   F20   S    
C15   C19   A    
C50   C71   S    
C99   O59   D    
C5    C9    A    
Cr3   O43   S    
Cr4   O24   S    
Cr9   O33   S    
C8    C12   A    
C7    C91   A    
Cr4   O48   S    
C33   C34   A    
C22   C90   A    
C87   H3    S    
C69   O49   A    
Cr12  O36   S    
C78   O14   A    
C2    O22   A    
C53   C93   S    
C42   C50   A    
Cr7   O7    S    
Cr2   O2    S    
Cr4   O4    S    
Cr11  O35   S    
C94   H18   S    
C46   O30   A    
C47   O31   A    
Cr1   O41   S    
C78   O42   A    
C84   H11   S    
C11   C15   A    
C48   O32   A    
Cr9   O9    S    
Cr11  O19   S    
C76   O8    A    
C23   C91   A    
Cr3   O19   S    
C45   O33   A    
C1    O25   A    
C82   C85   D    
C72   O52   A    
C66   O38   A    
Cr1   O21   S    
C19   C23   A    
C67   O39   A    
Cr6   O30   S    
Cr6   O6    S    
Cr3   O3    S    
C25   C30   A    
Cr7   O27   S    
C53   C57   A    
Cr12  O16   S    
C21   C65   S    
C27   C32   A    
Cr8   O8    S    
C57   C97   S    
C83   H12   S    
C62   C78   S    
C28   C31   A    
C45   C81   S    
Cr3   O23   S    
Cr10  O10   S    
C82   H9    S    
C79   O43   A    
Cr10  O38   S    
Cr2   O46   S    
Cr3   O47   S    
Cr4   O20   S    
C37   C61   A    
C32   C36   A    
C57   C61   A    
C18   C22   A    
Cr9   O13   S    
C95   H19   S    
C2    O26   A    
C65   O37   A    
C89   C101  S    
C59   C63   A    
C40   C64   A    
C13   C17   A    
C60   C64   A    
C74   O10   A    
C86   H2    S    
C70   O50   A    
C3    C10   S    
Cr10  O34   S    
C76   O12   A    
Cr11  O39   S    
C31   C76   S    
C74   O6    A    
C56   C96   S    
Cr8   O28   S    
C49   C53   A    
C31   C35   A    
C37   F17   S    
C6    H14   S    
C100  H24   S    
C51   C55   A    
C42   H6    S    
C101  H25   S    
C69   O45   A    
Cr5   O17   S    
C80   O16   A    
C1    O21   A    
C6    C10   A    
C24   C68   S    
Cr1   O45   S    
C47   C83   S    
Cr6   O50   S    
C48   C84   S    
C40   C44   A    
C90   C102  S    
C39   C43   A    
C26   C29   A    
C102  O62   D    
Cr12  O12   S    
C54   C58   A    
C27   C28   A    
Cr5   O29   S    
C55   C95   S    
C41   H5    S    
C85   H1    S    
C95   O55   D    
C4    C9    S    
C68   O40   A    
C104  O64   D    
Cr11  O11   S    
C20   C24   A    
C91   C103  S    
Cr2   O42   S    
C34   F14   S    
Cr7   O51   S    
Cr12  O20   S    
C47   O35   A    
C75   O7    A    
C33   F13   S    
