data_mof_unit_47919.cif
_audit_creation_date              2012-12-10T18:15:19-0500
_audit_creation_method            fapswitch 2.2
_symmetry_space_group_name_H-M    P1
_symmetry_Int_Tables_number       1
_space_group_crystal_system       triclinic
_cell_length_a                    12.571714
_cell_length_b                    13.249693
_cell_length_c                    23.433333
_cell_angle_alpha                 90.835179
_cell_angle_beta                  102.610595
_cell_angle_gamma                 83.361394
_cell_volume                      3783.39077875

loop_
_atom_site_label
_atom_site_type_symbol
_atom_type_description
_atom_site_fract_x
_atom_site_fract_y
_atom_site_fract_z
_atom_type_partial_charge
C1    C     C_R   0.439693 0.690767 0.490202 0.927049
C2    C     C_R   0.416657 0.669010 0.021740 0.684239
C3    C     C_R   0.418978 0.669864 0.962681 -0.216424
C4    C     C_R   0.462761 0.583447 0.936692 -0.088920
C5    C     C_R   0.504897 0.494774 0.970403 -0.091861
C6    C     C_R   0.549222 0.407444 0.944496 -0.162474
C7    C     C_R   0.590970 0.319359 0.978807 0.686646
C8    C     C_R   0.588414 0.318415 0.037859 -0.225158
C9    C     C_R   0.465220 0.583283 0.877450 0.596997
C10   C     C_R   0.549660 0.411288 0.884813 0.617473
C11   C     C_R   0.409370 0.486660 0.752048 -0.185376
C12   C     C_R   0.500796 0.500353 0.610603 0.922939
C13   C     C_R   0.407303 0.487249 0.692619 -0.193304
C14   C     C_R   0.502802 0.500556 0.673121 -0.136191
C15   C     C_R   0.600173 0.513620 0.713848 -0.259456
C16   C     C_R   0.602028 0.512829 0.773332 0.712742
C17   C     C_R   0.506598 0.499204 0.792278 0.162068
C18   C     C_R   0.592609 0.518015 0.248642 0.187032
C19   C     C_R   0.590562 0.521476 0.307811 -0.245600
C20   C     C_R   0.499107 0.496287 0.327128 -0.105398
C21   C     C_R   0.408530 0.467028 0.286935 -0.195902
C22   C     C_R   0.407884 0.463676 0.227356 0.171695
C23   C     C_R   0.559711 0.309142 0.502721 0.905395
C24   C     C_R   0.500336 0.489700 0.208266 0.238444
C25   C     C_R   0.724717 0.056918 0.488356 -0.182121
C26   C     C_R   0.591404 0.201626 0.493787 -0.186664
C27   C     C_R   0.298917 0.836920 0.490508 0.615807
C28   C     C_R   0.268939 0.941257 0.492617 0.071254
C29   C     C_R   0.345458 0.007339 0.487904 -0.262348
C30   C     C_R   0.448300 0.971423 0.474982 0.088943
C31   C     C_R   0.474526 0.866464 0.468053 0.006433
C32   C     C_R   0.530391 0.035909 0.474541 -0.005398
C33   C     C_R   0.639455 0.994783 0.475063 0.100602
C34   C     C_R   0.499431 0.499246 0.389434 0.868170
C35   C     C_R   0.659707 0.893540 0.460209 -0.182109
C36   C     C_R   0.575332 0.832050 0.452299 -0.109394
C37   C     C_R   0.507320 0.140495 0.474171 0.558770
C38   C     C_R   0.701139 0.159457 0.501010 -0.275052
C39   C     C_R   0.402473 0.799026 0.480331 -0.286322
C40   C     C_R   0.081572 0.360323 0.409502 -0.067873
C41   C     C_R   0.802584 0.628639 0.569739 0.761770
C42   C     C_R   0.908295 0.656391 0.583682 -0.311874
C43   C     C_R   0.988230 0.607778 0.556850 -0.283454
C44   C     C_R   0.962795 0.530207 0.515734 0.064846
C45   C     C_R   0.541823 0.404943 0.123063 0.538274
C46   C     C_R   0.853531 0.505226 0.502797 0.114064
C47   C     C_R   0.040684 0.477867 0.486469 -0.011413
C48   C     C_R   0.006445 0.406474 0.441985 0.062074
C49   C     C_R   0.898398 0.382623 0.431386 -0.255596
C50   C     C_R   0.824627 0.429693 0.461997 -0.179427
C51   C     C_R   0.151939 0.493622 0.499763 -0.164960
C52   C     C_R   0.190268 0.381575 0.424990 0.748586
C53   C     C_R   0.458161 0.577249 0.115683 0.535324
C54   C     C_R   0.458409 0.580936 0.056030 -0.148707
C55   C     C_R   0.502560 0.493509 0.030134 -0.090185
C56   C     C_R   0.544544 0.404790 0.063847 -0.078334
H1    H     H_    0.660790 0.544538 0.338749 0.177225
H2    H     H_    0.338113 0.446244 0.301796 0.203606
H3    H     H_    0.767485 0.206173 0.513698 0.188471
H4    H     H_    0.740023 0.862222 0.454211 0.142265
H5    H     H_    0.808983 0.025714 0.490482 0.150828
H6    H     H_    0.325035 0.085816 0.498048 0.216788
H7    H     H_    0.386219 0.738634 0.937387 0.224512
H8    H     H_    0.592131 0.756562 0.435972 0.160752
H9    H     H_    0.869202 0.326082 0.399982 0.169203
H10   H     H_    0.185641 0.543918 0.533672 0.187641
H11   H     H_    0.068209 0.633670 0.568558 0.197297
H12   H     H_    0.928261 0.715820 0.615069 0.198307
H13   H     H_    0.744834 0.405352 0.452346 0.213836
H14   H     H_    0.621102 0.249636 0.063158 0.221648
H15   H     H_    0.335678 0.476230 0.767000 0.173762
H16   H     H_    0.331127 0.477313 0.662103 0.179626
H17   H     H_    0.674775 0.524088 0.699813 0.211485
N1    N     N_R   0.499394 0.490303 0.147376 -0.371095
N2    N     N_R   0.507918 0.498109 0.853088 -0.349241
N3    N     N_R   0.222200 0.444670 0.469780 -0.168545
N4    N     N_R   0.776960 0.554790 0.529910 -0.190119
O1    O     O_R   0.366740 0.627150 0.485570 -0.561239
O2    O     O_2   0.418109 0.659536 0.142275 -0.472866
O3    O     O_2   0.425411 0.667349 0.844251 -0.525645
O4    O     O_2   0.590507 0.329284 0.858298 -0.442165
O5    O     O_R   0.544830 0.662520 0.504870 -0.582511
O6    O     O_R   0.410930 0.482340 0.574190 -0.636431
O7    O     O_R   0.589010 0.517710 0.593490 -0.568798
O8    O     O_R   0.455170 0.337480 0.495130 -0.514280
O9    O     O_R   0.633260 0.372850 0.514430 -0.659292
O10   O     O_R   0.410990 0.482290 0.406510 -0.568761
O11   O     O_R   0.589070 0.517660 0.425810 -0.671649
O12   O     O_2   0.581207 0.320882 0.156309 -0.550372
Zn1   Zn    Zn3+2 0.381090 0.476380 0.487110 1.047214
Zn2   Zn    Zn3+2 0.618910 0.523620 0.512890 0.980744
F1    F     F_    0.373359 0.754676 0.044778 -0.592018
C57   C     C_3   0.308340 0.431181 0.185406 -0.401332
C58   C     C_3   0.210317 0.512954 0.178982 -0.793218
H18   H     H_    0.186652 0.527084 0.221622 0.249935
H19   H     H_    0.230417 0.584866 0.162355 0.299845
H20   H     H_    0.139230 0.487543 0.147415 0.257313
H21   H     H_    0.324623 0.414574 0.141364 0.221459
H22   H     H_    0.286708 0.359681 0.201841 0.225079
F2    F     F_    0.405126 0.182731 0.447593 -0.628525
F3    F     F_    0.230001 0.772668 0.502974 -0.676667
C59   C     C_3   0.158725 0.982069 0.504861 -0.351287
C60   C     C_3   0.063993 0.955791 0.456024 -0.804871
H23   H     H_    0.079120 0.973552 0.412540 0.260314
H24   H     H_    0.053232 0.874038 0.457764 0.299292
H25   H     H_    0.986643 0.000731 0.461233 0.224435
H26   H     H_    0.150224 0.950134 0.547017 0.235654
H27   H     H_    0.151965 0.066123 0.509215 0.193382
F4    F     F_    0.265068 0.340063 0.395021 -0.619033
C61   C     C_3   0.049168 0.290726 0.358191 -0.360844
C62   C     C_3   0.055087 0.181395 0.378980 -0.805190
H28   H     H_    0.999709 0.175695 0.409472 0.247845
H29   H     H_    0.029873 0.132198 0.340806 0.251979
H30   H     H_    0.140474 0.153602 0.401604 0.296446
H31   H     H_    0.966129 0.316707 0.331926 0.195065
H32   H     H_    0.104597 0.292717 0.327303 0.252348
F5    F     F_    0.724899 0.676008 0.595984 -0.636613
F6    F     F_    0.634358 0.233735 0.955773 -0.585718
F7    F     F_    0.696186 0.525485 0.812578 -0.626464
C63   C     C_3   0.693327 0.546508 0.229931 -0.379753
C64   C     C_3   0.791631 0.466417 0.249980 -0.846745
H33   H     H_    0.813883 0.460743 0.298452 0.248336
H34   H     H_    0.772540 0.391144 0.231710 0.293483
H35   H     H_    0.863340 0.487921 0.234416 0.253768
H36   H     H_    0.679529 0.555623 0.181809 0.215677
H37   H     H_    0.713427 0.621029 0.249088 0.214078

loop_
_geom_bond_atom_site_label_1
_geom_bond_atom_site_label_2
_ccdc_geom_bond_type
C55   C56   A    
C57   C58   S    
C18   C63   S    
C41   C42   A    
C19   C20   A    
C8    C56   A    
C7    C8    A    
C53   C54   A    
O1    Zn1   S    
C49   H9    S    
C18   C24   A    
C28   C29   A    
C53   O2    S    
C50   H13   S    
O9    Zn2   S    
C41   N4    A    
C5    C6    A    
C11   H15   S    
C15   C16   A    
C12   O7    A    
C18   C19   A    
C23   C26   S    
C61   C62   S    
C64   H35   S    
C29   H6    S    
C11   C17   A    
C35   C36   A    
C45   C56   A    
C27   C39   A    
C16   C17   A    
C23   O9    A    
C59   H27   S    
O7    Zn2   S    
C60   H25   S    
C45   O12   S    
C57   H22   S    
C44   C47   A    
C40   C61   S    
C20   C34   S    
C13   C14   A    
C42   H12   S    
C1    O1    A    
C7    F6    S    
C59   C60   S    
C44   C46   A    
C51   N3    A    
C60   H24   S    
C2    C54   A    
C16   F7    S    
C63   H36   S    
C26   C38   A    
C34   O11   A    
C58   H20   S    
C1    O5    A    
C40   C52   A    
C27   F3    S    
C19   H1    S    
O5    Zn2   S    
C12   O6    A    
C45   N1    A    
C9    O3    S    
C58   H19   S    
C43   C44   A    
C29   C30   A    
C25   C38   A    
C10   N2    A    
C47   C48   A    
O11   Zn2   S    
C59   H26   S    
C62   H29   S    
C25   H5    S    
C32   C37   A    
C2    F1    S    
C64   H33   S    
C48   C49   A    
C15   H17   S    
C12   C14   S    
C22   C57   S    
C22   C24   A    
C42   C43   A    
C3    C4    A    
C61   H32   S    
C27   C28   A    
C63   C64   S    
C40   C48   A    
O6    Zn1   S    
C54   C55   A    
N4    Zn2   S    
C62   H28   S    
C31   C36   A    
C5    C55   A    
C4    C5    A    
C52   N3    A    
C6    C10   A    
C46   N4    A    
C47   C51   A    
O8    Zn1   S    
C26   C37   A    
C6    C7    A    
C13   H16   S    
C3    H7    S    
C46   C50   A    
C10   O4    S    
C8    H14   S    
C32   C33   A    
C2    C3    A    
C21   H2    S    
C36   H8    S    
C30   C32   A    
C11   C13   A    
C24   N1    S    
C30   C31   A    
C52   F4    S    
C61   H31   S    
C33   C35   A    
C31   C39   A    
C62   H30   S    
C63   H37   S    
C34   O10   A    
C58   H18   S    
C64   H34   S    
C1    C39   S    
C38   H3    S    
C28   C59   S    
C20   C21   A    
C43   H11   S    
C49   C50   A    
C23   O8    A    
O10   Zn1   S    
C25   C33   A    
C60   H23   S    
C17   N2    S    
C14   C15   A    
C35   H4    S    
C9    N2    A    
C41   F5    S    
C4    C9    A    
C21   C22   A    
C57   H21   S    
C51   H10   S    
C37   F2    S    
N3    Zn1   S    
C53   N1    A    
