data_mof_unit_15295.cif
_audit_creation_date              2012-12-11T14:08:11-0500
_audit_creation_method            fapswitch 2.2
_symmetry_space_group_name_H-M    P1
_symmetry_Int_Tables_number       1
_space_group_crystal_system       triclinic
_cell_length_a                    10.958487
_cell_length_b                    10.959981
_cell_length_c                    18.563928
_cell_angle_alpha                 90.548039
_cell_angle_beta                  90.150163
_cell_angle_gamma                 59.789913
_cell_volume                      1926.71000005

loop_
_atom_site_label
_atom_site_type_symbol
_atom_type_description
_atom_site_fract_x
_atom_site_fract_y
_atom_site_fract_z
_atom_type_partial_charge
C1    C     C_R   0.237511 0.645442 0.609182 0.542062
C2    C     C_3   0.652231 0.610558 0.802701 -0.222944
C3    C     C_3   0.729385 0.696224 0.806857 0.052488
C4    C     C_3   0.683558 0.658742 0.672835 0.055427
C5    C     C_3   0.844710 0.593132 0.686688 -0.230520
C6    C     C_3   0.623787 0.590248 0.724167 -0.229741
C7    C     C_2   0.677370 0.157915 0.671149 -0.123347
C8    C     C_2   0.685473 0.171387 0.828863 -0.121744
C9    C     C_2   0.797418 0.133332 0.785818 -0.180724
C10   C     C_2   0.777979 0.166225 0.708770 -0.177261
C11   C     C_2   0.186121 0.660715 0.682868 -0.125260
C12   C     C_R   0.657622 0.626406 0.599116 0.548214
C13   C     C_2   0.201250 0.658745 0.841171 -0.117914
C14   C     C_2   0.204127 0.554877 0.801440 -0.184260
C15   C     C_2   0.231163 0.544944 0.723835 -0.177181
C16   C     C_2   0.593723 0.595071 0.310622 0.075454
C17   C     C_2   0.646094 0.664235 0.162945 -0.073667
C18   C     C_2   0.699816 0.533130 0.189078 -0.136394
C19   C     C_2   0.700034 0.509144 0.266673 -0.152130
C20   C     C_2   0.678547 0.133468 0.334640 -0.090998
C21   C     C_2   0.653681 0.142122 0.180282 -0.116663
C22   C     C_2   0.627890 0.058210 0.222499 -0.129361
C23   C     C_R   0.628580 0.228009 0.602036 0.548596
C24   C     C_2   0.609648 0.079211 0.299827 0.074398
C25   C     C_2   0.112203 0.683787 0.348238 -0.091906
C26   C     C_2   0.104451 0.695098 0.193037 -0.068291
C27   C     C_2   0.027223 0.807989 0.236491 -0.129063
C28   C     C_2   0.055559 0.805295 0.313378 -0.139996
C29   C     C_R   0.702226 0.103316 0.897969 0.541641
C30   C     C_R   0.757376 0.712438 0.883088 0.551324
C31   C     C_R   0.120848 0.704987 0.908079 0.546413
C32   C     C_R   0.675286 0.106092 0.105108 0.545713
C33   C     C_R   0.693517 0.687945 0.094888 0.550989
C34   C     C_R   0.211564 0.653213 0.406328 0.562675
C35   C     C_R   0.083481 0.714966 0.116391 0.560674
C36   C     C_R   0.609938 0.582110 0.388945 0.600895
C37   C     C_R   0.622298 0.220867 0.398159 0.563125
C38   C     C_3   0.636504 0.841431 0.769492 -0.237312
C39   C     C_3   0.610107 0.818979 0.689739 -0.245973
C40   C     C_3   0.870919 0.617157 0.765354 -0.245624
Cr1   Cr    Cr6+3 0.393010 0.398050 0.501480 1.041608
Cr2   Cr    Cr6+3 0.398820 0.707980 0.501630 1.057042
Cr3   Cr    Cr6+3 0.708140 0.393940 0.496850 1.013578
Cr4   Cr    Cr6+3 0.937950 0.938450 0.008940 1.025815
Cr5   Cr    Cr6+3 0.626180 0.937030 0.994750 1.025384
Cr6   Cr    Cr6+3 0.937790 0.625760 0.001410 1.019882
H1    H     H_    0.690065 0.904692 0.772366 0.115413
H2    H     H_    0.672979 0.475222 0.712350 0.133146
H3    H     H_    0.942660 0.513304 0.790443 0.135101
H4    H     H_    0.902325 0.477358 0.675804 0.143605
H5    H     H_    0.904485 0.072332 0.806220 0.154575
H6    H     H_    0.843693 0.202280 0.683891 0.152777
H7    H     H_    0.578931 0.233913 0.807858 0.111610
H8    H     H_    0.615812 0.117058 0.696130 0.100769
H9    H     H_    0.175745 0.481856 0.824543 0.148014
H10   H     H_    0.287759 0.439685 0.700174 0.161391
H11   H     H_    0.237328 0.726233 0.818453 0.107134
H12   H     H_    0.532969 0.902989 0.797448 0.143979
H13   H     H_    0.127471 0.766071 0.706283 0.103283
H14   H     H_    0.767220 0.442057 0.155406 0.147919
H15   H     H_    0.796594 0.422637 0.288615 0.141987
H16   H     H_    0.591293 0.756712 0.197213 0.147190
H17   H     H_    0.612824 0.975417 0.199123 0.162835
H18   H     H_    0.669556 0.225991 0.201121 0.088623
H19   H     H_    0.766565 0.135291 0.308758 0.071356
H20   H     H_    0.954205 0.910390 0.213786 0.153192
H21   H     H_    0.494458 0.870091 0.680100 0.137199
H22   H     H_    0.054200 0.897136 0.336912 0.170463
H23   H     H_    0.179925 0.591286 0.213143 0.110985
H24   H     H_    0.103991 0.595802 0.326325 0.120802
H25   H     H_    0.652160 0.869916 0.653756 0.119409
H26   H     H_    0.923940 0.680950 0.767107 0.121939
H27   H     H_    0.889158 0.641047 0.650139 0.124263
H28   H     H_    0.717152 0.505098 0.827779 0.146429
H29   H     H_    0.550401 0.666530 0.832716 0.131083
H30   H     H_    0.507886 0.637971 0.716040 0.127864
O1    O     O_R   0.507110 0.256280 0.580300 -0.515541
O2    O     O_R   0.524640 0.695370 0.425100 -0.447379
O3    O     O_R   0.735890 0.504390 0.415980 -0.521581
O4    O     O_R   0.690560 0.277820 0.422350 -0.531852
O5    O     O_3   0.499990 0.499990 0.499980 -0.284127
O6    O     O_R   0.089190 0.825870 0.932320 -0.513912
O7    O     O_R   0.819070 0.053960 0.931440 -0.494416
O8    O     O_R   0.607070 0.076440 0.916460 -0.525632
O9    O     O_R   0.647110 0.806550 0.917690 -0.505086
O10   O     O_R   0.837080 0.593860 0.915300 -0.524608
O11   O     O_R   0.064770 0.636080 0.932550 -0.511505
O12   O     O_R   0.280830 0.527190 0.577940 -0.500909
O13   O     O_R   0.068250 0.829200 0.092940 -0.495993
O14   O     O_R   0.799650 0.057040 0.080330 -0.502633
O15   O     O_R   0.586130 0.079760 0.077080 -0.499379
O16   O     O_R   0.627700 0.809630 0.066580 -0.490899
O17   O     O_R   0.816140 0.597180 0.075920 -0.507904
O18   O     O_R   0.045360 0.639170 0.081440 -0.494927
O19   O     O_3   0.833980 0.833750 0.001700 -0.273675
O20   O     O_R   0.261360 0.738990 0.584270 -0.518377
O21   O     O_R   0.532590 0.694780 0.574370 -0.499162
O22   O     O_R   0.744470 0.503750 0.577000 -0.525735
O23   O     O_R   0.698520 0.277230 0.571620 -0.499086
O24   O     O_R   0.498530 0.256920 0.419280 -0.463598
O25   O     O_R   0.272880 0.527780 0.428680 -0.495133
O26   O     O_R   0.252780 0.739630 0.423250 -0.488615
I1    I     I_    0.386890 0.736889 0.270689 -0.363120
I2    I     I_    0.467113 0.026067 0.348668 -0.294673

loop_
_geom_bond_atom_site_label_1
_geom_bond_atom_site_label_2
_ccdc_geom_bond_type
C7    C10   D    
C23   O23   A    
C1    C11   S    
Cr3   O22   S    
Cr4   O7    S    
C10   H6    S    
C25   C28   D    
C26   C27   D    
C34   O26   A    
C31   O6    A    
C6    H2    S    
Cr2   O20   S    
C8    C29   S    
C28   H22   S    
Cr3   O23   S    
C29   O7    A    
Cr4   O6    S    
C16   C19   D    
Cr1   O1    S    
C38   C39   S    
C32   O15   A    
C13   H11   S    
Cr3   O3    S    
C40   H3    S    
C18   C19   S    
Cr5   O16   S    
C21   H18   S    
C22   H17   S    
C38   H12   S    
C11   C15   D    
C32   O14   A    
Cr6   O19   S    
C20   C24   D    
C3    C38   S    
C8    C9    D    
C9    H5    S    
C30   O10   A    
C9    C10   S    
C12   O22   A    
C2    H28   S    
C25   C34   S    
C1    O12   A    
C14   H9    S    
C21   C22   D    
C2    C6    S    
Cr2   O5    S    
C17   C33   S    
C11   H13   S    
Cr2   O26   S    
C37   O4    A    
C21   C32   S    
C34   O25   A    
C31   O11   A    
C20   H19   S    
C29   O8    A    
C4    C6    S    
Cr2   O21   S    
Cr3   O4    S    
C24   I2    S    
C3    C30   S    
Cr5   O9    S    
C17   H16   S    
C16   I1    S    
Cr6   O18   S    
C4    C39   S    
Cr1   O5    S    
C17   C18   D    
C12   O21   A    
Cr1   O24   S    
C23   O1    A    
C30   O9    A    
C38   H1    S    
C35   O13   A    
C18   H14   S    
C3    C40   S    
Cr2   O2    S    
Cr3   O5    S    
C22   C24   S    
C5    H4    S    
C33   O16   A    
Cr5   O8    S    
C4    C12   S    
Cr5   O19   S    
Cr4   O14   S    
Cr6   O11   S    
C35   O18   A    
Cr1   O12   S    
C40   H26   S    
C39   H21   S    
C13   C31   S    
C4    C5    S    
C36   O3    A    
C33   O17   A    
C8    H7    S    
C6    H30   S    
C15   H10   S    
C2    C3    S    
C27   H20   S    
C36   O2    A    
C16   C36   S    
C20   C37   S    
Cr6   O17   S    
C19   H15   S    
C1    O20   A    
C7    C23   S    
Cr1   O25   S    
C5    H27   S    
Cr5   O15   S    
C2    H29   S    
C26   C35   S    
C5    C40   S    
C27   C28   S    
Cr4   O19   S    
C26   H23   S    
C39   H25   S    
C14   C15   S    
C25   H24   S    
C7    H8    S    
C13   C14   D    
C37   O24   A    
Cr4   O13   S    
Cr6   O10   S    
