data_mof_unit_57174.cif
_audit_creation_date              2012-12-11T16:58:15-0500
_audit_creation_method            fapswitch 2.2
_symmetry_space_group_name_H-M    P1
_symmetry_Int_Tables_number       1
_space_group_crystal_system       triclinic
_cell_length_a                    16.95275
_cell_length_b                    7.244184
_cell_length_c                    16.728941
_cell_angle_alpha                 90.966423
_cell_angle_beta                  100.179419
_cell_angle_gamma                 89.06172
_cell_volume                      2021.64795104

loop_
_atom_site_label
_atom_site_type_symbol
_atom_type_description
_atom_site_fract_x
_atom_site_fract_y
_atom_site_fract_z
_atom_type_partial_charge
O1    O     O_R   0.413450 0.494370 0.415710 -0.514104
O2    O     O_R   0.586550 0.994370 0.584290 -0.541836
O3    O     O_R   0.578420 0.819350 0.429360 -0.545577
O4    O     O_R   0.421580 0.319350 0.570640 -0.540090
C1    C     C_R   0.605971 0.653339 0.415411 0.697264
C2    C     C_R   0.394184 0.158076 0.585057 0.711389
O5    O     O_R   0.413570 0.823780 0.406240 -0.523129
O6    O     O_R   0.586430 0.323780 0.593760 -0.538706
O7    O     O_R   0.420530 0.998740 0.561000 -0.539573
O8    O     O_R   0.579470 0.498740 0.439000 -0.532935
C3    C     C_R   0.384406 0.655804 0.385497 0.722722
C4    C     C_R   0.612491 0.155371 0.617446 0.695621
O9    O     O_3   0.502480 0.662320 0.550800 -0.382059
O10   O     O_3   0.497520 0.162320 0.449200 -0.357163
V1    V     V_3+5 0.499540 0.935370 0.490580 1.447098
V2    V     V_3+5 0.500460 0.435370 0.509420 1.450470
C5    C     C_R   0.736647 0.009306 0.693827 -0.054110
C6    C     C_R   0.293685 0.484920 0.275799 0.043235
C7    C     C_R   0.677117 0.144885 0.689531 -0.247168
C8    C     C_R   0.310097 0.645549 0.322954 -0.346901
C9    C     C_R   0.682589 0.266755 0.758544 0.338833
C10   C     C_R   0.249585 0.787032 0.312041 0.406354
C11   C     C_R   0.748843 0.253459 0.824200 0.344328
C12   C     C_R   0.182963 0.774389 0.247392 0.385485
C13   C     C_R   0.811545 0.118834 0.822243 -0.251498
C14   C     C_R   0.175453 0.620343 0.192029 -0.315287
C15   C     C_R   0.799649 0.995239 0.756619 -0.045392
C16   C     C_R   0.229014 0.472365 0.212619 0.012213
C17   C     C_3   0.840531 0.848383 0.713638 0.472652
C18   C     C_3   0.274263 0.345322 0.164176 0.435131
C19   C     C_3   0.768545 0.865416 0.642770 0.264907
C20   C     C_3   0.345854 0.361767 0.234388 0.266392
H1    H     H_    0.729835 0.741630 0.630807 0.046133
H2    H     H_    0.399503 0.433136 0.220514 0.017940
C21   C     C_R   0.327766 0.161301 0.632607 -0.096988
C22   C     C_R   0.672126 0.634957 0.367979 -0.092193
C23   C     C_R   0.169059 0.109126 0.864167 -0.069190
C24   C     C_R   0.831480 0.634577 0.135727 -0.069139
C25   C     C_R   0.292296 0.978723 0.829155 -0.144452
C26   C     C_R   0.707995 0.775280 0.165127 -0.146524
C27   C     C_R   0.237160 0.991209 0.882622 0.147627
C28   C     C_R   0.763289 0.749977 0.112413 0.151935
C29   C     C_R   0.159253 0.215039 0.793368 -0.249987
C30   C     C_R   0.841265 0.543869 0.210503 -0.259121
C31   C     C_R   0.214352 0.201208 0.738555 0.103532
C32   C     C_R   0.785995 0.570482 0.264401 0.103928
C33   C     C_R   0.281047 0.079768 0.757178 0.078741
C34   C     C_R   0.719171 0.689232 0.240846 0.077857
C35   C     C_R   0.336936 0.061828 0.704687 -0.271554
C36   C     C_R   0.663105 0.719416 0.292272 -0.268817
C37   C     C_R   0.259173 0.277568 0.610699 0.141749
C38   C     C_R   0.740802 0.521762 0.394618 0.141202
C39   C     C_R   0.203794 0.303258 0.665304 0.152524
C40   C     C_R   0.796487 0.483697 0.341401 0.152896
H3    H     H_    0.389363 0.973352 0.721058 0.133130
H4    H     H_    0.610694 0.805933 0.272404 0.127645
H5    H     H_    0.344167 0.887786 0.843379 0.123330
H6    H     H_    0.656001 0.864223 0.147248 0.118191
H7    H     H_    0.106386 0.302593 0.780415 0.140653
H8    H     H_    0.894154 0.457667 0.226933 0.140147
O11   O     O_R   0.920630 0.775410 0.061150 -0.534662
O12   O     O_R   0.079370 0.275410 0.938850 -0.538574
O13   O     O_R   0.086500 0.441450 0.093690 -0.537610
O14   O     O_R   0.913500 0.941450 0.906310 -0.542036
C41   C     C_R   0.112335 0.610387 0.117844 0.721387
C42   C     C_R   0.884747 0.109710 0.885411 0.698315
O15   O     O_R   0.921670 0.445960 0.070740 -0.540311
O16   O     O_R   0.078330 0.945960 0.929260 -0.538433
O17   O     O_R   0.913380 0.271130 0.915780 -0.529215
O18   O     O_R   0.086620 0.771130 0.084220 -0.526563
C43   C     C_R   0.895173 0.616456 0.085167 0.702065
C44   C     C_R   0.104972 0.111606 0.914701 0.691936
O19   O     O_3   0.997500 0.603030 0.949220 -0.380841
O20   O     O_3   0.002500 0.103030 0.050780 -0.371261
V3    V     V_3+5 0.000470 0.329940 0.009420 1.419549
V4    V     V_3+5 0.999530 0.829940 0.990580 1.405676
O21   O     O_3   0.623610 0.396069 0.766470 -0.616973
H9    H     H_    0.572195 0.354857 0.734075 0.284436
O22   O     O_3   0.251628 0.937790 0.363902 -0.585641
H10   H     H_    0.278613 0.900475 0.418726 0.283721
C45   C     C_3   0.133944 0.439125 0.646780 -0.758793
H11   H     H_    0.133659 0.521950 0.591820 0.221660
H12   H     H_    0.076542 0.363568 0.638506 0.218347
H13   H     H_    0.136272 0.540089 0.697823 0.209411
C46   C     C_3   0.866693 0.350921 0.365453 -0.758651
H14   H     H_    0.867142 0.280215 0.423588 0.232922
H15   H     H_    0.864770 0.239777 0.318632 0.208960
H16   H     H_    0.923873 0.426528 0.370752 0.210487
C47   C     C_3   0.252974 0.879998 0.959426 -0.757262
H17   H     H_    0.249739 0.971146 0.012747 0.220710
H18   H     H_    0.208412 0.768505 0.956370 0.221108
H19   H     H_    0.313426 0.813889 0.968892 0.199612
C48   C     C_3   0.747448 0.844320 0.031243 -0.731182
H20   H     H_    0.751837 0.742475 0.981784 0.227022
H21   H     H_    0.686563 0.908136 0.018673 0.199287
H22   H     H_    0.791334 0.955831 0.030186 0.205114
O23   O     O_3   0.747863 0.370679 0.890000 -0.622683
H23   H     H_    0.777683 0.311400 0.939367 0.282874
O24   O     O_3   0.125910 0.913852 0.242079 -0.595052
H24   H     H_    0.072999 0.861069 0.219489 0.284425
C49   C     C_3   0.847437 0.658919 0.754048 -0.784670
H25   H     H_    0.790490 0.624008 0.774090 0.219607
H26   H     H_    0.860966 0.551318 0.710173 0.211623
H27   H     H_    0.896385 0.658079 0.807539 0.235309
C50   C     C_3   0.290038 0.423247 0.083733 -0.890006
H28   H     H_    0.313103 0.566217 0.092536 0.200687
H29   H     H_    0.334984 0.334800 0.059916 0.227366
H30   H     H_    0.233960 0.425127 0.038006 0.219935
O25   O     O_3   0.912766 0.907924 0.693077 -0.595694
H31   H     H_    0.950854 0.925795 0.744852 0.284188
O26   O     O_3   0.242783 0.166328 0.156055 -0.598410
H32   H     H_    0.190205 0.174461 0.119210 0.319073
O27   O     O_3   0.789641 0.941067 0.572979 -0.607448
H33   H     H_    0.740224 0.940097 0.531144 0.279804
O28   O     O_3   0.364041 0.197274 0.277109 -0.576729
H34   H     H_    0.398343 0.123666 0.245849 0.293909
C51   C     C_3   0.243173 0.368193 0.528115 -0.720718
H35   H     H_    0.282365 0.314780 0.486283 0.220210
H36   H     H_    0.181100 0.338837 0.497054 0.217912
H37   H     H_    0.251561 0.519637 0.535349 0.193979
C52   C     C_3   0.756783 0.447977 0.480467 -0.708747
H38   H     H_    0.716933 0.508975 0.519884 0.188543
H39   H     H_    0.749370 0.295911 0.478990 0.214910
H40   H     H_    0.818496 0.483380 0.510674 0.222325

loop_
_geom_bond_atom_site_label_1
_geom_bond_atom_site_label_2
_ccdc_geom_bond_type
C27   C47   S    
O13   C41   A    
C23   C29   A    
C48   H20   S    
C15   C17   S    
C12   O24   S    
O26   H32   S    
O1    C3    A    
O2    C4    A    
C2    O7    A    
C45   H11   S    
O3    V1    S    
C33   C35   A    
C46   H14   S    
O5    C3    A    
C50   H29   S    
C49   H25   S    
C17   O25   S    
C7    C9    A    
C12   C14   A    
C10   O22   S    
C24   C28   A    
C51   H36   S    
C42   O17   A    
O28   H34   S    
C28   C48   S    
C1    C22   S    
C2    C21   S    
C39   C45   S    
C31   C33   A    
C52   H40   S    
C5    C7    A    
C30   C32   A    
C21   C35   A    
C19   H1    S    
C47   H18   S    
O15   C43   A    
C22   C38   A    
C29   H7    S    
O11   C43   A    
C34   C36   A    
C31   C39   A    
O6    V2    S    
C45   H12   S    
C38   C40   A    
O23   H23   S    
C46   H15   S    
O11   V4    S    
C50   H30   S    
C32   C34   A    
C3    C8    S    
C26   H6    S    
O20   V3    S    
O12   C44   A    
C5    C15   A    
C6    C16   A    
O4    C2    A    
C51   H37   S    
C35   H3    S    
C36   H4    S    
O16   C44   A    
C37   C39   A    
O14   C42   A    
O4    V2    S    
C24   C30   A    
C18   C20   S    
C38   C52   S    
O24   H24   S    
O6    C4    A    
C32   C40   A    
O14   V4    S    
C17   C49   S    
O1    V2    S    
O16   V4    S    
C47   H19   S    
O2    V1    S    
C29   C31   A    
C52   H38   S    
C11   O23   S    
C8    C10   A    
C48   H22   S    
C9    C11   A    
C18   C50   S    
C21   C37   A    
C13   C15   A    
C5    C19   S    
O19   V4    S    
C10   C12   A    
O12   V3    S    
C23   C44   S    
C6    C20   S    
C45   H13   S    
C22   C36   A    
C25   C33   A    
O27   H33   S    
C49   H26   S    
C46   H16   S    
C26   C34   A    
C24   C43   S    
O10   V1    S    
C14   C41   S    
C13   C42   S    
C26   C28   A    
O3    C1    A    
C40   C46   S    
C49   H27   S    
C50   H28   S    
C14   C16   A    
C18   O26   S    
C16   C18   S    
O7    V1    S    
C1    O8    A    
C17   C19   S    
O8    V2    S    
O25   H31   S    
O18   V4    S    
O13   V3    S    
C30   H8    S    
C4    C7    S    
O5    V1    S    
C37   C51   S    
O17   V3    S    
C6    C8    A    
C11   C13   A    
C20   O28   S    
C23   C27   A    
C52   H39   S    
O22   H10   S    
O15   V3    S    
C25   C27   A    
C48   H21   S    
O9    V2    S    
C9    O21   S    
O21   H9    S    
C47   H17   S    
C51   H35   S    
C19   O27   S    
C41   O18   A    
C20   H2    S    
C25   H5    S    
