data_mof_unit_38661.cif
_audit_creation_date              2012-12-10T20:39:07-0500
_audit_creation_method            fapswitch 2.2
_symmetry_space_group_name_H-M    P1
_symmetry_Int_Tables_number       1
_space_group_crystal_system       triclinic
_cell_length_a                    19.13211
_cell_length_b                    10.741107
_cell_length_c                    9.866931
_cell_angle_alpha                 89.900703
_cell_angle_beta                  90.582763
_cell_angle_gamma                 89.83088
_cell_volume                      2027.53785588

loop_
_atom_site_label
_atom_site_type_symbol
_atom_type_description
_atom_site_fract_x
_atom_site_fract_y
_atom_site_fract_z
_atom_type_partial_charge
C1    C     C_R   0.499127 0.260376 0.499891 0.915480
C2    C     C_R   0.291094 0.505239 0.499937 -0.062920
C3    C     C_R   0.930438 0.527942 0.518990 0.325690
C4    C     C_R   0.070817 0.521741 0.517078 0.293295
C5    C     C_R   0.816140 0.561040 0.630028 0.164143
C6    C     C_R   0.743650 0.551453 0.623820 -0.201297
C7    C     C_R   0.710096 0.513558 0.503911 -0.146254
C8    C     C_R   0.748836 0.488341 0.387763 -0.306532
C9    C     C_R   0.821189 0.498042 0.391850 0.460313
C10   C     C_R   0.854901 0.531334 0.513800 -0.047770
C11   C     C_R   0.477875 0.063599 0.614611 0.000137
C12   C     C_R   0.365967 0.500418 0.499655 0.874350
C13   C     C_R   0.492231 0.129367 0.497277 -0.143626
C14   C     C_R   0.496494 0.066671 0.373260 -0.341951
C15   C     C_R   0.498944 0.937628 0.371091 0.483836
C16   C     C_R   0.493128 0.871911 0.495172 -0.258367
C17   C     C_R   0.478567 0.936896 0.613675 -0.037345
C18   C     C_3   0.503332 0.931617 0.759671 0.673184
C19   C     C_3   0.502980 0.074518 0.758355 -0.514449
C20   C     C_R   0.444329 0.546228 0.069948 0.214752
C21   C     C_R   0.557809 0.463892 0.073083 -0.163643
C22   C     C_R   0.558087 0.465470 0.929212 -0.112197
C23   C     C_R   0.499106 0.739942 0.499206 0.897322
C24   C     C_R   0.443092 0.538787 0.927835 0.135410
C25   C     C_3   0.370913 0.484795 0.925350 -0.071460
C26   C     C_3   0.369941 0.504724 0.078666 -0.062779
C27   C     C_R   0.634490 0.502586 0.500766 0.890935
C28   C     C_R   0.253731 0.402498 0.545651 -0.203371
C29   C     C_R   0.181487 0.408698 0.551022 -0.221574
C30   C     C_R   0.146606 0.518289 0.512149 -0.027296
C31   C     C_R   0.184503 0.621786 0.465233 0.509980
C32   C     C_R   0.257132 0.615146 0.461869 -0.316666
H1    H     H_    0.280513 0.318064 0.577159 0.143212
H2    H     H_    0.462707 0.117622 0.823834 0.188160
H3    H     H_    0.555222 0.118671 0.767943 0.193152
H4    H     H_    0.603904 0.432993 0.127913 0.150983
H5    H     H_    0.604513 0.436404 0.876150 0.147045
H6    H     H_    0.333085 0.542776 0.866349 0.193280
H7    H     H_    0.152879 0.328499 0.587066 0.172315
H8    H     H_    0.363477 0.418845 0.140544 0.200696
H9    H     H_    0.286839 0.695999 0.431286 0.146346
H10   H     H_    0.713336 0.573083 0.712994 0.167085
H11   H     H_    0.723333 0.459569 0.294441 0.169663
H12   H     H_    0.502274 0.116649 0.278573 0.178548
N1    N     N_R   0.036666 0.628937 0.546539 -0.112690
N2    N     N_R   0.967342 0.632079 0.547416 -0.188294
N3    N     N_R   0.964395 0.420701 0.490094 -0.124995
N4    N     N_R   0.033654 0.417523 0.489644 -0.183230
N5    N     N_R   0.499530 0.499140 0.142800 -0.117302
N6    N     N_R   0.499530 0.499180 0.857150 -0.096150
O1    O     O_R   0.500010 0.316790 0.614690 -0.618643
O2    O     O_R   0.500000 0.316760 0.385350 -0.628713
O3    O     O_R   0.398140 0.500000 0.614710 -0.625944
O4    O     O_R   0.398130 0.499970 0.385370 -0.624086
O5    O     O_R   0.500000 0.683240 0.614650 -0.606138
O6    O     O_R   0.499990 0.683210 0.385310 -0.555802
O7    O     O_R   0.601870 0.500030 0.614630 -0.625995
O8    O     O_R   0.601860 0.500000 0.385290 -0.636415
Zn1   Zn    Zn3+2 0.500000 0.500020 0.653130 0.945073
Zn2   Zn    Zn3+2 0.500000 0.499980 0.346870 0.948805
O9    O     O_3   0.507641 0.876096 0.248849 -0.592480
C33   C     C_3   0.574476 0.901682 0.195318 0.073990
H13   H     H_    0.614661 0.922644 0.274982 0.110723
H14   H     H_    0.570545 0.982154 0.124605 0.157962
C34   C     C_3   0.599959 0.788642 0.117026 -0.731479
H15   H     H_    0.560821 0.761323 0.038898 0.280956
H16   H     H_    0.650062 0.810565 0.066600 0.202461
H17   H     H_    0.608549 0.709282 0.187564 0.247319
C35   C     C_3   0.447115 0.877962 0.852549 -0.851488
H18   H     H_    0.461087 0.896123 0.960142 0.255228
H19   H     H_    0.395058 0.920261 0.830968 0.203774
H20   H     H_    0.443061 0.776228 0.837115 0.243600
O10   O     O_3   0.569831 0.876287 0.789277 -0.592955
C36   C     C_3   0.622576 0.896944 0.691890 0.119850
H21   H     H_    0.618114 0.987945 0.638902 0.121614
H22   H     H_    0.621285 0.821493 0.615317 0.144777
C37   C     C_3   0.693559 0.891776 0.762419 -0.853010
H23   H     H_    0.700856 0.800153 0.813076 0.253813
H24   H     H_    0.735650 0.904505 0.687005 0.218304
H25   H     H_    0.697302 0.966751 0.839507 0.251278
C38   C     C_3   0.368607 0.345999 0.888250 -0.869109
H26   H     H_    0.407254 0.291728 0.949244 0.229770
H27   H     H_    0.315567 0.309053 0.908218 0.237250
H28   H     H_    0.380087 0.331821 0.779701 0.276697
C39   C     C_3   0.321449 0.611437 0.120437 -0.910778
H29   H     H_    0.337063 0.647064 0.221330 0.271408
H30   H     H_    0.323931 0.690652 0.047948 0.239219
H31   H     H_    0.266831 0.577191 0.124544 0.237671
O11   O     O_3   0.150761 0.730387 0.426704 -0.600128
C40   C     C_3   0.145145 0.733040 0.283931 0.080551
H32   H     H_    0.124173 0.643754 0.242708 0.130156
H33   H     H_    0.197046 0.752174 0.238618 0.150488
C41   C     C_3   0.095065 0.836598 0.241817 -0.776783
H34   H     H_    0.114601 0.927616 0.279403 0.260515
H35   H     H_    0.090671 0.840288 0.129568 0.202688
H36   H     H_    0.042487 0.818892 0.284442 0.259925
C42   C     C_3   0.851054 0.597947 0.761532 -0.908665
H37   H     H_    0.812686 0.609909 0.844314 0.230670
H38   H     H_    0.888973 0.524810 0.793087 0.247204
H39   H     H_    0.878873 0.687601 0.748471 0.255734
O12   O     O_3   0.859452 0.467935 0.278395 -0.597959
C43   C     C_3   0.869065 0.576836 0.200462 0.090241
H40   H     H_    0.884347 0.658527 0.263901 0.131905
H41   H     H_    0.820144 0.599422 0.143439 0.138143
C44   C     C_3   0.927438 0.554295 0.099928 -0.798729
H42   H     H_    0.914705 0.472855 0.035180 0.261305
H43   H     H_    0.934036 0.637683 0.034661 0.209095
H44   H     H_    0.977290 0.535870 0.155235 0.257984

loop_
_geom_bond_atom_site_label_1
_geom_bond_atom_site_label_2
_ccdc_geom_bond_type
O12   C43   S    
O5    Zn1   S    
C41   H36   S    
O10   C36   S    
C8    H11   S    
C2    C12   S    
C42   H39   S    
C21   N5    A    
C42   H37   S    
O3    Zn1   S    
C7    C8    A    
C21   H4    S    
O4    Zn2   S    
C37   H23   S    
C44   H43   S    
C11   C19   S    
C41   H34   S    
N5    Zn2   S    
C36   H22   S    
N6    Zn1   S    
C28   C29   A    
C30   C31   A    
O7    Zn1   S    
O8    Zn2   S    
C15   C16   A    
C7    C27   S    
C43   C44   S    
C2    C32   A    
C18   C19   S    
C35   H19   S    
C33   H14   S    
O2    Zn2   S    
C38   H27   S    
C20   C24   A    
C8    C9    A    
C34   H16   S    
C36   C37   S    
C32   H9    S    
C9    C10   A    
C12   O3    A    
C22   N6    A    
C37   H25   S    
C18   C35   S    
C39   H30   S    
C41   H35   S    
C21   C22   A    
C25   C38   S    
C35   H18   S    
C42   H38   S    
C38   H26   S    
C4    N1    A    
C37   H24   S    
C24   N6    A    
C44   H44   S    
C36   H21   S    
C43   H40   S    
C23   O6    A    
C24   C25   S    
C27   O7    A    
C16   C17   A    
C31   O11   S    
C25   C26   S    
C39   H29   S    
C22   H5    S    
C27   O8    A    
O6    Zn2   S    
C35   H20   S    
C29   C30   A    
C25   H6    S    
C20   N5    A    
C40   H33   S    
N3    N4    A    
C34   H17   S    
C29   H7    S    
C33   H13   S    
C17   C18   S    
C15   O9    S    
C43   H41   S    
C1    O1    A    
C5    C42   S    
C28   H1    S    
C18   O10   S    
C1    C13   S    
C38   H28   S    
C40   C41   S    
C14   H12   S    
C4    N4    A    
C39   H31   S    
C11   C17   A    
C33   C34   S    
C31   C32   A    
C19   H2    S    
C23   O5    A    
C6    C7    A    
C16   C23   S    
C44   H42   S    
C3    N2    A    
C5    C10   A    
C3    C10   S    
C19   H3    S    
C11   C13   A    
C26   H8    S    
C40   H32   S    
C5    C6    A    
C20   C26   S    
C26   C39   S    
C3    N3    A    
O9    C33   S    
C1    O2    A    
C4    C30   S    
N1    N2    A    
O1    Zn1   S    
C9    O12   S    
C34   H15   S    
C6    H10   S    
C14   C15   A    
C2    C28   A    
O11   C40   S    
C13   C14   A    
C12   O4    A    
