data_mof_unit_24874.cif
_audit_creation_date              2012-12-10T21:06:15-0500
_audit_creation_method            fapswitch 2.2
_symmetry_space_group_name_H-M    P1
_symmetry_Int_Tables_number       1
_space_group_crystal_system       triclinic
_cell_length_a                    15.060681
_cell_length_b                    15.85741
_cell_length_c                    16.809773
_cell_angle_alpha                 89.521325
_cell_angle_beta                  94.143357
_cell_angle_gamma                 89.651154
_cell_volume                      4003.84466444

loop_
_atom_site_label
_atom_site_type_symbol
_atom_type_description
_atom_site_fract_x
_atom_site_fract_y
_atom_site_fract_z
_atom_type_partial_charge
C1    C     C_R   0.500270 0.338931 0.500130 0.912427
C2    C     C_R   0.499708 0.661037 0.499744 0.875873
C3    C     C_R   0.498430 0.912807 0.499583 -0.268424
C4    C     C_R   0.501294 0.087028 0.500029 -0.269808
C5    C     C_R   0.428656 0.957829 0.458124 0.339964
C6    C     C_R   0.571066 0.041996 0.541488 0.338601
C7    C     C_1   0.498118 0.823906 0.499127 0.089141
C8    C     C_1   0.501630 0.175973 0.500469 0.095730
C9    C     C_1   0.501033 0.250720 0.500397 -0.179984
C10   C     C_1   0.498850 0.749190 0.499287 -0.202815
C11   C     C_R   0.954413 0.426394 0.520401 0.400624
C12   C     C_R   0.045379 0.572947 0.478487 0.397977
C13   C     C_R   0.904864 0.500128 0.498895 -0.328654
C14   C     C_R   0.094992 0.499197 0.500022 -0.329833
C15   C     C_R   0.951096 0.573505 0.477537 0.401813
C16   C     C_R   0.048626 0.425500 0.520479 0.395535
C17   C     C_1   0.807034 0.500119 0.499560 0.219507
C18   C     C_1   0.192913 0.499530 0.500027 0.222853
C19   C     C_R   0.511158 0.497135 0.654026 0.984874
C20   C     C_R   0.488925 0.499204 0.346391 1.013342
C21   C     C_R   0.517741 0.483023 0.740210 -0.429945
C22   C     C_R   0.482797 0.487292 0.260863 -0.417033
C23   C     C_R   0.445714 0.445963 0.776685 0.352422
C24   C     C_R   0.543961 0.432867 0.227355 0.339385
C25   C     C_R   0.456057 0.422050 0.856583 0.315256
C26   C     C_R   0.533366 0.415007 0.146230 0.313799
C27   C     C_R   0.533665 0.445443 0.903008 -0.057697
C28   C     C_R   0.467871 0.459019 0.097472 -0.049264
C29   C     C_R   0.606266 0.479513 0.866789 0.307655
C30   C     C_R   0.405006 0.510225 0.131526 0.307976
C31   C     C_R   0.597815 0.500784 0.785864 0.291636
C32   C     C_R   0.413806 0.526617 0.213029 0.285216
C33   C     C_R   0.569497 0.954114 0.541224 0.417089
C34   C     C_R   0.430053 0.045686 0.458693 0.417167
N1    N     N_2   0.538059 0.442299 0.986841 -0.048857
N2    N     N_2   0.464683 0.456429 0.013737 -0.051466
N3    N     N_1   0.270550 0.500020 0.500020 -0.100354
N4    N     N_1   0.729450 0.499980 0.499980 -0.106469
O1    O     O_R   0.573650 0.378020 0.500000 -0.604290
O2    O     O_R   0.426350 0.621980 0.500000 -0.623279
O3    O     O_R   0.426310 0.378020 0.499960 -0.609450
O4    O     O_R   0.573690 0.621980 0.500040 -0.623559
O5    O     O_R   0.581880 0.499230 0.616150 -0.577353
O6    O     O_R   0.418120 0.500770 0.383850 -0.580200
O7    O     O_R   0.434550 0.499230 0.616110 -0.583645
O8    O     O_R   0.565450 0.500770 0.383890 -0.604706
Zn1   Zn    Zn3+2 0.598370 0.500000 0.500020 0.988694
Zn2   Zn    Zn3+2 0.401630 0.500000 0.499980 0.999390
O9    O     O_3   0.608149 0.390071 0.275493 -0.570600
C35   C     C_3   0.691680 0.427725 0.266857 -0.184880
H1    H     H_    0.689856 0.497029 0.277071 0.129466
H2    H     H_    0.715939 0.414604 0.207299 0.184281
H3    H     H_    0.740664 0.400031 0.312348 0.173840
O10   O     O_3   0.366765 0.427391 0.733240 -0.569766
C36   C     C_3   0.303990 0.491233 0.746893 -0.206781
H4    H     H_    0.329665 0.555190 0.733600 0.143788
H5    H     H_    0.283471 0.488397 0.809076 0.183560
H6    H     H_    0.243683 0.481394 0.706381 0.151331
O11   O     O_3   0.589382 0.356700 0.114616 -0.579300
C37   C     C_3   0.546669 0.277738 0.112108 0.143391
H7    H     H_    0.480826 0.281419 0.077449 0.129454
H8    H     H_    0.537185 0.254367 0.173583 0.166273
C38   C     C_3   0.604476 0.214572 0.071605 -0.838155
H9    H     H_    0.571235 0.152253 0.068551 0.210528
H10   H     H_    0.615168 0.236447 0.010101 0.239940
H11   H     H_    0.669989 0.207708 0.105923 0.262865
O12   O     O_3   0.386947 0.381092 0.890273 -0.576188
C39   C     C_3   0.405520 0.293788 0.892142 0.136844
H12   H     H_    0.470271 0.279691 0.926073 0.130343
H13   H     H_    0.407105 0.268908 0.830458 0.155286
C40   C     C_3   0.332585 0.248458 0.933231 -0.842482
H14   H     H_    0.346827 0.179664 0.935847 0.210188
H15   H     H_    0.329328 0.272248 0.994923 0.241130
H16   H     H_    0.267270 0.259429 0.899584 0.259915
O13   O     O_3   0.682747 0.500923 0.912335 -0.569425
C41   C     C_3   0.738046 0.428799 0.921310 0.158813
H17   H     H_    0.758332 0.407346 0.862261 0.141899
H18   H     H_    0.703971 0.376240 0.951032 0.147875
C42   C     C_3   0.821585 0.450629 0.973070 -0.814517
H19   H     H_    0.803458 0.471119 0.032855 0.258684
H20   H     H_    0.865857 0.394416 0.980296 0.198367
H21   H     H_    0.857896 0.502283 0.944715 0.255563
O14   O     O_3   0.339689 0.551389 0.083658 -0.570210
C43   C     C_3   0.266340 0.496858 0.071365 0.158974
H22   H     H_    0.236496 0.483164 0.128804 0.148433
H23   H     H_    0.286019 0.436418 0.043894 0.151409
C44   C     C_3   0.195897 0.539194 0.014919 -0.810910
H24   H     H_    0.223548 0.552510 0.956644 0.256158
H25   H     H_    0.137599 0.497029 0.005092 0.198784
H26   H     H_    0.173778 0.599307 0.040848 0.256686
O15   O     O_3   0.669641 0.536082 0.751276 -0.566476
C45   C     C_3   0.660337 0.624752 0.751589 0.165183
H27   H     H_    0.669594 0.648770 0.813668 0.165035
H28   H     H_    0.593953 0.645647 0.724524 0.108690
C46   C     C_3   0.731060 0.663543 0.702696 -0.778893
H29   H     H_    0.722606 0.641160 0.640166 0.266892
H30   H     H_    0.724718 0.733355 0.702710 0.216796
H31   H     H_    0.798458 0.645381 0.728614 0.248717
O16   O     O_3   0.352887 0.579089 0.246047 -0.568462
C47   C     C_3   0.387537 0.661639 0.249121 0.159959
H32   H     H_    0.391933 0.687599 0.187771 0.167916
H33   H     H_    0.454681 0.663319 0.281665 0.099461
C48   C     C_3   0.325866 0.717993 0.293199 -0.825711
H34   H     H_    0.320715 0.693757 0.354880 0.262264
H35   H     H_    0.352588 0.783079 0.296138 0.244337
H36   H     H_    0.258575 0.719535 0.261488 0.244564
O17   O     O_3   0.637548 0.082414 0.587726 -0.563480
C49   C     C_3   0.700005 0.118278 0.538496 0.134377
H37   H     H_    0.681704 0.185061 0.524906 0.167201
H38   H     H_    0.705114 0.084457 0.480990 0.106752
C50   C     C_3   0.791459 0.116891 0.583263 -0.798516
H39   H     H_    0.813089 0.050798 0.596063 0.254420
H40   H     H_    0.840605 0.147869 0.546635 0.229087
H41   H     H_    0.789100 0.151013 0.640497 0.250256
O18   O     O_3   0.362054 0.917510 0.411906 -0.570173
C51   C     C_3   0.300189 0.880578 0.461099 0.122923
H42   H     H_    0.296954 0.912104 0.519989 0.109024
H43   H     H_    0.317709 0.813138 0.471953 0.163016
C52   C     C_3   0.207841 0.884748 0.418089 -0.804180
H44   H     H_    0.208132 0.852937 0.359536 0.252356
H45   H     H_    0.159173 0.852911 0.454609 0.229107
H46   H     H_    0.186995 0.951488 0.408047 0.256929
O19   O     O_3   0.633825 0.909123 0.587200 -0.560547
C53   C     C_3   0.701617 0.884017 0.538536 -0.251770
H47   H     H_    0.732937 0.939005 0.510614 0.147765
H48   H     H_    0.676499 0.839360 0.491652 0.157711
H49   H     H_    0.754340 0.850739 0.576407 0.194308
O20   O     O_3   0.364704 0.090668 0.413975 -0.556454
C54   C     C_3   0.297784 0.114763 0.464000 -0.234485
H50   H     H_    0.269225 0.059549 0.494003 0.140379
H51   H     H_    0.242898 0.145755 0.426843 0.198299
H52   H     H_    0.322970 0.161066 0.509345 0.158612
O21   O     O_3   0.093128 0.349589 0.535089 -0.563581
C55   C     C_3   0.140319 0.350692 0.610860 -0.266378
H53   H     H_    0.110857 0.393453 0.654434 0.114669
H54   H     H_    0.210771 0.367834 0.604508 0.194192
H55   H     H_    0.140252 0.286048 0.636580 0.186453
O22   O     O_3   0.906142 0.648698 0.460311 -0.557405
C56   C     C_3   0.859585 0.644562 0.384319 -0.303628
H56   H     H_    0.789482 0.626016 0.390454 0.167833
H57   H     H_    0.890468 0.601177 0.342107 0.121300
H58   H     H_    0.858312 0.708493 0.356953 0.187323
O23   O     O_3   0.910549 0.352601 0.536966 -0.561475
C57   C     C_3   0.895223 0.350959 0.618776 -0.266504
H59   H     H_    0.856554 0.406962 0.636425 0.159016
H60   H     H_    0.958739 0.345881 0.656447 0.157753
H61   H     H_    0.855335 0.294432 0.630939 0.182519
O24   O     O_3   0.089048 0.647093 0.462761 -0.564719
C58   C     C_3   0.105551 0.649413 0.381238 -0.266583
H62   H     H_    0.042632 0.649124 0.342445 0.158570
H63   H     H_    0.149514 0.596527 0.365186 0.166747
H64   H     H_    0.140358 0.708931 0.368931 0.182996

loop_
_geom_bond_atom_site_label_1
_geom_bond_atom_site_label_2
_ccdc_geom_bond_type
C7    C10   T    
O6    Zn2   S    
C44   H24   S    
C38   H10   S    
C27   C29   A    
C56   H57   S    
C14   C18   S    
C46   H29   S    
C25   O12   S    
C43   C44   S    
C4    C8    S    
O20   C54   S    
C55   H55   S    
C46   H31   S    
O19   C53   S    
C50   H40   S    
C49   H37   S    
C21   C31   A    
C22   C32   A    
C37   C38   S    
C53   H48   S    
C19   C21   S    
C18   N3    T    
C41   H18   S    
C3    C7    S    
C58   H63   S    
C56   H58   S    
O7    Zn2   S    
C3    C33   A    
O18   C51   S    
C51   H42   S    
C37   H8    S    
C30   O14   S    
C45   H27   S    
O10   C36   S    
O14   C43   S    
C51   H43   S    
C8    C9    T    
C35   H2    S    
C6    O17   S    
C41   C42   S    
C49   C50   S    
C48   H36   S    
C26   O11   S    
O4    Zn1   S    
C15   O22   S    
C23   C25   A    
C38   H11   S    
O11   C37   S    
C5    O18   S    
C57   H61   S    
C16   O21   S    
C45   H28   S    
C20   O6    A    
C19   O5    A    
C52   H45   S    
C4    C34   A    
C35   H3    S    
O12   C39   S    
C51   C52   S    
C1    C9    S    
C41   H17   S    
C57   H60   S    
C58   H64   S    
O15   C45   S    
C40   H15   S    
C39   H12   S    
C55   H54   S    
C27   N1    S    
C47   C48   S    
C19   O7    A    
C38   H9    S    
C37   H7    S    
N1    N2    D    
O13   C41   S    
C42   H21   S    
C11   C16   A    
O16   C47   S    
C12   C15   A    
O17   C49   S    
C5    C34   A    
C36   H4    S    
C47   H33   S    
C35   H1    S    
C48   H35   S    
C36   H5    S    
C43   H22   S    
N3    Zn2   S    
N4    Zn1   S    
C53   H49   S    
C4    C6    A    
C20   C22   S    
O9    C35   S    
C31   O15   S    
C13   C15   A    
O21   C55   S    
C22   C24   A    
C36   H6    S    
C2    C10   S    
C32   O16   S    
C23   O10   S    
O1    Zn1   S    
C54   H50   S    
C52   H46   S    
C1    O3    A    
C24   O9    S    
O2    Zn2   S    
O8    Zn1   S    
C50   H39   S    
C24   C26   A    
C57   H59   S    
C3    C5    A    
C40   H16   S    
C56   H56   S    
C46   H30   S    
C55   H53   S    
C29   O13   S    
C25   C27   A    
C26   C28   A    
C6    C33   A    
C13   C17   S    
C54   H52   S    
C21   C23   A    
C12   C14   A    
C40   H14   S    
C29   C31   A    
C58   H62   S    
C30   C32   A    
C11   C13   A    
C12   O24   S    
C11   O23   S    
C2    O4    A    
C39   C40   S    
C28   C30   A    
C47   H32   S    
C44   H25   S    
O3    Zn2   S    
C49   H38   S    
C50   H41   S    
C14   C16   A    
C17   N4    T    
C45   C46   S    
C42   H20   S    
O22   C56   S    
C1    O1    A    
C42   H19   S    
C2    O2    A    
C28   N2    S    
C34   O20   S    
C52   H44   S    
C44   H26   S    
C48   H34   S    
C33   O19   S    
C39   H13   S    
C43   H23   S    
O5    Zn1   S    
O24   C58   S    
C20   O8    A    
O23   C57   S    
C53   H47   S    
C54   H51   S    
