data_mof_unit_46742.cif
_audit_creation_date              2012-12-10T20:25:41-0500
_audit_creation_method            fapswitch 2.2
_symmetry_space_group_name_H-M    P1
_symmetry_Int_Tables_number       1
_space_group_crystal_system       triclinic
_cell_length_a                    8.592712
_cell_length_b                    10.681724
_cell_length_c                    9.873164
_cell_angle_alpha                 89.690706
_cell_angle_beta                  98.361524
_cell_angle_gamma                 90.247338
_cell_volume                      896.5565616

loop_
_atom_site_label
_atom_site_type_symbol
_atom_type_description
_atom_site_fract_x
_atom_site_fract_y
_atom_site_fract_z
_atom_type_partial_charge
C1    C     C_R   0.505796 0.259897 0.501021 0.872294
C2    C     C_R   0.552255 0.936143 0.382863 -0.207326
C3    C     C_R   0.532505 0.871332 0.503072 -0.092932
C4    C     C_R   0.545296 0.935069 0.626720 0.083823
C5    C     C_3   0.448355 0.925929 0.740371 -0.446702
C6    C     C_3   0.451047 0.068353 0.742973 -0.174385
C7    C     C_R   0.428220 0.405489 0.062937 0.270976
C8    C     C_R   0.583465 0.586613 0.082002 -0.135123
C9    C     C_R   0.583672 0.586498 0.938077 -0.134902
C10   C     C_R   0.427125 0.406097 0.920381 0.225764
C11   C     C_3   0.256551 0.373204 0.895312 -0.505639
C12   C     C_R   0.201259 0.500245 0.464230 0.973986
C13   C     C_3   0.258876 0.370426 0.049214 -0.492044
C14   C     C_R   0.505370 0.740047 0.500290 0.875642
C15   C     C_R   0.798618 0.501246 0.535547 0.966184
C16   C     C_2   0.036191 0.499275 0.444645 -0.387575
C17   C     C_2   0.963364 0.505312 0.554192 -0.385359
C18   C     C_R   0.547171 0.062943 0.628009 0.007759
C19   C     C_R   0.533618 0.128642 0.504478 -0.112841
C20   C     C_R   0.552652 0.065575 0.383531 -0.185506
H1    H     H_    0.975022 0.492110 0.340420 0.180180
H2    H     H_    0.648940 0.657687 0.891675 0.148541
H3    H     H_    0.183792 0.450486 0.845293 0.207109
H4    H     H_    0.234250 0.280032 0.846889 0.209860
H5    H     H_    0.185267 0.444546 0.086360 0.210436
H6    H     H_    0.241675 0.275032 0.090215 0.223553
H7    H     H_    0.024155 0.514174 0.657808 0.169605
H8    H     H_    0.555653 0.114964 0.287814 0.206628
H9    H     H_    0.555221 0.888134 0.286883 0.181545
H10   H     H_    0.329150 0.886572 0.706185 0.191007
H11   H     H_    0.513773 0.879916 0.832749 0.208513
H12   H     H_    0.333676 0.111863 0.713105 0.148556
H13   H     H_    0.648358 0.658038 0.144041 0.149581
N1    N     N_R   0.498950 0.499140 0.142680 -0.119218
N2    N     N_R   0.498950 0.499180 0.857030 -0.117889
O1    O     O_R   0.500020 0.316790 0.614690 -0.634228
O2    O     O_R   0.500000 0.316760 0.385350 -0.618292
O3    O     O_R   0.271760 0.500010 0.587850 -0.613353
O4    O     O_R   0.271740 0.499970 0.358500 -0.625991
O5    O     O_R   0.500000 0.683240 0.614650 -0.621981
O6    O     O_R   0.499980 0.683210 0.385310 -0.627592
O7    O     O_R   0.728260 0.500030 0.641500 -0.628362
O8    O     O_R   0.728240 0.499990 0.412150 -0.615287
Zn1   Zn    Zn3+2 0.500010 0.500020 0.653130 0.935302
Zn2   Zn    Zn3+2 0.499990 0.499980 0.346870 0.946393
C21   C     C_2   0.542440 0.120474 0.871845 0.424718
H14   H     H_    0.647382 0.176547 0.867822 0.073587
O9    O     O_2   0.497058 0.102363 0.981868 -0.609012

loop_
_geom_bond_atom_site_label_1
_geom_bond_atom_site_label_2
_ccdc_geom_bond_type
C7    C10   A    
C6    H12   S    
O3    Zn1   S    
C16   H1    S    
O2    Zn2   S    
C11   C13   S    
C19   C20   A    
C6    C21   S    
C1    O2    A    
O4    Zn2   S    
C4    C18   A    
C12   O4    A    
C7    C13   S    
C2    C3    A    
C15   O8    A    
N1    Zn2   S    
C8    N1    A    
N2    Zn1   S    
O8    Zn2   S    
C13   H5    S    
C10   N2    A    
C3    C14   S    
O7    Zn1   S    
C14   O6    A    
C11   H3    S    
C18   C19   A    
C8    H13   S    
C2    H9    S    
C12   O3    A    
C5    C6    S    
C6    C18   S    
C7    N1    A    
C21   O9    D    
C13   H6    S    
O1    Zn1   S    
C1    C19   S    
C10   C11   S    
C14   O5    A    
C3    C4    A    
C17   H7    S    
C16   C17   D    
C11   H4    S    
O5    Zn1   S    
C1    O1    A    
C15   C17   S    
C5    H10   S    
C9    N2    A    
O6    Zn2   S    
C9    H2    S    
C8    C9    A    
C20   H8    S    
C21   H14   S    
C2    C20   A    
C12   C16   S    
C15   O7    A    
C4    C5    S    
C5    H11   S    
