data_mof_unit_50625.cif
_audit_creation_date              2012-12-11T15:54:06-0500
_audit_creation_method            fapswitch 2.2
_symmetry_space_group_name_H-M    P1
_symmetry_Int_Tables_number       1
_space_group_crystal_system       triclinic
_cell_length_a                    10.695406
_cell_length_b                    10.692802
_cell_length_c                    17.008799
_cell_angle_alpha                 80.249789
_cell_angle_beta                  99.605169
_cell_angle_gamma                 119.058087
_cell_volume                      1667.685087

loop_
_atom_site_label
_atom_site_type_symbol
_atom_type_description
_atom_site_fract_x
_atom_site_fract_y
_atom_site_fract_z
_atom_type_partial_charge
C1    C     C_R   0.384960 0.284931 0.631773 0.507381
C2    C     C_1   0.333738 0.188157 0.781645 -0.022335
C3    C     C_1   0.369842 0.638682 0.275002 0.040505
C4    C     C_R   0.413511 0.620062 0.602069 0.579352
C5    C     C_1   0.342535 0.656201 0.204446 -0.007609
C6    C     C_R   0.864060 0.681650 0.166056 0.035578
C7    C     C_R   0.928408 0.617549 0.225569 -0.029055
C8    C     C_R   0.913089 0.610403 0.304743 0.016044
C9    C     C_R   0.796973 0.760673 0.268392 -0.151082
C10   C     C_R   0.808662 0.763635 0.187932 -0.115462
C11   C     C_3   0.916392 0.470723 0.234697 0.284458
C12   C     C_R   0.514259 0.713224 0.735590 0.340964
C13   C     C_3   0.895150 0.460619 0.321692 0.295996
C14   C     C_R   0.838429 0.673308 0.326691 -0.010766
C15   C     C_R   0.297378 0.110646 0.173830 -0.033126
C16   C     C_R   0.781239 0.621116 0.626203 0.579881
C17   C     C_R   0.180219 0.101026 0.205183 -0.006018
C18   C     C_R   0.187685 0.118213 0.283850 -0.032226
C19   C     C_R   0.417281 0.119201 0.308887 -0.145657
C20   C     C_R   0.410504 0.102760 0.228352 -0.050499
C21   C     C_3   0.092384 0.176910 0.175951 0.287506
C22   C     C_3   0.102737 0.200083 0.262603 0.330434
C23   C     C_R   0.491780 0.728328 0.811385 -0.087467
C24   C     C_R   0.313379 0.143096 0.334362 0.005450
C25   C     C_R   0.947572 0.725454 0.851569 0.538800
C26   C     C_R   0.316096 0.705523 0.898711 0.539752
C27   C     C_R   0.286594 0.118999 0.858491 0.542092
C28   C     C_R   0.348840 0.222366 0.401932 0.573868
C29   C     C_R   0.890949 0.692204 0.085174 0.566373
C30   C     C_R   0.316088 0.697455 0.122807 0.530285
C31   C     C_R   0.279438 0.095204 0.089373 0.540169
C32   C     C_R   0.403159 0.625640 0.358873 0.575589
C33   C     C_R   0.773612 0.624313 0.400584 0.559761
C34   C     C_3   0.093059 0.487182 0.773868 -0.099056
C35   C     C_R   0.353496 0.650568 0.838123 -0.042486
C36   C     C_R   0.249768 0.535959 0.796178 -0.071556
C37   C     C_R   0.272003 0.519802 0.721312 -0.067305
C38   C     C_1   0.524627 0.086191 0.204428 0.308235
C39   C     C_1   0.966343 0.130596 0.299298 0.380770
C40   C     C_1   0.004931 0.354041 0.823213 0.203932
C41   C     C_1   0.044636 0.321607 0.667650 0.299656
C42   C     C_3   0.116817 0.469387 0.690940 0.327206
C43   C     C_R   0.398688 0.618449 0.686238 0.018733
C44   C     C_1   0.850334 0.669488 0.702647 0.042818
C45   C     C_1   0.897249 0.704417 0.769253 0.008437
C46   C     C_1   0.365401 0.235097 0.714384 -0.029190
Cr1   Cr    Cr6+3 0.608440 0.389080 0.519680 1.081344
Cr2   Cr    Cr6+3 0.288640 0.400090 0.490760 1.162801
Cr3   Cr    Cr6+3 0.602940 0.710800 0.489510 1.095079
Cr4   Cr    Cr6+3 0.052530 0.947560 0.964210 1.107944
Cr5   Cr    Cr6+3 0.059970 0.626800 0.992920 1.077079
Cr6   Cr    Cr6+3 0.373320 0.938440 0.995370 1.080852
F1    F     F_    0.644436 0.801359 0.707943 -0.610352
F2    F     F_    0.794172 0.375663 0.192003 -0.632506
F3    F     F_    0.007192 0.455588 0.373471 -0.589279
F4    F     F_    0.955262 0.084805 0.144900 -0.635568
F5    F     F_    0.181869 0.343899 0.273537 -0.673659
F6    F     F_    0.096752 0.565640 0.631436 -0.599440
H1    H     H_    0.786924 0.376209 0.337699 0.163136
H2    H     H_    0.510852 0.128534 0.349120 0.152088
H3    H     H_    0.148028 0.277259 0.135855 0.153152
H4    H     H_    0.578527 0.812021 0.844752 0.179317
H5    H     H_    0.063952 0.573588 0.773421 0.143500
H6    H     H_    0.739612 0.812256 0.283150 0.172432
H7    H     H_    0.767238 0.822471 0.142911 0.201154
H8    H     H_    0.016734 0.471461 0.224658 0.200175
N1    N     N_1   0.615934 0.072227 0.185658 -0.153157
N2    N     N_1   0.859662 0.077394 0.328688 -0.271290
N3    N     N_1   0.935816 0.249664 0.862007 -0.233807
N4    N     N_1   0.987466 0.205540 0.649478 -0.220106
O1    O     O_R   0.754020 0.497590 0.609930 -0.480804
O2    O     O_R   0.406180 0.826930 0.920660 -0.507817
O3    O     O_R   0.358620 0.062870 0.901950 -0.486552
O4    O     O_R   0.481420 0.271390 0.600630 -0.471616
O5    O     O_R   0.163910 0.085460 0.050210 -0.473895
O6    O     O_R   0.935200 0.815170 0.045770 -0.483981
O7    O     O_R   0.916120 0.596690 0.069430 -0.457035
O8    O     O_R   0.192310 0.631200 0.086170 -0.498766
O9    O     O_R   0.406770 0.819480 0.096420 -0.502535
O10   O     O_R   0.359170 0.055960 0.064880 -0.492863
O11   O     O_3   0.161940 0.837600 0.984160 -0.301428
O12   O     O_R   0.295080 0.533620 0.397890 -0.364110
O13   O     O_R   0.263810 0.254550 0.589590 -0.492910
O14   O     O_R   0.300820 0.531200 0.560890 -0.456521
O15   O     O_R   0.491480 0.744020 0.564270 -0.419372
O16   O     O_R   0.726290 0.693800 0.583010 -0.474589
O17   O     O_R   0.747830 0.500190 0.434090 -0.491470
O18   O     O_R   0.475680 0.273800 0.437630 -0.511659
O19   O     O_R   0.257620 0.257160 0.413750 -0.454856
O20   O     O_R   0.485280 0.746620 0.388440 -0.517528
O21   O     O_R   0.720550 0.696220 0.420010 -0.524476
O22   O     O_3   0.500010 0.499990 0.499980 -0.367119
O23   O     O_R   0.163320 0.092900 0.874450 -0.494053
O24   O     O_R   0.934650 0.822080 0.882840 -0.461648
O25   O     O_R   0.915520 0.604140 0.893670 -0.508975
O26   O     O_R   0.191760 0.638110 0.923230 -0.513444

loop_
_geom_bond_atom_site_label_1
_geom_bond_atom_site_label_2
_ccdc_geom_bond_type
C41   C42   S    
C8    C13   S    
C9    H6    S    
C26   O2    A    
C39   N2    T    
C19   C20   A    
C34   C42   S    
Cr3   O20   S    
C42   F6    S    
C22   F5    S    
C7    C8    A    
C29   O6    A    
C2    C46   T    
C7    C11   S    
C12   C23   A    
C34   C40   S    
C1    O4    A    
C36   C37   A    
Cr3   O21   S    
C12   C43   A    
C33   O21   A    
C1    C46   S    
Cr1   O22   S    
C37   C42   S    
C23   H4    S    
C32   O20   A    
C35   C36   A    
C28   O18   A    
C2    C27   S    
Cr6   O9    S    
C9    C10   A    
Cr5   O11   S    
C21   H3    S    
C12   F1    S    
C11   H8    S    
Cr5   O26   S    
C25   O24   A    
C21   C22   S    
C16   O16   A    
Cr6   O11   S    
C16   O1    A    
C14   C33   S    
C26   O26   A    
C15   C20   A    
C40   N3    T    
Cr3   O15   S    
C31   O10   A    
Cr6   O3    S    
Cr4   O24   S    
C4    O15   A    
C17   C21   S    
Cr2   O14   S    
Cr1   O17   S    
C37   C43   A    
C9    C14   A    
Cr5   O7    S    
Cr6   O2    S    
Cr4   O6    S    
C20   C38   S    
C31   O5    A    
C4    O14   A    
C17   C18   A    
Cr1   O1    S    
C28   O19   A    
C11   F2    S    
C30   O9    A    
C25   O25   A    
C23   C35   A    
Cr2   O19   S    
C18   C24   A    
C27   O23   A    
Cr3   O22   S    
C25   C45   S    
C44   C45   T    
C5    C30   S    
C10   H7    S    
C15   C17   A    
C16   C44   S    
C8    C14   A    
C18   C22   S    
Cr3   O16   S    
C24   C28   S    
Cr1   O4    S    
C3    C5    T    
C6    C10   A    
C21   F4    S    
Cr4   O23   S    
C15   C31   S    
C6    C7    A    
C13   H1    S    
C4    C43   S    
C19   H2    S    
C1    O13   A    
C32   O12   A    
Cr2   O13   S    
Cr1   O18   S    
C19   C24   A    
C33   O17   A    
Cr5   O8    S    
Cr6   O10   S    
Cr4   O5    S    
C11   C13   S    
C22   C39   S    
C34   H5    S    
Cr2   O12   S    
C34   C36   S    
C3    C32   S    
C30   O8    A    
C26   C35   S    
C6    C29   S    
C29   O7    A    
C38   N1    T    
Cr2   O22   S    
C27   O3    A    
Cr4   O11   S    
Cr5   O25   S    
C41   N4    T    
C13   F3    S    
