data_mof_unit_56786.cif
_audit_creation_date              2012-12-11T14:04:08-0500
_audit_creation_method            fapswitch 2.2
_symmetry_space_group_name_H-M    P1
_symmetry_Int_Tables_number       1
_space_group_crystal_system       triclinic
_cell_length_a                    19.05026
_cell_length_b                    10.93922
_cell_length_c                    18.885302
_cell_angle_alpha                 90.180232
_cell_angle_beta                  89.14046
_cell_angle_gamma                 89.926832
_cell_volume                      3935.13645702

loop_
_atom_site_label
_atom_site_type_symbol
_atom_type_description
_atom_site_fract_x
_atom_site_fract_y
_atom_site_fract_z
_atom_type_partial_charge
C1    C     C_R   0.228023 0.512833 0.638486 0.546093
C2    C     C_R   0.759508 0.466779 0.353034 0.542053
C3    C     C_R   0.728015 0.012861 0.638487 0.546102
C4    C     C_R   0.259507 0.966773 0.353028 0.542063
C5    C     C_2   0.278484 0.824173 0.532821 -0.133154
C6    C     C_2   0.729548 0.837380 0.466949 -0.153476
C7    C     C_2   0.778514 0.324215 0.532832 -0.133202
C8    C     C_2   0.229544 0.337355 0.466949 -0.153473
C9    C     C_R   0.945152 0.655989 0.439151 -0.020207
C10   C     C_R   0.998945 0.657125 0.575842 -0.002049
C11   C     C_R   0.445150 0.155990 0.439151 -0.020211
C12   C     C_R   0.498943 0.157123 0.575843 -0.002047
C13   C     C_R   0.928885 0.884126 0.453164 -0.147745
C14   C     C_R   0.947399 0.861646 0.597466 -0.129021
C15   C     C_R   0.428892 0.384129 0.453163 -0.147746
C16   C     C_R   0.447401 0.361647 0.597466 -0.129017
C17   C     C_R   0.917457 0.985545 0.497506 0.276953
C18   C     C_R   0.926635 0.974391 0.569974 0.311934
C19   C     C_R   0.417472 0.485551 0.497504 0.276935
C20   C     C_R   0.426646 0.474395 0.569974 0.311930
C21   C     C_R   0.962332 0.761043 0.552349 -0.042137
C22   C     C_R   0.945092 0.767278 0.480064 -0.046544
C23   C     C_R   0.462332 0.261043 0.552349 -0.042134
C24   C     C_R   0.445093 0.267280 0.480064 -0.046540
C25   C     C_R   0.005154 0.552118 0.531640 0.018149
C26   C     C_R   0.962707 0.544518 0.473264 0.013480
C27   C     C_R   0.505149 0.052116 0.531641 0.018150
C28   C     C_R   0.462701 0.044518 0.473266 0.013467
C29   C     C_R   0.052861 0.454166 0.542442 -0.076215
C30   C     C_R   0.949068 0.426260 0.445649 -0.069403
C31   C     C_R   0.552853 0.954161 0.542442 -0.076219
C32   C     C_R   0.449059 0.926262 0.445651 -0.069385
C33   C     C_R   0.045331 0.342212 0.508448 -0.091173
C34   C     C_R   0.991313 0.327012 0.461648 -0.068034
C35   C     C_R   0.545328 0.842214 0.508440 -0.091163
C36   C     C_R   0.491310 0.827017 0.461641 -0.067996
C37   C     C_2   0.238903 0.899259 0.927926 -0.102639
C38   C     C_2   0.744169 0.934797 0.085376 -0.100926
C39   C     C_2   0.738906 0.399280 0.927922 -0.102781
C40   C     C_2   0.244191 0.434845 0.085382 -0.100855
C41   C     C_2   0.249548 0.898885 0.083981 -0.107322
C42   C     C_2   0.727925 0.985567 0.933129 -0.100478
C43   C     C_2   0.749550 0.398894 0.083978 -0.107343
C44   C     C_2   0.227814 0.485793 0.933151 -0.100475
C45   C     C_R   0.227248 0.873514 0.647230 0.548919
C46   C     C_R   0.771562 0.876986 0.350311 0.544339
C47   C     C_R   0.727248 0.373516 0.647232 0.548912
C48   C     C_R   0.271562 0.376983 0.350313 0.544337
C49   C     C_2   0.190211 0.917953 0.048917 -0.151104
C50   C     C_2   0.765865 0.055147 0.976950 -0.160406
C51   C     C_2   0.690213 0.417968 0.048913 -0.151120
C52   C     C_2   0.266090 0.555006 0.976887 -0.160285
C53   C     C_2   0.184249 0.892660 0.973664 -0.153750
C54   C     C_2   0.781644 0.018723 0.049766 -0.153929
C55   C     C_2   0.684252 0.392681 0.973661 -0.153844
C56   C     C_2   0.281763 0.518606 0.049733 -0.153938
C57   C     C_2   0.983749 0.664066 0.913709 -0.108893
C58   C     C_2   0.956696 0.655466 0.067291 -0.097246
C59   C     C_2   0.483749 0.164066 0.913709 -0.108866
C60   C     C_2   0.456696 0.155466 0.067291 -0.097224
C61   C     C_2   0.936915 0.567393 0.022429 -0.166657
C62   C     C_2   0.961113 0.564210 0.948298 -0.153951
C63   C     C_2   0.436914 0.067394 0.022428 -0.166627
C64   C     C_2   0.461113 0.064211 0.948298 -0.153911
C65   C     C_R   0.031574 0.653752 0.644733 0.531728
C66   C     C_R   0.935051 0.650719 0.361575 0.562991
C67   C     C_R   0.531574 0.153751 0.644733 0.531720
C68   C     C_R   0.435051 0.150719 0.361575 0.562994
C69   C     C_R   0.224360 0.517016 0.858572 0.568755
C70   C     C_R   0.761212 0.463801 0.149944 0.550671
C71   C     C_R   0.724378 0.016956 0.858583 0.568640
C72   C     C_R   0.261212 0.963800 0.149945 0.550661
C73   C     C_R   0.225605 0.870486 0.854445 0.549074
C74   C     C_R   0.772009 0.875856 0.148164 0.551319
C75   C     C_R   0.725607 0.370492 0.854442 0.549056
C76   C     C_R   0.272010 0.375868 0.148169 0.551327
C77   C     C_R   0.027218 0.652719 0.849824 0.546862
C78   C     C_R   0.938047 0.647674 0.141852 0.576886
C79   C     C_R   0.527218 0.152719 0.849824 0.546890
C80   C     C_R   0.438047 0.147674 0.141852 0.576893
C81   C     C_2   0.247699 0.908322 0.575572 -0.108320
C82   C     C_2   0.747336 0.920786 0.417780 -0.087863
C83   C     C_2   0.747701 0.408339 0.575579 -0.108333
C84   C     C_2   0.247338 0.420770 0.417785 -0.087875
C85   C     C_2   0.241396 0.912072 0.421005 -0.125574
C86   C     C_2   0.741531 0.974031 0.567027 -0.110753
C87   C     C_2   0.741401 0.412083 0.421011 -0.125576
C88   C     C_2   0.241548 0.473978 0.567032 -0.110776
C89   C     C_2   0.284637 0.838882 0.455759 -0.170938
C90   C     C_2   0.717918 0.869017 0.541051 -0.181733
C91   C     C_2   0.784656 0.338916 0.455770 -0.170938
C92   C     C_2   0.217916 0.368982 0.541052 -0.181750
Cr1   Cr    Cr6+3 0.113970 0.508630 0.747920 1.024443
Cr2   Cr    Cr6+3 0.886030 0.508630 0.252080 1.001699
Cr3   Cr    Cr6+3 0.613970 0.008630 0.747920 1.024457
Cr4   Cr    Cr6+3 0.386030 0.008630 0.252080 1.001704
Cr5   Cr    Cr6+3 0.269200 0.666740 0.749850 1.034203
Cr6   Cr    Cr6+3 0.730800 0.666740 0.250150 1.020939
Cr7   Cr    Cr6+3 0.769200 0.166740 0.749850 1.034266
Cr8   Cr    Cr6+3 0.230800 0.166740 0.250150 1.020945
Cr9   Cr    Cr6+3 0.112300 0.820070 0.749800 1.011745
Cr10  Cr    Cr6+3 0.887700 0.820070 0.250200 1.003968
Cr11  Cr    Cr6+3 0.612300 0.320070 0.749800 1.011747
Cr12  Cr    Cr6+3 0.387700 0.320070 0.250200 1.003954
H1    H     H_    0.325136 0.788763 0.427397 0.160398
H2    H     H_    0.690884 0.803691 0.574941 0.145152
H3    H     H_    0.825155 0.288801 0.427411 0.160408
H4    H     H_    0.190865 0.303670 0.574938 0.145144
H5    H     H_    0.131452 0.876029 0.954765 0.151483
H6    H     H_    0.829146 0.056365 0.072258 0.152383
H7    H     H_    0.631455 0.376046 0.954763 0.151513
H8    H     H_    0.329326 0.556059 0.072200 0.152384
H9    H     H_    0.293063 0.848746 0.059923 0.091008
H10   H     H_    0.701028 0.903643 0.950839 0.110189
H11   H     H_    0.793065 0.348759 0.059919 0.090950
H12   H     H_    0.200474 0.404332 0.950968 0.110060
H13   H     H_    0.292324 0.914551 0.945063 0.089604
H14   H     H_    0.694601 0.901249 0.065628 0.108846
H15   H     H_    0.792327 0.414573 0.945058 0.089627
H16   H     H_    0.194582 0.401422 0.065676 0.108756
H17   H     H_    0.907916 0.488794 0.042241 0.132573
H18   H     H_    0.965416 0.474458 0.923820 0.155409
H19   H     H_    0.407915 0.988795 0.042240 0.132556
H20   H     H_    0.465415 0.974459 0.923820 0.155394
H21   H     H_    0.299237 0.740229 0.554606 0.204885
H22   H     H_    0.725924 0.740974 0.453209 0.144490
H23   H     H_    0.799300 0.240296 0.554619 0.204964
H24   H     H_    0.225913 0.240951 0.453201 0.144501
H25   H     H_    0.194358 0.947173 0.447240 0.117770
H26   H     H_    0.775295 0.033409 0.536324 0.145856
H27   H     H_    0.694358 0.447168 0.447239 0.117765
H28   H     H_    0.275330 0.533331 0.536333 0.145855
H29   H     H_    0.228025 0.994263 0.555242 0.096952
H30   H     H_    0.751391 0.017871 0.428295 0.102938
H31   H     H_    0.727997 0.494258 0.555246 0.096969
H32   H     H_    0.251398 0.517854 0.428308 0.102916
H33   H     H_    0.928124 0.902851 0.398331 0.180242
H34   H     H_    0.951239 0.854156 0.654228 0.129397
H35   H     H_    0.428129 0.402854 0.398329 0.180246
H36   H     H_    0.451238 0.354156 0.654228 0.129387
H37   H     H_    0.910240 0.411423 0.406668 0.156835
H38   H     H_    0.097336 0.463828 0.575482 0.158604
H39   H     H_    0.410225 0.911425 0.406675 0.156836
H40   H     H_    0.597327 0.963817 0.575483 0.158608
H41   H     H_    0.080895 0.267346 0.518503 0.115270
H42   H     H_    0.985500 0.241407 0.433860 0.152030
H43   H     H_    0.580896 0.767351 0.518490 0.115279
H44   H     H_    0.485501 0.741418 0.433847 0.152045
O1    O     O_R   0.043230 0.549300 0.667990 -0.527014
O2    O     O_R   0.956770 0.549300 0.332010 -0.513811
O3    O     O_R   0.543230 0.049300 0.667990 -0.527021
O4    O     O_R   0.456770 0.049300 0.332010 -0.513805
O5    O     O_R   0.262920 0.788600 0.824420 -0.516637
O6    O     O_R   0.737080 0.788600 0.175580 -0.494920
O7    O     O_R   0.762920 0.288600 0.824420 -0.516604
O8    O     O_R   0.237080 0.288600 0.175580 -0.494899
O9    O     O_R   0.167530 0.905110 0.830340 -0.506389
O10   O     O_R   0.832470 0.905110 0.169660 -0.521634
O11   O     O_R   0.667530 0.405110 0.830340 -0.506390
O12   O     O_R   0.332470 0.405110 0.169660 -0.521686
O13   O     O_R   0.054010 0.748440 0.822860 -0.505425
O14   O     O_R   0.945990 0.748440 0.177140 -0.488324
O15   O     O_R   0.554010 0.248440 0.822860 -0.505430
O16   O     O_R   0.445990 0.248440 0.177140 -0.488332
O17   O     O_3   0.165160 0.665150 0.749190 -0.291323
O18   O     O_3   0.834840 0.665150 0.250810 -0.288781
O19   O     O_3   0.665160 0.165150 0.749190 -0.291300
O20   O     O_3   0.334840 0.165150 0.250810 -0.288777
O21   O     O_R   0.178620 0.457600 0.674100 -0.506984
O22   O     O_R   0.821380 0.457600 0.325900 -0.534482
O23   O     O_R   0.678620 0.957600 0.674100 -0.507002
O24   O     O_R   0.321380 0.957600 0.325900 -0.534494
O25   O     O_R   0.284680 0.542100 0.669460 -0.472380
O26   O     O_R   0.715320 0.542100 0.330540 -0.512457
O27   O     O_R   0.784680 0.042100 0.669460 -0.472315
O28   O     O_R   0.215320 0.042100 0.330540 -0.512468
O29   O     O_R   0.262860 0.790390 0.676650 -0.495973
O30   O     O_R   0.737140 0.790390 0.323350 -0.491641
O31   O     O_R   0.762860 0.290390 0.676650 -0.495999
O32   O     O_R   0.237140 0.290390 0.323350 -0.491644
O33   O     O_R   0.167460 0.907030 0.670940 -0.506548
O34   O     O_R   0.832540 0.907030 0.329060 -0.556526
O35   O     O_R   0.667460 0.407030 0.670940 -0.506550
O36   O     O_R   0.332540 0.407030 0.329060 -0.556527
O37   O     O_R   0.053950 0.750220 0.675100 -0.510509
O38   O     O_R   0.946050 0.750220 0.324900 -0.504731
O39   O     O_R   0.553950 0.250220 0.675100 -0.510508
O40   O     O_R   0.446050 0.250220 0.324900 -0.504730
O41   O     O_R   0.043300 0.547370 0.827390 -0.513756
O42   O     O_R   0.956700 0.547370 0.172610 -0.494248
O43   O     O_R   0.543300 0.047370 0.827390 -0.513721
O44   O     O_R   0.456700 0.047370 0.172610 -0.494240
O45   O     O_R   0.178690 0.455820 0.821860 -0.487175
O46   O     O_R   0.821310 0.455820 0.178140 -0.520504
O47   O     O_R   0.678690 0.955820 0.821860 -0.487167
O48   O     O_R   0.321310 0.955820 0.178140 -0.520506
O49   O     O_R   0.284750 0.540170 0.828860 -0.502728
O50   O     O_R   0.715250 0.540170 0.171140 -0.506580
O51   O     O_R   0.784750 0.040170 0.828860 -0.502630
O52   O     O_R   0.215250 0.040170 0.171140 -0.506571
H45   H     H_    0.987134 0.733811 0.049819 0.104932
H46   H     H_    0.976035 0.755002 0.935589 0.102226
H47   H     H_    0.487134 0.233811 0.049820 0.104920
H48   H     H_    0.476035 0.255002 0.935589 0.102207
O53   O     O_3   0.895571 0.096395 0.471317 -0.725222
H49   H     H_    0.888801 0.089099 0.419525 0.301053
O54   O     O_3   0.917641 0.076462 0.612313 -0.643639
H50   H     H_    0.929120 0.055103 0.661809 0.313448
O55   O     O_3   0.395590 0.596402 0.471315 -0.725215
H51   H     H_    0.388798 0.589099 0.419529 0.301058
O56   O     O_3   0.417656 0.576469 0.612314 -0.643603
H52   H     H_    0.429079 0.555080 0.661824 0.313449
H53   H     H_    0.145226 0.961506 0.074554 0.158480
H54   H     H_    0.792856 0.135439 0.956506 0.142292
H55   H     H_    0.645228 0.461518 0.074551 0.158484
H56   H     H_    0.293442 0.634899 0.956344 0.142384

loop_
_geom_bond_atom_site_label_1
_geom_bond_atom_site_label_2
_ccdc_geom_bond_type
C47   C83   S    
C7    C83   D    
Cr6   O6    S    
Cr11  O19   S    
C6    C82   D    
C87   C91   D    
Cr7   O51   S    
C14   C18   A    
Cr1   O1    S    
C35   C36   A    
C78   O42   A    
C48   O32   A    
C75   O11   A    
C30   C34   A    
Cr11  O11   S    
Cr2   O18   S    
C45   O33   A    
C57   C62   D    
O53   H49   S    
C15   C19   A    
C12   C23   A    
Cr1   O21   S    
C59   C64   D    
C50   C54   S    
C30   H37   S    
C60   C63   D    
Cr11  O35   S    
C32   C36   A    
C14   C21   A    
C66   O2    A    
Cr6   O26   S    
C39   H15   S    
C9    C22   A    
Cr12  O20   S    
C50   H54   S    
C51   H55   S    
Cr4   O4    S    
C49   H53   S    
C11   C24   A    
C52   H56   S    
C5    C81   D    
C74   O6    A    
C61   H17   S    
C20   O56   S    
C87   H27   S    
C31   H40   S    
C46   O30   A    
C9    C66   S    
C80   O16   A    
C32   H39   S    
C47   O31   A    
C29   C33   A    
C85   H25   S    
C43   C51   D    
C46   C82   S    
Cr5   O29   S    
C59   H48   S    
C36   H44   S    
C39   C55   D    
C14   H34   S    
C58   H45   S    
C67   O39   A    
C40   C56   D    
Cr7   O7    S    
C57   H46   S    
Cr8   O28   S    
C23   C24   A    
Cr4   O20   S    
C8    C92   S    
C39   C75   S    
Cr6   O30   S    
C4    O24   A    
C15   H35   S    
C61   C62   S    
C2    O26   A    
Cr10  O14   S    
C37   C53   D    
C70   O46   A    
C44   C52   D    
C58   C61   D    
Cr1   O17   S    
Cr10  O18   S    
C79   O43   A    
C21   C22   A    
C3    C86   S    
C69   O49   A    
C80   O44   A    
Cr10  O10   S    
C16   H36   S    
Cr12  O12   S    
Cr9   O37   S    
C41   C49   D    
C92   H4    S    
C9    C26   A    
C17   C18   A    
Cr7   O19   S    
C71   O51   A    
C10   C21   A    
C25   C29   A    
Cr12  O40   S    
C12   C67   S    
C65   O37   A    
Cr5   O25   S    
Cr6   O50   S    
C12   C27   A    
C27   C31   A    
O54   H50   S    
Cr10  O34   S    
C91   H3    S    
C28   C32   A    
Cr11  O39   S    
C90   H2    S    
C47   O35   A    
C86   C90   D    
C59   C79   S    
C48   O36   A    
C85   C89   D    
C86   H26   S    
C35   H43   S    
C4    C85   S    
C8    C84   D    
C25   C26   A    
C6    C90   S    
C67   O3    A    
C76   O8    A    
C48   C84   S    
C43   H11   S    
C18   O54   S    
C54   H6    S    
C13   H33   S    
C82   H30   S    
C42   H10   S    
Cr2   O42   S    
Cr7   O31   S    
C68   O4    A    
Cr5   O49   S    
C72   O52   A    
C8    H24   S    
C60   H47   S    
C71   O47   A    
O56   H52   S    
C38   C54   D    
C16   C20   A    
C1    O25   A    
C69   O45   A    
O55   H51   S    
Cr7   O27   S    
C2    C87   S    
C88   C92   D    
C74   O10   A    
Cr9   O17   S    
C6    H22   S    
Cr6   O18   S    
C33   H41   S    
C42   C50   D    
C41   C72   S    
Cr8   O52   S    
C10   C25   A    
C3    O27   A    
C15   C24   A    
Cr12  O36   S    
C2    O22   A    
C78   O14   A    
C16   C23   A    
Cr5   O5    S    
C66   O38   A    
Cr4   O24   S    
C40   H16   S    
C31   C35   A    
Cr3   O3    S    
Cr8   O8    S    
C88   H28   S    
C73   O5    A    
Cr8   O32   S    
C7    C91   S    
C62   H18   S    
Cr9   O33   S    
C11   C68   S    
C17   O53   S    
C38   C74   S    
C10   C65   S    
C53   H5    S    
C37   C73   S    
C60   C80   S    
Cr3   O47   S    
Cr3   O43   S    
Cr10  O38   S    
C55   H7    S    
Cr2   O46   S    
C83   H31   S    
C44   H12   S    
C45   C81   S    
C79   O15   A    
Cr3   O19   S    
C72   O48   A    
C63   H19   S    
C81   H29   S    
C73   O9    A    
Cr1   O41   S    
C43   C70   S    
Cr11  O15   S    
C13   C17   A    
Cr8   O20   S    
C77   O41   A    
C89   H1    S    
C46   O34   A    
C19   C20   A    
Cr9   O13   S    
C41   H9    S    
C64   H20   S    
Cr2   O22   S    
C45   O29   A    
C34   H42   S    
C3    O23   A    
Cr12  O16   S    
C76   O12   A    
C11   C28   A    
C1    C88   S    
Cr5   O17   S    
C29   H38   S    
C1    O21   A    
C42   C71   S    
C77   O13   A    
C33   C34   A    
C13   C22   A    
C51   C55   S    
C65   O1    A    
Cr4   O44   S    
C49   C53   S    
C58   C78   S    
Cr9   O9    S    
C63   C64   S    
C38   H14   S    
C75   O7    A    
Cr2   O2    S    
Cr4   O48   S    
C37   H13   S    
C68   O40   A    
C70   O50   A    
C4    O28   A    
C40   C76   S    
C5    H21   S    
C27   C28   A    
C44   C69   S    
C57   C77   S    
Cr1   O45   S    
C7    H23   S    
Cr3   O23   S    
C56   H8    S    
C5    C89   S    
C52   C56   S    
C19   O55   S    
C84   H32   S    
C26   C30   A    
