data_mof_unit_63355.cif
_audit_creation_date              2012-12-10T20:09:45-0500
_audit_creation_method            fapswitch 2.2
_symmetry_space_group_name_H-M    P1
_symmetry_Int_Tables_number       1
_space_group_crystal_system       triclinic
_cell_length_a                    38.674891
_cell_length_b                    32.078696
_cell_length_c                    21.643867
_cell_angle_alpha                 90.000129
_cell_angle_beta                  123.996182
_cell_angle_gamma                 89.999946
_cell_volume                      22262.5236161

loop_
_atom_site_label
_atom_site_type_symbol
_atom_type_description
_atom_site_fract_x
_atom_site_fract_y
_atom_site_fract_z
_atom_type_partial_charge
C1    C     C_R   0.919302 0.000017 0.419247 0.917161
C2    C     C_R   0.031425 0.976689 0.251545 0.008562
C3    C     C_R   0.999977 0.998835 0.120504 0.870133
C4    C     C_R   0.500023 0.498836 0.879497 0.870272
C5    C     C_R   0.499976 0.498835 0.120503 0.870270
C6    C     C_R   0.000000 0.080701 1.000000 0.911016
C7    C     C_R   0.500000 0.580700 0.000000 0.911181
C8    C     C_R   0.500000 0.919503 1.000000 0.901367
C9    C     C_R   0.000000 0.419503 1.000000 0.901577
C10   C     C_R   0.580566 0.000048 0.080509 0.900788
C11   C     C_R   0.419434 0.000048 0.919491 0.900786
C12   C     C_R   0.080566 0.500049 0.080509 0.900855
C13   C     C_R   0.468605 0.476652 0.748490 0.008486
C14   C     C_R   0.919434 0.500049 0.919491 0.900854
C15   C     C_R   0.500000 0.080611 1.000000 0.902023
C16   C     C_R   1.000000 0.580611 1.000000 0.901980
C17   C     C_R   0.519785 0.228294 0.067625 -0.175435
C18   C     C_R   0.480214 0.228294 0.932374 -0.175435
C19   C     C_R   0.021363 0.728291 0.067689 -0.175453
C20   C     C_R   0.978636 0.728291 0.932310 -0.175454
C21   C     C_R   0.499999 0.206656 1.000000 0.165257
C22   C     C_R   0.999999 0.706654 1.000000 0.165402
C23   C     C_R   0.978637 0.771731 0.932308 -0.181005
C24   C     C_R   0.531395 0.476652 0.251510 0.008485
C25   C     C_R   0.021363 0.771731 0.067692 -0.181005
C26   C     C_R   0.480213 0.271734 0.932373 -0.181379
C27   C     C_R   0.519787 0.271734 0.067627 -0.181380
C28   C     C_R   0.070422 0.074179 0.727395 -0.094118
C29   C     C_R   0.929578 0.074178 0.272605 -0.094118
C30   C     C_R   0.570363 0.574244 0.727344 -0.093805
C31   C     C_R   0.429635 0.574242 0.272655 -0.093806
C32   C     C_R   0.000000 0.793352 1.000000 0.174571
C33   C     C_R   0.500000 0.293355 1.000000 0.174499
C34   C     C_1   0.499999 0.162213 1.000000 -0.066372
C35   C     C_R   0.969172 0.978979 0.685148 -0.250145
C36   C     C_1   0.999999 0.662211 1.000000 -0.066301
C37   C     C_1   0.000000 0.837763 1.000000 -0.084430
C38   C     C_1   0.500000 0.337765 0.000000 -0.084749
C39   C     C_1   1.000000 0.875063 1.000000 -0.202376
C40   C     C_1   0.500000 0.375064 0.000000 -0.202418
C41   C     C_1   0.499999 0.124887 1.000000 -0.171683
C42   C     C_1   1.000000 0.624886 1.000000 -0.171687
C43   C     C_R   0.480367 0.771819 0.932395 -0.178151
C44   C     C_R   0.519633 0.771820 0.067605 -0.178151
C45   C     C_R   0.986130 0.271819 0.933924 -0.178040
C46   C     C_R   0.030827 0.978979 0.314851 -0.250145
C47   C     C_R   0.013870 0.271820 0.066075 -0.178039
C48   C     C_R   0.500000 0.793458 1.000000 0.166780
C49   C     C_R   0.000000 0.293458 1.000000 0.166323
C50   C     C_R   0.013869 0.228376 0.066075 -0.178812
C51   C     C_R   0.986131 0.228376 0.933924 -0.178812
C52   C     C_R   0.519632 0.728377 0.067605 -0.178726
C53   C     C_R   0.480368 0.728376 0.932395 -0.178726
C54   C     C_R   1.000000 0.206738 1.000000 0.168796
C55   C     C_R   0.500000 0.706739 1.000000 0.168464
C56   C     C_1   0.500000 0.837901 1.000000 -0.066514
C57   C     C_R   0.469197 0.478942 0.685178 -0.250165
C58   C     C_1   1.000000 0.337901 1.000000 -0.066595
C59   C     C_R   0.071744 0.035866 0.759899 0.010504
C60   C     C_R   0.928255 0.035866 0.240101 0.010505
C61   C     C_R   0.571712 0.535931 0.759869 0.010481
C62   C     C_R   0.428288 0.535929 0.240130 0.010481
C63   C     C_1   0.000000 0.162297 1.000000 -0.065862
C64   C     C_1   0.500000 0.662297 1.000000 -0.065935
C65   C     C_1   0.000000 0.124973 1.000000 -0.178781
C66   C     C_1   0.500000 0.624973 1.000000 -0.178799
C67   C     C_1   0.500000 0.875227 1.000000 -0.172128
C68   C     C_R   0.530803 0.478942 0.314822 -0.250166
C69   C     C_1   0.000000 0.375227 1.000000 -0.172165
C70   C     C_R   0.109651 0.014184 0.802010 -0.252905
C71   C     C_R   0.890348 0.014183 0.197989 -0.252904
C72   C     C_R   0.609633 0.514272 0.801991 -0.252977
C73   C     C_R   0.390367 0.514270 0.198009 -0.252972
C74   C     C_R   0.145838 0.030271 0.810891 0.520762
C75   C     C_R   0.854162 0.030271 0.189108 0.520757
C76   C     C_R   0.645807 0.530383 0.810858 0.520779
C77   C     C_R   0.354192 0.530381 0.189140 0.520769
C78   C     C_R   0.144005 0.068093 0.776770 -0.207805
C79   C     C_R   0.001377 0.000014 0.687309 -0.063654
C80   C     C_R   0.855994 0.068093 0.223229 -0.207807
C81   C     C_R   0.643950 0.568204 0.776712 -0.207809
C82   C     C_R   0.356049 0.568201 0.223286 -0.207808
C83   C     C_R   0.033083 0.017449 0.815672 -0.224920
C84   C     C_R   0.966917 0.017449 0.184328 -0.224921
C85   C     C_R   0.533062 0.517490 0.815654 -0.224731
C86   C     C_R   0.466938 0.517490 0.184346 -0.224731
C87   C     C_R   0.998623 0.000013 0.312691 -0.063654
C88   C     C_R   0.501377 0.500014 0.687311 -0.063715
C89   C     C_R   0.080698 0.000017 0.580753 0.917161
C90   C     C_R   0.498623 0.500014 0.312688 -0.063714
C91   C     C_R   0.034188 0.018697 0.752949 0.027338
C92   C     C_R   0.965812 0.018697 0.247052 0.027338
C93   C     C_R   0.534167 0.518735 0.752930 0.027390
C94   C     C_R   0.465832 0.518735 0.247069 0.027390
C95   C     C_R   0.893733 0.958675 0.693649 -0.149588
C96   C     C_R   0.106267 0.958674 0.306350 -0.149588
C97   C     C_R   0.393795 0.458523 0.693753 -0.149576
C98   C     C_R   0.606206 0.458525 0.306248 -0.149577
C99   C     C_R   0.863329 0.933720 0.691168 -0.138186
C100  C     C_R   0.419302 0.500017 0.419246 0.917133
C101  C     C_R   0.136670 0.933720 0.308831 -0.138188
C102  C     C_R   0.363436 0.433508 0.691304 -0.138274
C103  C     C_R   0.636565 0.433511 0.308696 -0.138273
C104  C     C_R   0.875122 0.900349 0.740624 -0.111365
C105  C     C_R   0.124877 0.900348 0.259375 -0.111363
C106  C     C_R   0.375289 0.400132 0.740771 -0.110999
C107  C     C_R   0.624712 0.400135 0.259229 -0.111002
C108  C     C_R   0.917344 0.891768 0.792493 -0.114730
C109  C     C_R   0.082655 0.891767 0.207506 -0.114731
C110  C     C_R   0.417527 0.391610 0.792623 -0.114991
C111  C     C_R   0.580698 0.500017 0.580754 0.917133
C112  C     C_R   0.582475 0.391611 0.207378 -0.114990
C113  C     C_R   0.947847 0.916636 0.795190 -0.112033
C114  C     C_R   0.052153 0.916635 0.204809 -0.112035
C115  C     C_R   0.447984 0.416544 0.795294 -0.112592
C116  C     C_R   0.552017 0.416545 0.204707 -0.112591
C117  C     C_R   0.001020 0.000030 0.621170 0.891118
C118  C     C_R   0.998979 0.000030 0.378830 0.891118
C119  C     C_R   0.501019 0.500030 0.621170 0.891093
C120  C     C_R   0.498980 0.500030 0.378830 0.891094
C121  C     C_R   0.936246 0.950526 0.746148 0.134705
C122  C     C_R   0.000298 0.997346 0.813413 -0.094358
C123  C     C_R   0.063754 0.950525 0.253851 0.134705
C124  C     C_R   0.436322 0.450434 0.746234 0.134887
C125  C     C_R   0.563678 0.450435 0.253766 0.134887
C126  C     C_R   0.728244 0.962596 0.224616 -0.188552
C127  C     C_R   0.271756 0.962596 0.775385 -0.188527
C128  C     C_R   0.228244 0.462599 0.224551 -0.188441
C129  C     C_R   0.771756 0.462599 0.775449 -0.188400
C130  C     C_R   0.706628 0.000329 0.207726 0.145670
C131  C     C_R   0.293372 0.000329 0.792275 0.145682
C132  C     C_R   0.206628 0.500329 0.207727 0.145611
C133  C     C_R   0.999702 0.997346 0.186587 -0.094358
C134  C     C_R   0.793372 0.500329 0.792274 0.145629
C135  C     C_R   0.728284 0.038007 0.234899 -0.156560
C136  C     C_R   0.271716 0.038007 0.765101 -0.156546
C137  C     C_R   0.228284 0.538003 0.234965 -0.156728
C138  C     C_R   0.771716 0.538003 0.765037 -0.156711
C139  C     C_R   0.771744 0.037945 0.278941 -0.149905
C140  C     C_R   0.228256 0.037945 0.721058 -0.149882
C141  C     C_R   0.271744 0.537941 0.279006 -0.149851
C142  C     C_R   0.728256 0.537941 0.720995 -0.149811
C143  C     C_R   0.793336 0.000206 0.295617 0.188864
C144  C     C_R   0.500301 0.497350 0.813418 -0.094379
C145  C     C_R   0.206664 0.000206 0.704384 0.188878
C146  C     C_R   0.293335 0.500205 0.295615 0.188850
C147  C     C_R   0.706664 0.500205 0.704385 0.188872
C148  C     C_R   0.771679 0.962532 0.268716 -0.107251
C149  C     C_R   0.228321 0.962532 0.731286 -0.107228
C150  C     C_R   0.271679 0.462535 0.268650 -0.107267
C151  C     C_R   0.728321 0.462535 0.731350 -0.107240
C152  C     C_1   0.662184 0.000326 0.162582 -0.057942
C153  C     C_1   0.337816 0.000326 0.837418 -0.057954
C154  C     C_1   0.162184 0.500326 0.162583 -0.057887
C155  C     C_R   0.499699 0.497350 0.186582 -0.094379
C156  C     C_1   0.837816 0.500326 0.837418 -0.057904
C157  C     C_1   0.837751 0.000156 0.339315 -0.042492
C158  C     C_1   0.162249 0.000156 0.660685 -0.042499
C159  C     C_1   0.337751 0.500156 0.339313 -0.042408
C160  C     C_1   0.662249 0.500156 0.660688 -0.042419
C161  C     C_1   0.875060 0.000064 0.375804 -0.175082
C162  C     C_1   0.124940 0.000064 0.624196 -0.175083
C163  C     C_1   0.375060 0.500065 0.375801 -0.175115
C164  C     C_1   0.624940 0.500065 0.624199 -0.175117
C165  C     C_R   0.106375 0.089961 0.735218 -0.216175
C166  C     C_R   0.968575 0.976689 0.748455 0.008562
C167  C     C_R   0.893624 0.089961 0.264782 -0.216173
C168  C     C_R   0.606306 0.590049 0.735151 -0.216036
C169  C     C_R   0.393692 0.590047 0.264847 -0.216034
C170  C     C_1   0.624850 0.000209 0.124870 -0.169349
C171  C     C_1   0.375149 0.000210 0.875130 -0.169349
C172  C     C_1   0.124850 0.500210 0.124870 -0.169322
C173  C     C_1   0.875149 0.500210 0.875130 -0.169323
C174  C     C_R   1.000000 0.919290 1.000000 0.894989
C175  C     C_R   0.500000 0.419291 0.000000 0.895135
C176  C     C_R   0.000023 0.998835 0.879496 0.870134
H1    H     H_    0.171603 0.080826 0.782618 0.185248
H2    H     H_    0.073562 0.865811 0.169455 0.129707
H3    H     H_    0.426666 0.365647 0.830675 0.130154
H4    H     H_    0.573336 0.365648 0.169326 0.130154
H5    H     H_    0.980464 0.909485 0.835352 0.107245
H6    H     H_    0.019535 0.909484 0.164648 0.107246
H7    H     H_    0.480614 0.409438 0.835442 0.107203
H8    H     H_    0.519387 0.409438 0.164559 0.107202
H9    H     H_    0.788349 0.933270 0.281419 0.153957
H10   H     H_    0.211651 0.933270 0.718583 0.153950
H11   H     H_    0.288349 0.433277 0.281303 0.154000
H12   H     H_    0.828396 0.080825 0.217380 0.185246
H13   H     H_    0.711651 0.433277 0.718697 0.153986
H14   H     H_    0.711553 0.933368 0.203644 0.148335
H15   H     H_    0.288447 0.933368 0.796359 0.148327
H16   H     H_    0.211554 0.433375 0.203528 0.148461
H17   H     H_    0.788446 0.433375 0.796472 0.148448
H18   H     H_    0.711615 0.067287 0.221856 0.142405
H19   H     H_    0.288385 0.067287 0.778143 0.142397
H20   H     H_    0.211614 0.567280 0.221973 0.142378
H21   H     H_    0.788385 0.567280 0.778029 0.142368
H22   H     H_    0.788469 0.067183 0.299489 0.132690
H23   H     H_    0.671538 0.580954 0.782549 0.185282
H24   H     H_    0.211531 0.067183 0.700510 0.132682
H25   H     H_    0.288469 0.567176 0.299604 0.132724
H26   H     H_    0.711531 0.567176 0.700398 0.132714
H27   H     H_    0.037930 0.788415 0.120203 0.134018
H28   H     H_    0.962070 0.788415 0.879797 0.134019
H29   H     H_    0.535132 0.288420 0.120087 0.134432
H30   H     H_    0.464867 0.288420 0.879912 0.134431
H31   H     H_    0.535133 0.211618 0.120090 0.143270
H32   H     H_    0.464865 0.211618 0.879909 0.143270
H33   H     H_    0.037937 0.711615 0.120205 0.143059
H34   H     H_    0.328460 0.580951 0.217448 0.185280
H35   H     H_    0.962062 0.711615 0.879795 0.143059
H36   H     H_    0.975370 0.211699 0.882656 0.141550
H37   H     H_    0.024630 0.211699 0.117343 0.141551
H38   H     H_    0.465135 0.711700 0.879940 0.141878
H39   H     H_    0.534865 0.711700 0.120059 0.141878
H40   H     H_    0.105145 0.119347 0.709493 0.156777
H41   H     H_    0.894854 0.119347 0.290506 0.156777
H42   H     H_    0.605055 0.619435 0.709408 0.156857
H43   H     H_    0.394942 0.619433 0.290589 0.156857
H44   H     H_    0.465132 0.788495 0.879940 0.143095
H45   H     H_    0.851545 0.881074 0.738615 0.131742
H46   H     H_    0.534867 0.788496 0.120059 0.143095
H47   H     H_    0.975367 0.288496 0.882655 0.143463
H48   H     H_    0.024633 0.288496 0.117344 0.143462
H49   H     H_    0.041677 0.091822 0.696289 0.149503
H50   H     H_    0.958322 0.091822 0.303711 0.149503
H51   H     H_    0.541608 0.591869 0.696230 0.149617
H52   H     H_    0.458390 0.591868 0.303768 0.149617
H53   H     H_    0.111011 0.984866 0.828169 0.184959
H54   H     H_    0.888989 0.984865 0.171831 0.184958
H55   H     H_    0.611012 0.484955 0.828169 0.184946
H56   H     H_    0.148454 0.881073 0.261383 0.131742
H57   H     H_    0.388989 0.484953 0.171831 0.184946
H58   H     H_    0.057933 0.032308 0.866447 0.173007
H59   H     H_    0.942067 0.032308 0.133553 0.173007
H60   H     H_    0.557895 0.532377 0.866413 0.173028
H61   H     H_    0.442105 0.532376 0.133587 0.173028
H62   H     H_    0.945036 0.963502 0.634374 0.146712
H63   H     H_    0.054963 0.963502 0.365625 0.146712
H64   H     H_    0.445079 0.463435 0.634425 0.146764
H65   H     H_    0.554921 0.463435 0.365575 0.146764
H66   H     H_    0.884188 0.984486 0.655112 0.128161
H67   H     H_    0.351747 0.380808 0.738784 0.131819
H68   H     H_    0.115812 0.984485 0.344886 0.128161
H69   H     H_    0.384203 0.484333 0.655201 0.128124
H70   H     H_    0.615797 0.484335 0.344799 0.128123
H71   H     H_    0.830613 0.940252 0.650879 0.135626
H72   H     H_    0.169386 0.940252 0.349119 0.135626
H73   H     H_    0.330708 0.439994 0.651029 0.135614
H74   H     H_    0.669293 0.439997 0.348971 0.135613
H75   H     H_    0.256541 0.010652 0.896838 0.390261
H76   H     H_    0.743465 0.010643 0.103200 0.390260
H77   H     H_    0.756516 0.510816 0.896768 0.390253
H78   H     H_    0.648255 0.380811 0.261217 0.131819
H79   H     H_    0.243494 0.510799 0.103290 0.390252
H80   H     H_    0.926437 0.865812 0.830545 0.129707
O1    O     O_R   0.939010 0.034440 0.439030 -0.617721
O2    O     O_R   0.439000 0.999980 0.990770 -0.609679
O3    O     O_R   0.061000 0.499980 0.009230 -0.609732
O4    O     O_R   0.939000 0.499980 0.990770 -0.609735
O5    O     O_R   0.500000 0.061030 0.051640 -0.614144
O6    O     O_R   0.500000 0.061030 0.948360 -0.614142
O7    O     O_R   0.000000 0.561030 0.051640 -0.614102
O8    O     O_R   0.000000 0.561030 0.948360 -0.614100
O9    O     O_R   0.939030 0.965580 0.439000 -0.612239
O10   O     O_R   0.060970 0.965580 0.561000 -0.612239
O11   O     O_R   0.439030 0.465580 0.439000 -0.612255
O12   O     O_R   0.060990 0.034440 0.560970 -0.617721
O13   O     O_R   0.560970 0.465580 0.561000 -0.612255
O14   O     O_R   0.000000 0.034440 0.591610 -0.633323
O15   O     O_R   0.000000 0.034440 0.408390 -0.633323
O16   O     O_R   0.500000 0.534440 0.591610 -0.633285
O17   O     O_R   0.500000 0.534440 0.408390 -0.633285
O18   O     O_R   0.000010 0.965580 0.591580 -0.617053
O19   O     O_R   0.999990 0.965580 0.408420 -0.617053
O20   O     O_R   0.500010 0.465580 0.591580 -0.617091
O21   O     O_R   0.499990 0.465580 0.408420 -0.617091
O22   O     O_R   0.034440 0.939000 0.034360 -0.610775
O23   O     O_R   0.439010 0.534440 0.439030 -0.617699
O24   O     O_R   0.965560 0.939000 0.965640 -0.610776
O25   O     O_R   0.534440 0.439000 0.034360 -0.610724
O26   O     O_R   0.465560 0.439000 0.965640 -0.610724
O27   O     O_R   0.034440 0.999990 0.942780 -0.622839
O28   O     O_R   0.965560 0.999990 0.057220 -0.622838
O29   O     O_R   0.534440 0.499990 0.942780 -0.622839
O30   O     O_R   0.465560 0.499990 0.057220 -0.622839
O31   O     O_R   0.965580 0.000000 0.873940 -0.611351
O32   O     O_R   0.034420 0.000000 0.126060 -0.611350
O33   O     O_R   0.465580 0.500000 0.873940 -0.611384
O34   O     O_R   0.560990 0.534440 0.560970 -0.617698
O35   O     O_R   0.534420 0.500000 0.126060 -0.611383
O36   O     O_R   0.034440 0.060970 0.034440 -0.613575
O37   O     O_R   0.965560 0.060970 0.965560 -0.613574
O38   O     O_R   0.534440 0.560970 0.034440 -0.613719
O39   O     O_R   0.465560 0.560970 0.965560 -0.613718
O40   O     O_R   0.500020 0.939060 0.051770 -0.614180
O41   O     O_R   0.499980 0.939060 0.948230 -0.614180
O42   O     O_R   0.000020 0.439060 0.051770 -0.614327
O43   O     O_R   0.999980 0.439060 0.948230 -0.614326
O44   O     O_2   0.202062 0.996223 0.942080 -0.279508
O45   O     O_R   0.561000 0.000050 0.112670 -0.616615
O46   O     O_2   0.189151 0.961470 0.830366 -0.319954
O47   O     O_3   0.232591 0.030154 0.873257 -0.571267
O48   O     O_2   0.797939 0.996220 0.057920 -0.279473
O49   O     O_2   0.810849 0.961470 0.169635 -0.319979
O50   O     O_3   0.767409 0.030153 0.126739 -0.571253
O51   O     O_2   0.702074 0.496415 0.942097 -0.279523
O52   O     O_2   0.689155 0.461593 0.830431 -0.319995
O53   O     O_3   0.732553 0.530303 0.873160 -0.571288
O54   O     O_2   0.297927 0.496407 0.057904 -0.279473
O55   O     O_2   0.310846 0.461591 0.169573 -0.320035
O56   O     O_R   0.439000 0.000050 0.887330 -0.616614
O57   O     O_3   0.267446 0.530299 0.126834 -0.571268
O58   O     O_R   0.061000 0.500050 0.112670 -0.616574
O59   O     O_R   0.939000 0.500050 0.887330 -0.616573
O60   O     O_R   0.561000 0.999980 0.009230 -0.609676
S1    S     S_3+6 0.193197 0.003059 0.865803 0.007795
S2    S     S_3+6 0.806803 0.003057 0.134195 0.007804
S3    S     S_3+6 0.693185 0.503204 0.865793 0.007770
S4    S     S_3+6 0.306815 0.503199 0.134206 0.007783
Zn1   Zn    Zn3+2 0.000000 0.045990 0.500000 0.943076
Zn2   Zn    Zn3+2 0.499990 0.000060 0.930950 0.981304
Zn3   Zn    Zn3+2 0.000010 0.500060 0.069050 0.981174
Zn4   Zn    Zn3+2 0.999990 0.500060 0.930950 0.981178
Zn5   Zn    Zn3+2 0.500000 0.545990 0.500000 0.943247
Zn6   Zn    Zn3+2 0.000000 0.954030 0.500000 0.984598
Zn7   Zn    Zn3+2 0.500000 0.454030 0.500000 0.984495
Zn8   Zn    Zn3+2 0.045990 0.999980 0.045940 0.989082
Zn9   Zn    Zn3+2 0.954010 0.999980 0.954060 0.989082
Zn10  Zn    Zn3+2 0.545990 0.499980 0.045940 0.988957
Zn11  Zn    Zn3+2 0.454010 0.499980 0.954060 0.988958
Zn12  Zn    Zn3+2 0.500010 0.000060 0.069050 0.981302

loop_
_geom_bond_atom_site_label_1
_geom_bond_atom_site_label_2
_ccdc_geom_bond_type
C63   C65   T    
O35   Zn10  S    
C11   C171  S    
C53   H38   S    
C72   H55   S    
C18   C21   A    
C107  C112  A    
O23   Zn5   S    
C36   C42   T    
O3    Zn4   S    
C106  H67   S    
C136  C140  A    
C12   C172  S    
C2    C123  S    
C135  C139  A    
C121  C166  S    
O45   Zn12  S    
C176  O27   A    
C97   C124  A    
C97   H69   S    
C95   C99   A    
O24   Zn9   S    
O31   Zn9   S    
C54   C63   S    
C89   O10   A    
C4    O33   A    
C96   H68   S    
C146  C150  A    
C70   C74   A    
C68   C90   A    
C74   S1    S    
O60   Zn2   S    
C149  H10   S    
C31   C62   A    
C26   H30   S    
C39   C174  S    
C5    O35   A    
C85   C144  A    
C6    O36   A    
C3    O32   A    
C156  C173  T    
C6    O37   A    
C84   H59   S    
O51   S3    D    
C87   C118  S    
C13   C124  S    
C132  C137  A    
C5    C155  S    
C52   H39   S    
C17   C21   A    
C107  H78   S    
C27   H29   S    
C64   C66   T    
C108  C113  A    
C152  C170  T    
C165  H40   S    
C22   C36   S    
O55   S4    D    
C59   C91   S    
C88   C119  S    
C9    O42   A    
O10   Zn6   S    
C128  C150  A    
C130  C152  S    
C160  C164  T    
C89   C162  S    
O2    Zn12  S    
O57   S4    S    
O37   Zn9   S    
C78   C165  A    
C33   C38   S    
C140  C145  A    
C4    C144  S    
O4    Zn3   S    
C98   H70   S    
C83   C91   A    
C4    O29   A    
C89   O12   A    
C140  H24   S    
C7    C66   S    
C77   C82   A    
C122  C176  S    
C100  C163  S    
O11   Zn7   S    
C127  C131  A    
O6    Zn2   S    
C30   C61   A    
C73   C77   A    
C103  C107  A    
C101  H72   S    
O27   Zn8   S    
C44   C48   A    
O18   Zn6   S    
C78   H1    S    
C43   H44   S    
C27   C33   A    
C5    O30   A    
C14   C173  S    
C13   C57   A    
C13   C144  A    
C126  H14   S    
C119  O20   A    
C139  C143  A    
C109  H2    S    
O14   Zn1   S    
C98   C125  A    
C113  H5    S    
H75   O47   S    
C20   C23   A    
O20   Zn7   S    
C79   C91   A    
C112  H4    S    
C44   C52   A    
C82   C169  A    
C31   H52   S    
C29   H50   S    
C147  C160  S    
C47   C50   A    
C60   C92   S    
C143  C148  A    
C17   C27   A    
C105  H56   S    
C131  C136  A    
C95   H66   S    
C50   H37   S    
C32   C37   S    
C77   S4    S    
C127  H15   S    
O40   Zn12  S    
C128  H16   S    
C90   C120  S    
C147  C151  A    
C15   O5    A    
O59   Zn4   S    
C26   C33   A    
C29   C60   A    
C68   H65   S    
C80   H12   S    
C46   H63   S    
C109  C114  A    
C114  C123  A    
C3    O28   A    
C12   O3    A    
O8    Zn4   S    
C116  C125  A    
C100  O23   A    
O50   S2    S    
C44   H46   S    
C99   H71   S    
C112  C116  A    
C46   C87   A    
C105  C109  A    
O49   S2    D    
C96   C123  A    
C142  C147  A    
O16   Zn5   S    
C25   H27   S    
C28   H49   S    
C23   H28   S    
C12   O58   A    
O5    Zn12  S    
C70   H53   S    
C14   O4    A    
C127  C149  A    
C135  H18   S    
C120  O21   A    
O42   Zn3   S    
C110  H3    S    
O56   Zn2   S    
C116  H8    S    
C35   C79   A    
C83   C122  A    
C138  H21   S    
C113  C121  A    
C8    C67   S    
O19   Zn6   S    
C84   C92   A    
C87   C92   A    
C167  H41   S    
C82   H34   S    
C10   O60   A    
C102  H73   S    
C130  C135  A    
C18   C26   A    
C139  H22   S    
C76   S3    S    
C50   C54   A    
C142  H26   S    
C9    C69   S    
C129  C151  A    
C61   C93   S    
C126  C130  A    
C98   C103  A    
C35   C166  A    
O25   Zn10  S    
C16   O7    A    
C51   H36   S    
C43   C53   A    
C6    C65   S    
C134  C156  S    
O43   Zn4   S    
C175  O26   A    
O39   Zn11  S    
C73   H57   S    
C97   C102  A    
C52   C55   A    
C95   C121  A    
C99   C104  A    
C137  H20   S    
C1    C161  S    
C96   C101  A    
C108  H80   S    
C34   C41   T    
O28   Zn9   S    
O22   Zn8   S    
C7    O38   A    
C90   C94   A    
C1    O1    A    
C84   C133  A    
C2    C133  A    
C111  C164  S    
C45   H47   S    
C17   H31   S    
O9    Zn6   S    
C15   C41   S    
O32   Zn8   S    
C138  C142  A    
C126  C148  A    
O29   Zn10  S    
C8    O40   A    
C60   C71   A    
C148  H9    S    
C114  H6    S    
C11   O56   A    
C86   C155  A    
C134  C138  A    
O48   S2    D    
C45   C49   A    
C14   O59   A    
O34   Zn5   S    
C28   C165  A    
C136  H19   S    
C61   C72   A    
C169  H43   S    
C20   C22   A    
C62   C94   S    
C111  O13   A    
C157  C161  T    
C104  C108  A    
C75   S2    S    
O38   Zn10  S    
C137  C141  A    
C115  C124  A    
C19   H33   S    
C30   H51   S    
C117  O18   A    
O52   S3    D    
C81   H23   S    
C115  H7    S    
C58   C69   T    
O41   Zn2   S    
C21   C34   S    
C10   C170  S    
C31   C169  A    
H76   O50   S    
C23   C32   A    
C29   C167  A    
C30   C168  A    
C37   C39   T    
C38   C40   T    
C145  C158  S    
O54   S4    D    
C79   C117  S    
C81   C168  A    
C176  O31   A    
C9    O43   A    
C24   C68   A    
C59   C70   A    
O7    Zn3   S    
C129  C134  A    
O58   Zn3   S    
C75   C80   A    
C8    O41   A    
C74   C78   A    
C110  C115  A    
C145  C149  A    
C174  O24   A    
C47   H48   S    
O17   Zn5   S    
C122  C166  A    
C85   H60   S    
C72   C76   A    
C10   O45   A    
C117  O14   A    
C120  O17   A    
C47   C49   A    
C2    C46   A    
C119  O16   A    
C111  O34   A    
O21   Zn7   S    
C141  H25   S    
C45   C51   A    
O15   Zn1   S    
C86   H61   S    
C18   H32   S    
C20   H35   S    
C86   C94   A    
O33   Zn11  S    
O1    Zn1   S    
C43   C48   A    
C80   C167  A    
C24   C155  A    
C25   C32   A    
C35   H62   S    
C85   C93   A    
C128  C132  A    
C118  O19   A    
H79   O57   S    
C143  C157  S    
C53   C55   A    
C101  C105  A    
O46   S1    D    
H77   O53   S    
C11   O2    A    
C131  C153  S    
C19   C22   A    
C150  H11   S    
C7    O39   A    
C146  C159  S    
O13   Zn7   S    
C49   C58   S    
C3    C133  S    
C132  C154  S    
C83   H58   S    
C55   C64   S    
C153  C171  T    
O26   Zn11  S    
C154  C172  T    
C62   C73   A    
C141  C146  A    
C174  O22   A    
C24   C125  S    
C159  C163  T    
C16   C42   S    
C104  H45   S    
C118  O15   A    
C106  C110  A    
C28   C59   A    
C48   C56   S    
C88   C93   A    
C103  H74   S    
C76   C81   A    
O47   S1    S    
C40   C175  S    
C129  H17   S    
C100  O11   A    
O44   S1    D    
C56   C67   T    
O12   Zn1   S    
C57   C88   A    
C51   C54   A    
C15   O6    A    
C71   C75   A    
O30   Zn11  S    
O53   S3    S    
C71   H54   S    
C102  C106  A    
C19   C25   A    
C57   H64   S    
C158  C162  T    
C16   O8    A    
C151  H13   S    
C1    O9    A    
C175  O25   A    
C168  H42   S    
O36   Zn8   S    
