data_mof_unit_42702.cif
_audit_creation_date              2012-12-11T15:22:31-0500
_audit_creation_method            fapswitch 2.2
_symmetry_space_group_name_H-M    P1
_symmetry_Int_Tables_number       1
_space_group_crystal_system       triclinic
_cell_length_a                    22.586575
_cell_length_b                    7.360624
_cell_length_c                    21.047021
_cell_angle_alpha                 90.00956
_cell_angle_beta                  93.381486
_cell_angle_gamma                 89.999913
_cell_volume                      3493.00212454

loop_
_atom_site_label
_atom_site_type_symbol
_atom_type_description
_atom_site_fract_x
_atom_site_fract_y
_atom_site_fract_z
_atom_type_partial_charge
O1    O     O_R   0.438030 0.494310 0.439340 -0.525067
O2    O     O_R   0.561970 0.994310 0.560660 -0.525014
O3    O     O_R   0.556900 0.822900 0.435960 -0.521866
O4    O     O_R   0.443100 0.322900 0.564040 -0.522041
C1    C     C_R   0.575360 0.654377 0.421219 0.702866
C2    C     C_R   0.424645 0.154392 0.578788 0.702694
O5    O     O_R   0.438170 0.823950 0.431660 -0.527911
O6    O     O_R   0.561830 0.323950 0.568340 -0.528359
O7    O     O_R   0.442390 0.995390 0.556340 -0.532705
O8    O     O_R   0.557610 0.495390 0.443660 -0.532691
C3    C     C_R   0.417905 0.655444 0.416963 0.705652
C4    C     C_R   0.582067 0.155457 0.583068 0.705116
O9    O     O_3   0.501520 0.661170 0.540910 -0.372616
O10   O     O_3   0.498480 0.161170 0.459090 -0.372358
V1    V     V_3+5 0.499720 0.935580 0.492410 1.580209
V2    V     V_3+5 0.500280 0.435580 0.507590 1.579597
C5    C     C_R   0.813220 0.171405 0.885018 0.122770
C6    C     C_R   0.186683 0.672329 0.115116 0.122878
C7    C     C_R   0.866656 0.085387 0.870280 -0.135060
C8    C     C_R   0.133347 0.585474 0.129723 -0.135137
C9    C     C_R   0.873034 0.019838 0.808799 -0.163991
C10   C     C_R   0.127044 0.519148 0.191110 -0.163945
C11   C     C_R   0.827787 0.042802 0.760613 0.050842
C12   C     C_R   0.172252 0.542137 0.239337 0.050800
C13   C     C_R   0.773400 0.123496 0.775169 -0.008330
C14   C     C_R   0.226520 0.623842 0.224922 -0.008259
C15   C     C_R   0.766071 0.187203 0.837596 0.047133
C16   C     C_R   0.233767 0.688473 0.162601 0.047189
C17   C     C_R   0.837710 0.995937 0.697481 0.317318
C18   C     C_R   0.162389 0.494331 0.302394 0.317270
C19   C     C_R   0.793677 0.032828 0.648972 0.110456
C20   C     C_R   0.206358 0.531285 0.350965 0.110403
C21   C     C_R   0.735356 0.078927 0.664630 -0.033117
C22   C     C_R   0.264622 0.578327 0.335386 -0.033076
C23   C     C_R   0.726376 0.139208 0.727327 -0.086635
C24   C     C_R   0.273515 0.639600 0.272792 -0.086501
C25   C     C_R   0.671003 0.216186 0.742210 0.025827
C26   C     C_R   0.328769 0.717634 0.258050 0.025736
C27   C     C_R   0.665016 0.282460 0.805143 0.226699
C28   C     C_R   0.334593 0.785480 0.195304 0.226605
C29   C     C_R   0.711946 0.267150 0.851016 -0.188362
C30   C     C_R   0.287720 0.769860 0.149372 -0.188220
C31   C     C_R   0.686129 0.066368 0.619881 0.130801
C32   C     C_R   0.313864 0.565785 0.380117 0.130843
C33   C     C_R   0.631343 0.146534 0.633292 -0.208120
C34   C     C_R   0.368584 0.646530 0.366782 -0.208260
C35   C     C_R   0.623872 0.222636 0.694320 0.330398
C36   C     C_R   0.375955 0.723457 0.305879 0.330492
H1    H     H_    0.914875 0.958020 0.798144 0.180445
H2    H     H_    0.085283 0.456646 0.201669 0.180531
H3    H     H_    0.704892 0.318799 0.897928 0.194696
H4    H     H_    0.294653 0.822696 0.102598 0.194547
C37   C     C_3   0.236656 0.319412 0.786751 -0.041705
C38   C     C_3   0.763283 0.819377 0.213229 -0.041145
C39   C     C_3   0.254363 0.977773 0.809603 0.173556
C40   C     C_3   0.745658 0.477718 0.190398 0.173555
C41   C     C_3   0.300299 0.965879 0.757440 -0.005001
C42   C     C_3   0.699732 0.465790 0.242572 -0.005890
H5    H     H_    0.231041 0.844474 0.810180 0.156026
H6    H     H_    0.769002 0.344446 0.189810 0.155969
H7    H     H_    0.285871 0.848510 0.730014 0.143422
H8    H     H_    0.714177 0.348423 0.269983 0.143656
C43   C     C_1   0.379280 0.138603 0.624531 -0.054617
C44   C     C_1   0.620736 0.638553 0.375491 -0.054648
C45   C     C_3   0.206714 0.125820 0.791878 -0.083069
C46   C     C_3   0.793275 0.625856 0.208115 -0.082622
C47   C     C_3   0.295453 0.305688 0.749229 0.240836
C48   C     C_3   0.704520 0.805621 0.250808 0.240633
C49   C     C_3   0.292952 0.125785 0.708753 -0.124192
C50   C     C_3   0.707063 0.625741 0.291270 -0.124005
C51   C     C_3   0.228214 0.103069 0.672856 0.233858
C52   C     C_3   0.771811 0.603149 0.327148 0.233969
C53   C     C_3   0.179957 0.077394 0.723754 -0.099226
C54   C     C_3   0.820061 0.577588 0.276236 -0.099519
C55   C     C_1   0.340802 0.124801 0.662350 0.147288
C56   C     C_1   0.659221 0.624738 0.337679 0.147374
C57   C     C_1   0.159699 0.111462 0.838837 0.146118
C58   C     C_1   0.840289 0.611526 0.161150 0.146254
C59   C     C_1   0.121330 0.091502 0.876418 -0.085811
C60   C     C_1   0.878660 0.591557 0.123571 -0.085882
H9    H     H_    0.167550 0.931196 0.724475 0.145416
H10   H     H_    0.832522 0.431435 0.275511 0.145463
H11   H     H_    0.205448 0.406963 0.757708 0.169007
H12   H     H_    0.794490 0.907089 0.242219 0.168804
O11   O     O_R   0.942420 0.735670 0.056390 -0.529103
O12   O     O_R   0.057580 0.235670 0.943610 -0.529111
O13   O     O_R   0.061840 0.404850 0.068350 -0.537491
O14   O     O_R   0.938160 0.904850 0.931650 -0.537450
C61   C     C_R   0.082219 0.573527 0.082576 0.721003
C62   C     C_R   0.917793 0.073511 0.917410 0.720952
O15   O     O_R   0.943100 0.406010 0.064050 -0.527811
O16   O     O_R   0.056900 0.906010 0.935950 -0.527807
O17   O     O_R   0.938020 0.234710 0.939330 -0.525603
O18   O     O_R   0.061980 0.734710 0.060670 -0.525597
C63   C     C_R   0.924438 0.575392 0.078358 0.713509
C64   C     C_R   0.075558 0.075375 0.921637 0.713510
O19   O     O_3   0.998500 0.567790 0.959120 -0.377360
O20   O     O_3   0.001500 0.067790 0.040880 -0.377339
V3    V     V_3+5 0.000280 0.293330 0.007580 1.535562
V4    V     V_3+5 0.999720 0.793330 0.992420 1.535642
I1    I     I_    0.804548 0.272794 0.979668 -0.279310
I2    I     I_    0.195379 0.774025 0.020516 -0.279334
I3    I     I_    0.242268 0.469832 0.875425 -0.250003
I4    I     I_    0.757530 0.969417 0.124504 -0.249575
O21   O     O_3   0.280517 0.998576 0.871476 -0.563739
H13   H     H_    0.302636 0.113832 0.873408 0.366586
O22   O     O_3   0.719509 0.498491 0.128524 -0.563813
H14   H     H_    0.697080 0.613186 0.126711 0.366647
I5    I     I_    0.388712 0.877730 0.791213 -0.132847
I6    I     I_    0.611323 0.377555 0.208804 -0.133324
I7    I     I_    0.092944 0.199999 0.702607 -0.227302
I8    I     I_    0.907033 0.700525 0.297352 -0.227498
I9    I     I_    0.203619 0.303558 0.600435 -0.125155
I10   I     I_    0.796394 0.803588 0.399624 -0.125052
I11   I     I_    0.312516 0.528524 0.688471 -0.302331
I12   I     I_    0.687499 0.028505 0.311592 -0.302073
I13   I     I_    0.222342 0.874203 0.608766 -0.198808
I14   I     I_    0.777741 0.374242 0.391183 -0.198680
O23   O     O_3   0.892477 0.927457 0.683685 -0.614928
H15   H     H_    0.888602 0.864770 0.642000 0.340382
O24   O     O_3   0.107724 0.424853 0.316079 -0.615019
H16   H     H_    0.111678 0.361800 0.357687 0.340273
I15   I     I_    0.826032 0.108768 0.559084 -0.138365
I16   I     I_    0.173852 0.606125 0.440900 -0.138187
I17   I     I_    0.689025 0.885782 0.539786 -0.257399
I18   I     I_    0.311112 0.384492 0.460016 -0.257626
O25   O     O_3   0.570248 0.297797 0.708595 -0.602904
H17   H     H_    0.537455 0.241199 0.682358 0.292131
O26   O     O_3   0.429614 0.798413 0.291647 -0.602655
H18   H     H_    0.462390 0.739786 0.317325 0.291989
I19   I     I_    0.588780 0.410708 0.841049 -0.126188
I20   I     I_    0.410356 0.917688 0.159920 -0.127408
I21   I     I_    0.376869 0.346218 0.808413 -0.135336
I22   I     I_    0.623039 0.846115 0.191729 -0.135698

loop_
_geom_bond_atom_site_label_1
_geom_bond_atom_site_label_2
_ccdc_geom_bond_type
C42   H8    S    
C18   C20   A    
C39   H5    S    
C20   I16   S    
C48   I22   S    
O1    C3    A    
O2    C4    A    
C31   I17   S    
C2    O7    A    
C38   H12   S    
C27   C29   A    
O5    C3    A    
C17   O23   S    
C32   I18   S    
C27   I19   S    
C39   O21   S    
C11   C17   A    
C38   I4    S    
C47   I21   S    
C12   C14   A    
C54   I8    S    
C58   C60   T    
C38   C48   S    
C46   C54   S    
C52   I10   S    
O16   C64   A    
C45   C53   S    
C51   I9    S    
C6    I2    S    
C61   O18   A    
C49   C51   S    
C5    I1    S    
C47   I11   S    
C21   C23   A    
O13   C61   A    
C41   I5    S    
O22   H14   S    
C19   C21   A    
C25   C35   A    
C37   C45   S    
O17   V3    S    
C26   C36   A    
C10   H2    S    
C33   C35   A    
C28   I20   S    
O6    V2    S    
C54   H10   S    
C53   H9    S    
C39   C45   S    
C32   C34   A    
C53   I7    S    
O13   V3    S    
C57   C59   T    
C46   C58   S    
C34   C36   A    
C45   C57   S    
C51   I13   S    
C5    C15   A    
C6    C16   A    
C52   C54   S    
C51   C53   S    
C42   C50   S    
O5    V1    S    
C40   H6    S    
C1    C44   S    
C47   C49   S    
C20   C22   A    
C2    C43   S    
O4    V2    S    
C40   O22   S    
O12   V3    S    
C15   C29   A    
C18   O24   S    
O18   V4    S    
O6    C4    A    
C44   C56   T    
C22   C32   A    
O1    V2    S    
C60   C63   S    
C41   H7    S    
O2    V1    S    
C31   C33   A    
O24   H16   S    
O14   V4    S    
O12   C64   A    
C48   I12   S    
C38   C46   S    
C9    H1    S    
C14   C24   A    
O14   C62   A    
C9    C11   A    
C50   C56   S    
C10   C12   A    
C36   O26   S    
O4    C2    A    
O25   H17   S    
O19   V4    S    
O3    V1    S    
O16   V4    S    
C62   O17   A    
O26   H18   S    
C8    C61   S    
C23   C25   A    
C42   I6    S    
C8    C10   A    
C28   C30   A    
O3    C1    A    
O23   H15   S    
C35   O25   S    
C4    C33   S    
C13   C15   A    
O21   H13   S    
C14   C16   A    
C37   H11   S    
C41   C49   S    
C39   C41   S    
O7    V1    S    
C19   I15   S    
C1    O8    A    
C25   C27   A    
C7    C62   S    
O8    V2    S    
C24   C26   A    
C26   C28   A    
O11   C63   A    
C43   C55   T    
C37   I3    S    
C40   C46   S    
C16   C30   A    
C5    C7    A    
C22   C24   A    
C40   C42   S    
C49   C55   S    
C6    C8    A    
C11   C13   A    
C37   C47   S    
C12   C18   A    
C13   C23   A    
O15   C63   A    
C59   C64   S    
C17   C19   A    
O20   V3    S    
O9    V2    S    
C52   I14   S    
O11   V4    S    
C48   C50   S    
O10   V1    S    
C3    C34   S    
C50   C52   S    
O15   V3    S    
C21   C31   A    
C29   H3    S    
C30   H4    S    
C7    C9    A    
