data_mof_unit_14273.cif
_audit_creation_date              2012-12-10T17:16:40-0500
_audit_creation_method            fapswitch 2.2
_symmetry_space_group_name_H-M    P1
_symmetry_Int_Tables_number       1
_space_group_crystal_system       triclinic
_cell_length_a                    10.07409
_cell_length_b                    10.483629
_cell_length_c                    10.641431
_cell_angle_alpha                 89.148177
_cell_angle_beta                  93.178122
_cell_angle_gamma                 83.027647
_cell_volume                      1113.58225291

loop_
_atom_site_label
_atom_site_type_symbol
_atom_type_description
_atom_site_fract_x
_atom_site_fract_y
_atom_site_fract_z
_atom_type_partial_charge
C1    C     C_R   0.446403 0.502521 0.266165 0.892837
C2    C     C_R   0.509076 0.735403 0.528428 0.942890
C3    C     C_R   0.767660 0.103449 0.579685 0.584664
C4    C     C_R   0.337627 0.872017 0.719484 0.560048
C5    C     C_R   0.881277 0.032457 0.534480 -0.085788
C6    C     C_R   0.229682 0.941927 0.774823 -0.093038
C7    C     C_R   0.885440 0.898911 0.530412 -0.050771
C8    C     C_R   0.205934 0.074802 0.753980 -0.034359
C9    C     C_R   0.774843 0.842263 0.566198 0.620615
C10   C     C_R   0.290136 0.137358 0.680263 0.575440
C11   C     C_R   0.648561 0.916446 0.574173 -0.173183
C12   C     C_R   0.553901 0.488258 0.734304 0.923827
C13   C     C_R   0.407181 0.069310 0.630978 -0.158985
C14   C     C_R   0.643673 0.050830 0.578553 -0.130484
C15   C     C_R   0.422272 0.933436 0.642781 -0.130336
C16   C     C_R   0.527948 0.861696 0.583308 -0.065584
C17   C     C_R   0.515579 0.127093 0.579209 -0.116087
C18   C     C_2   0.423084 0.484451 0.131926 -0.078103
C19   C     C_2   0.580242 0.471800 0.869970 -0.073466
C20   C     C_2   0.511873 0.402384 0.072579 0.176722
C21   C     C_2   0.504664 0.400180 0.936701 0.068758
C22   C     C_2   0.076870 0.482693 0.490941 0.527419
C23   C     C_2   0.936532 0.476407 0.528578 0.627366
C24   C     C_R   0.503991 0.260720 0.526835 0.907848
F1    F     F_    0.782513 0.217159 0.635329 -0.656782
F2    F     F_    0.369210 0.746514 0.752855 -0.681282
F3    F     F_    0.796886 0.720048 0.610805 -0.622497
F4    F     F_    0.254979 0.265066 0.666094 -0.656264
F5    F     F_    0.909144 0.497128 0.650533 -0.599789
F6    F     F_    0.121979 0.411522 0.392891 -0.665720
H1    H     H_    0.869872 0.433580 0.357816 0.135887
H2    H     H_    0.179115 0.782837 0.869085 0.257570
H3    H     H_    0.329927 0.381098 0.840988 0.285024
H4    H     H_    0.462053 0.267122 0.811104 0.187462
H5    H     H_    0.596903 0.220737 0.113983 0.185997
H6    H     H_    0.705894 0.330891 0.112110 0.204443
H7    H     H_    0.772693 0.506685 0.894167 0.252862
H8    H     H_    0.658080 0.635924 0.910678 0.218872
H9    H     H_    0.224419 0.539178 0.102156 0.219080
H10   H     H_    0.321843 0.656277 0.077374 0.189239
H11   H     H_    0.121425 0.599530 0.628367 0.184349
H12   H     H_    0.108180 0.136343 0.907056 0.215003
H13   H     H_    0.007347 0.115505 0.778284 0.225300
H14   H     H_    0.028421 0.846183 0.408911 0.206193
H15   H     H_    0.082170 0.834531 0.562788 0.191031
H16   H     H_    0.078304 0.056161 0.539739 0.189520
H17   H     H_    0.976275 0.192927 0.509095 0.259258
H18   H     H_    0.050585 0.882554 0.804282 0.192987
N1    N     N_2   0.157300 0.551390 0.551120 -0.185951
N2    N     N_3   0.312849 0.559156 0.063245 -0.438135
N3    N     N_2   0.842700 0.448610 0.448880 -0.203160
N4    N     N_3   0.096390 0.149724 0.809334 -0.346372
N5    N     N_3   0.003750 0.818867 0.498728 -0.433782
N6    N     N_3   0.990085 0.094766 0.490768 -0.414308
N7    N     N_3   0.143742 0.879903 0.853351 -0.439024
N8    N     N_3   0.412899 0.321402 0.879897 -0.429593
N9    N     N_3   0.611794 0.313818 0.140436 -0.433515
N10   N     N_3   0.681170 0.537822 0.932193 -0.453610
O1    O     O_R   0.568940 0.489660 0.307530 -0.609070
O2    O     O_R   0.431060 0.510340 0.692470 -0.575068
O3    O     O_R   0.348880 0.522640 0.340350 -0.562438
O4    O     O_R   0.651120 0.477360 0.659650 -0.493415
O5    O     O_R   0.610030 0.300280 0.483580 -0.575346
O6    O     O_R   0.389970 0.699720 0.516420 -0.605549
O7    O     O_R   0.389970 0.333270 0.516400 -0.504772
O8    O     O_R   0.610030 0.666730 0.483600 -0.576339
Zn1   Zn    Zn3+2 0.646940 0.477980 0.478080 1.073543
Zn2   Zn    Zn3+2 0.353060 0.522020 0.521920 1.069910

loop_
_geom_bond_atom_site_label_1
_geom_bond_atom_site_label_2
_ccdc_geom_bond_type
C21   N8    S    
C4    F2    S    
C5    C7    A    
H4    N8    S    
C1    O3    A    
N1    Zn2   S    
H18   N7    S    
C12   O4    A    
C11   C16   A    
C8    N4    S    
H2    N7    S    
C23   N3    D    
H7    N10   S    
C14   C17   A    
C9    F3    S    
C13   C17   A    
C6    N7    S    
H5    N9    S    
O7    Zn2   S    
H16   N6    S    
H3    N8    S    
C1    O1    A    
O8    Zn1   S    
C3    C5    A    
H15   N5    S    
N3    Zn1   S    
C9    C11   A    
O3    Zn2   S    
O2    Zn2   S    
C1    C18   S    
C3    C14   A    
C24   O7    A    
C4    C15   A    
H17   N6    S    
H10   N2    S    
C23   F5    S    
C12   C19   S    
C4    C6    A    
C19   C21   D    
C2    O6    A    
C24   O5    A    
C18   C20   D    
C13   C15   A    
C19   N10   S    
C11   C14   A    
O5    Zn1   S    
H13   N4    S    
C17   C24   S    
O4    Zn1   S    
C7    N5    S    
C10   F4    S    
C15   C16   A    
C12   O2    A    
O6    Zn2   S    
C5    N6    S    
C3    F1    S    
H9    N2    S    
C2    C16   S    
C20   C21   S    
C18   N2    S    
C8    C10   A    
H6    N9    S    
C22   N1    D    
C7    C9    A    
C22   C23   S    
C6    C8    A    
C22   F6    S    
O1    Zn1   S    
C20   N9    S    
H8    N10   S    
H14   N5    S    
H11   N1    S    
H1    N3    S    
C2    O8    A    
C10   C13   A    
H12   N4    S    
