data_mof_unit_5327.cif
_audit_creation_date              2012-12-10T17:27:54-0500
_audit_creation_method            fapswitch 2.2
_symmetry_space_group_name_H-M    P1
_symmetry_Int_Tables_number       1
_space_group_crystal_system       orthorhombic
_cell_length_a                    21.708472
_cell_length_b                    21.694865
_cell_length_c                    38.681552
_cell_angle_alpha                 90.0
_cell_angle_beta                  90.0
_cell_angle_gamma                 90.0
_cell_volume                      18217.5553818

loop_
_atom_site_label
_atom_site_type_symbol
_atom_type_description
_atom_site_fract_x
_atom_site_fract_y
_atom_site_fract_z
_atom_type_partial_charge
C1    C     C_R   0.500000 0.119809 0.500000 0.882139
C2    C     C_R   0.879890 0.500000 0.500000 0.882655
C3    C     C_R   0.500000 0.880190 0.500000 0.882139
C4    C     C_R   0.120110 0.500000 0.500000 0.882654
C5    C     C_R   0.000000 0.619809 0.000000 0.882139
C6    C     C_R   0.379890 0.000000 0.000000 0.882656
C7    C     C_R   0.000000 0.380191 0.000000 0.882139
C8    C     C_R   0.620110 0.000000 0.000000 0.882655
C9    C     C_R   0.382278 0.280282 0.431364 -0.190321
C10   C     C_R   0.717342 0.361872 0.444896 -0.187549
C11   C     C_R   0.617722 0.719718 0.431364 -0.190320
C12   C     C_R   0.282658 0.638128 0.444895 -0.187549
C13   C     C_R   0.382278 0.719718 0.568636 -0.190320
C14   C     C_R   0.717342 0.638127 0.555105 -0.187550
C15   C     C_R   0.617723 0.280282 0.568635 -0.190320
C16   C     C_R   0.282658 0.361872 0.555105 -0.187549
C17   C     C_R   0.882283 0.780281 0.931362 -0.190321
C18   C     C_R   0.217342 0.861872 0.944896 -0.187549
C19   C     C_R   0.117717 0.219719 0.931362 -0.190322
C20   C     C_R   0.782658 0.138128 0.944896 -0.187549
C21   C     C_R   0.882282 0.219718 0.068638 -0.190322
C22   C     C_R   0.217342 0.138128 0.055104 -0.187549
C23   C     C_R   0.117718 0.780281 0.068638 -0.190321
C24   C     C_R   0.782658 0.861872 0.055104 -0.187550
C25   C     C_R   0.415148 0.312071 0.456660 -0.165722
C26   C     C_R   0.685970 0.403749 0.465668 -0.165633
C27   C     C_R   0.584852 0.687929 0.456660 -0.165722
C28   C     C_R   0.314030 0.596251 0.465668 -0.165633
C29   C     C_R   0.415148 0.687929 0.543340 -0.165723
C30   C     C_R   0.685970 0.596251 0.534331 -0.165632
C31   C     C_R   0.584853 0.312071 0.543339 -0.165723
C32   C     C_R   0.314030 0.403750 0.534331 -0.165632
C33   C     C_R   0.915150 0.812071 0.956659 -0.165721
C34   C     C_R   0.185970 0.903749 0.965669 -0.165633
C35   C     C_R   0.084850 0.187929 0.956659 -0.165721
C36   C     C_R   0.814030 0.096251 0.965669 -0.165633
C37   C     C_R   0.915150 0.187929 0.043341 -0.165721
C38   C     C_R   0.185970 0.096251 0.034331 -0.165633
C39   C     C_R   0.084850 0.812071 0.043341 -0.165721
C40   C     C_R   0.814030 0.903749 0.034331 -0.165633
C41   C     C_R   0.459793 0.281741 0.477332 0.075357
C42   C     C_R   0.717152 0.453597 0.481573 0.072439
C43   C     C_R   0.540207 0.718259 0.477332 0.075357
C44   C     C_R   0.282848 0.546403 0.481573 0.072439
C45   C     C_R   0.459793 0.718259 0.522668 0.075357
C46   C     C_R   0.717152 0.546403 0.518427 0.072439
C47   C     C_R   0.540207 0.281741 0.522667 0.075357
C48   C     C_R   0.282848 0.453597 0.518427 0.072439
C49   C     C_R   0.959794 0.781741 0.977332 0.075358
C50   C     C_R   0.217152 0.953597 0.981573 0.072439
C51   C     C_R   0.040206 0.218259 0.977332 0.075358
C52   C     C_R   0.782848 0.046403 0.981573 0.072439
C53   C     C_R   0.959794 0.218259 0.022668 0.075358
C54   C     C_R   0.217152 0.046403 0.018427 0.072439
C55   C     C_R   0.040206 0.781741 0.022668 0.075357
C56   C     C_R   0.782848 0.953597 0.018427 0.072439
C57   C     C_R   0.464503 0.217530 0.475082 0.059680
C58   C     C_R   0.781315 0.457320 0.478737 0.062508
C59   C     C_R   0.535497 0.782470 0.475082 0.059679
C60   C     C_R   0.218685 0.542680 0.478737 0.062508
C61   C     C_R   0.464503 0.782470 0.524918 0.059679
C62   C     C_R   0.781315 0.542680 0.521262 0.062508
C63   C     C_R   0.535497 0.217530 0.524918 0.059679
C64   C     C_R   0.218685 0.457321 0.521262 0.062508
C65   C     C_R   0.964505 0.717530 0.975081 0.059679
C66   C     C_R   0.281315 0.957320 0.978737 0.062508
C67   C     C_R   0.035496 0.282470 0.975081 0.059679
C68   C     C_R   0.718685 0.042680 0.978737 0.062508
C69   C     C_R   0.964504 0.282470 0.024918 0.059678
C70   C     C_R   0.281315 0.042680 0.021262 0.062508
C71   C     C_R   0.035496 0.717530 0.024918 0.059679
C72   C     C_R   0.718685 0.957320 0.021262 0.062508
C73   C     C_R   0.500000 0.313636 0.500000 -0.204504
C74   C     C_R   0.685671 0.500000 0.500000 -0.193654
C75   C     C_R   0.500000 0.686364 0.500000 -0.204504
C76   C     C_R   0.314329 0.500000 0.500000 -0.193655
C77   C     C_R   1.000000 0.813636 1.000000 -0.204507
C78   C     C_R   0.185671 0.000000 0.000000 -0.193654
C79   C     C_R   1.000000 0.186364 1.000000 -0.204506
C80   C     C_R   0.814329 0.000000 0.000000 -0.193655
C81   C     C_R   0.500000 0.185932 0.500000 -0.186969
C82   C     C_R   0.813340 0.500000 0.500000 -0.195645
C83   C     C_R   0.500000 0.814068 0.500000 -0.186969
C84   C     C_R   0.186660 0.500000 0.500000 -0.195645
C85   C     C_R   0.000000 0.685932 0.000000 -0.186966
C86   C     C_R   0.313340 0.000000 0.000000 -0.195645
C87   C     C_R   1.000000 0.314068 0.000000 -0.186967
C88   C     C_R   0.686660 0.000000 0.000000 -0.195645
C89   C     C_R   0.619741 0.500000 0.500000 0.856161
C90   C     C_R   0.500000 0.620013 0.500000 0.849462
C91   C     C_R   0.380259 0.500000 0.500000 0.856160
C92   C     C_R   0.500000 0.379987 0.500000 0.849461
C93   C     C_R   0.119741 0.000000 0.000000 0.856163
C94   C     C_R   1.000000 0.120013 0.000000 0.849462
C95   C     C_R   0.880259 0.000000 0.000000 0.856162
C96   C     C_R   1.000000 0.879987 0.000000 0.849461
C97   C     C_R   0.500000 0.000000 0.432725 0.867332
C98   C     C_R   0.000000 0.500000 0.432864 0.871883
C99   C     C_R   0.500000 0.000000 0.567276 0.867330
C100  C     C_R   1.000000 0.500000 0.567136 0.871881
C101  C     C_R   0.000000 0.500000 0.932724 0.867329
C102  C     C_R   0.500000 0.000000 0.932864 0.871884
C103  C     C_R   0.000000 0.500000 0.067275 0.867328
C104  C     C_R   0.500000 0.000000 0.067136 0.871883
C105  C     C_R   0.445181 0.989754 0.376712 -0.161174
C106  C     C_R   0.964326 0.457083 0.377315 -0.166213
C107  C     C_R   0.554819 0.010246 0.376712 -0.161174
C108  C     C_R   0.035674 0.542917 0.377315 -0.166213
C109  C     C_R   0.445181 0.010245 0.623288 -0.161174
C110  C     C_R   0.964324 0.542915 0.622684 -0.166212
C111  C     C_R   0.554819 0.989755 0.623288 -0.161174
C112  C     C_R   0.035676 0.457085 0.622685 -0.166213
C113  C     C_R   0.945182 0.489751 0.876712 -0.161174
C114  C     C_R   0.464328 0.957081 0.877315 -0.166213
C115  C     C_R   0.054818 0.510249 0.876712 -0.161175
C116  C     C_R   0.535672 0.042919 0.877315 -0.166213
C117  C     C_R   0.945182 0.510249 0.123288 -0.161175
C118  C     C_R   0.464328 0.042919 0.122685 -0.166213
C119  C     C_R   0.054818 0.489751 0.123288 -0.161175
C120  C     C_R   0.535672 0.957081 0.122685 -0.166213
C121  C     C_R   0.444326 0.989693 0.340562 0.031498
C122  C     C_R   0.962650 0.457351 0.341158 0.026467
C123  C     C_R   0.555674 0.010307 0.340562 0.031498
C124  C     C_R   0.037350 0.542648 0.341158 0.026468
C125  C     C_R   0.444326 0.010307 0.659438 0.031499
C126  C     C_R   0.962648 0.542647 0.658842 0.026468
C127  C     C_R   0.555674 0.989694 0.659438 0.031497
C128  C     C_R   0.037352 0.457353 0.658842 0.026467
C129  C     C_R   0.944326 0.489689 0.840562 0.031500
C130  C     C_R   0.462652 0.957350 0.841158 0.026466
C131  C     C_R   0.055674 0.510311 0.840562 0.031500
C132  C     C_R   0.537348 0.042650 0.841158 0.026466
C133  C     C_R   0.944326 0.510310 0.159438 0.031500
C134  C     C_R   0.462652 0.042651 0.158842 0.026465
C135  C     C_R   0.055674 0.489690 0.159438 0.031500
C136  C     C_R   0.537348 0.957349 0.158842 0.026465
C137  C     C_R   0.500000 0.000000 0.322348 -0.092086
C138  C     C_R   1.000000 0.500000 0.322943 -0.095720
C139  C     C_R   0.500000 0.000000 0.677652 -0.092087
C140  C     C_R   0.000000 0.500000 0.677057 -0.095719
C141  C     C_R   1.000000 0.500000 0.822348 -0.092084
C142  C     C_R   0.500000 0.000000 0.822943 -0.095718
C143  C     C_R   1.000000 0.500000 0.177651 -0.092085
C144  C     C_R   0.500000 0.000000 0.177057 -0.095717
C145  C     C_R   0.500000 0.000000 0.394826 -0.139419
C146  C     C_R   1.000000 0.500000 0.395234 -0.124404
C147  C     C_R   0.500000 0.000000 0.605174 -0.139419
C148  C     C_R   1.000000 0.500000 0.604765 -0.124402
C149  C     C_R   1.000000 0.500000 0.894826 -0.139416
C150  C     C_R   0.500000 0.000000 0.895235 -0.124405
C151  C     C_R   0.000000 0.500000 0.105173 -0.139416
C152  C     C_R   0.500000 1.000000 0.104765 -0.124404
C153  C     C_R   0.500000 0.000000 0.214857 0.213476
C154  C     C_R   1.000000 0.500000 0.215464 0.214493
C155  C     C_R   0.500000 0.000000 0.785143 0.213475
C156  C     C_R   1.000000 0.500000 0.784536 0.214492
C157  C     C_R   1.000000 0.500000 0.714857 0.213476
C158  C     C_R   0.500000 0.000000 0.715464 0.214493
C159  C     C_R   1.000000 0.500000 0.285143 0.213476
C160  C     C_R   0.500000 0.000000 0.284536 0.214492
C161  C     C_R   0.433356 0.186377 0.448021 -0.193829
C162  C     C_R   0.811509 0.417962 0.454794 -0.187614
C163  C     C_R   0.566644 0.813623 0.448020 -0.193830
C164  C     C_R   0.188491 0.582038 0.454794 -0.187614
C165  C     C_R   0.433356 0.813623 0.551979 -0.193830
C166  C     C_R   0.811509 0.582038 0.545206 -0.187613
C167  C     C_R   0.566645 0.186377 0.551979 -0.193830
C168  C     C_R   0.188491 0.417962 0.545206 -0.187613
C169  C     C_R   0.933359 0.686377 0.948019 -0.193829
C170  C     C_R   0.311509 0.917961 0.954794 -0.187615
C171  C     C_R   0.066641 0.313623 0.948019 -0.193829
C172  C     C_R   0.688491 0.082039 0.954794 -0.187616
C173  C     C_R   0.933359 0.313623 0.051981 -0.193829
C174  C     C_R   0.311509 0.082039 0.045206 -0.187616
C175  C     C_R   0.066641 0.686377 0.051981 -0.193830
C176  C     C_R   0.688491 0.917961 0.045206 -0.187616
C177  C     C_R   0.392461 0.217392 0.426091 0.068474
C178  C     C_R   0.780260 0.369388 0.438437 0.065351
C179  C     C_R   0.607538 0.782608 0.426091 0.068474
C180  C     C_R   0.219740 0.630612 0.438436 0.065351
C181  C     C_R   0.392461 0.782608 0.573909 0.068474
C182  C     C_R   0.780260 0.630612 0.561563 0.065351
C183  C     C_R   0.607540 0.217392 0.573908 0.068475
C184  C     C_R   0.219740 0.369388 0.561564 0.065351
C185  C     C_R   0.892467 0.717391 0.926089 0.068474
C186  C     C_R   0.280260 0.869387 0.938437 0.065350
C187  C     C_R   0.107534 0.282609 0.926089 0.068474
C188  C     C_R   0.719740 0.130613 0.938437 0.065351
C189  C     C_R   0.892466 0.282608 0.073911 0.068475
C190  C     C_R   0.280260 0.130613 0.061563 0.065351
C191  C     C_R   0.107534 0.717391 0.073911 0.068475
C192  C     C_R   0.719740 0.869387 0.061563 0.065351
H1    H     H_    0.402754 0.982182 0.390844 0.191613
H2    H     H_    0.936246 0.424715 0.391730 0.181625
H3    H     H_    0.597246 0.017818 0.390844 0.191613
H4    H     H_    0.063754 0.575285 0.391730 0.181625
H5    H     H_    0.402754 0.017816 0.609156 0.191614
H6    H     H_    0.936243 0.575283 0.608270 0.181624
H7    H     H_    0.597247 0.982184 0.609156 0.191614
H8    H     H_    0.063757 0.424717 0.608270 0.181624
H9    H     H_    0.902755 0.482176 0.890844 0.191613
H10   H     H_    0.436249 0.924712 0.891730 0.181627
H11   H     H_    0.097245 0.517824 0.890844 0.191613
H12   H     H_    0.563751 0.075288 0.891730 0.181627
H13   H     H_    0.902755 0.517822 0.109156 0.191613
H14   H     H_    0.436250 0.075289 0.108270 0.181627
H15   H     H_    0.097245 0.482178 0.109156 0.191613
H16   H     H_    0.563750 0.924711 0.108270 0.181627
H17   H     H_    0.441603 0.138016 0.443127 0.146221
H18   H     H_    0.859181 0.425188 0.447969 0.146942
H19   H     H_    0.558396 0.861985 0.443127 0.146221
H20   H     H_    0.140819 0.574812 0.447969 0.146942
H21   H     H_    0.441603 0.861984 0.556873 0.146221
H22   H     H_    0.859181 0.574812 0.552031 0.146941
H23   H     H_    0.558397 0.138016 0.556872 0.146221
H24   H     H_    0.140819 0.425189 0.552031 0.146941
H25   H     H_    0.941607 0.638015 0.943126 0.146219
H26   H     H_    0.359181 0.925188 0.947969 0.146943
H27   H     H_    0.058393 0.361985 0.943126 0.146219
H28   H     H_    0.640819 0.074812 0.947969 0.146943
H29   H     H_    0.941607 0.361985 0.056874 0.146219
H30   H     H_    0.359181 0.074812 0.052031 0.146943
H31   H     H_    0.058393 0.638015 0.056874 0.146219
H32   H     H_    0.640819 0.925188 0.052031 0.146943
H33   H     H_    0.348933 0.305022 0.415829 0.141292
H34   H     H_    0.692082 0.323668 0.433782 0.139535
H35   H     H_    0.651067 0.694978 0.415829 0.141292
H36   H     H_    0.307918 0.676332 0.433782 0.139535
H37   H     H_    0.348933 0.694978 0.584171 0.141292
H38   H     H_    0.692082 0.676331 0.566218 0.139535
H39   H     H_    0.651068 0.305022 0.584170 0.141292
H40   H     H_    0.307918 0.323669 0.566218 0.139535
H41   H     H_    0.848939 0.805022 0.915826 0.141292
H42   H     H_    0.192082 0.823668 0.933783 0.139536
H43   H     H_    0.151061 0.194978 0.915826 0.141292
H44   H     H_    0.807918 0.176332 0.933783 0.139536
H45   H     H_    0.848938 0.194978 0.084174 0.141292
H46   H     H_    0.192082 0.176332 0.066217 0.139536
H47   H     H_    0.151062 0.805022 0.084174 0.141292
H48   H     H_    0.807918 0.823668 0.066217 0.139536
H49   H     H_    0.404419 0.360354 0.459879 0.160764
H50   H     H_    0.637245 0.395905 0.469466 0.151397
H51   H     H_    0.595581 0.639646 0.459879 0.160764
H52   H     H_    0.362756 0.604095 0.469466 0.151397
H53   H     H_    0.404419 0.639646 0.540121 0.160764
H54   H     H_    0.637244 0.604095 0.530533 0.151396
H55   H     H_    0.595581 0.360354 0.540121 0.160764
H56   H     H_    0.362755 0.395905 0.530533 0.151396
H57   H     H_    0.904421 0.860354 0.959877 0.160766
H58   H     H_    0.137244 0.895905 0.969467 0.151397
H59   H     H_    0.095579 0.139646 0.959877 0.160766
H60   H     H_    0.862756 0.104095 0.969467 0.151397
H61   H     H_    0.904421 0.139646 0.040122 0.160766
H62   H     H_    0.137244 0.104095 0.030533 0.151397
H63   H     H_    0.095579 0.860354 0.040122 0.160766
H64   H     H_    0.862756 0.895905 0.030533 0.151397
N1    N     N_R   0.481773 0.949213 0.266869 -0.169969
N2    N     N_R   0.981612 0.550730 0.267482 -0.172092
N3    N     N_R   0.518227 0.050787 0.266869 -0.169970
N4    N     N_R   0.018388 0.449269 0.267482 -0.172092
N5    N     N_R   0.481773 0.050787 0.733131 -0.169970
N6    N     N_R   0.981613 0.449269 0.732518 -0.172092
N7    N     N_R   0.518228 0.949214 0.733131 -0.169970
N8    N     N_R   0.018386 0.550731 0.732518 -0.172092
N9    N     N_R   0.981777 0.449212 0.766869 -0.169970
N10   N     N_R   0.481609 0.050729 0.767482 -0.172091
N11   N     N_R   0.018223 0.550788 0.766869 -0.169970
N12   N     N_R   0.518391 0.949271 0.767482 -0.172091
N13   N     N_R   0.981776 0.550788 0.233131 -0.169970
N14   N     N_R   0.481610 0.949271 0.232517 -0.172091
N15   N     N_R   0.018224 0.449212 0.233131 -0.169970
N16   N     N_R   0.518390 0.050730 0.232517 -0.172091
O1    O     O_R   0.551620 0.091530 0.500110 -0.621332
O2    O     O_R   0.908470 0.551620 0.500110 -0.626063
O3    O     O_R   0.448380 0.908470 0.500110 -0.621331
O4    O     O_R   0.091530 0.448380 0.500110 -0.626063
O5    O     O_R   0.551620 0.908470 0.499890 -0.621332
O6    O     O_R   0.908470 0.448380 0.499890 -0.626063
O7    O     O_R   0.448380 0.091530 0.499890 -0.621332
O8    O     O_R   0.091530 0.551620 0.499890 -0.626063
O9    O     O_R   0.051620 0.591530 0.000110 -0.621332
O10   O     O_R   0.408470 0.051620 0.000110 -0.626063
O11   O     O_R   0.948380 0.408470 0.000110 -0.621331
O12   O     O_R   0.591530 0.948380 0.000110 -0.626063
O13   O     O_R   0.051620 0.408470 0.999890 -0.621331
O14   O     O_R   0.408470 0.948380 0.999890 -0.626063
O15   O     O_R   0.948380 0.591530 0.999890 -0.621331
O16   O     O_R   0.591530 0.051620 0.999890 -0.626063
O17   O     O_R   0.551620 0.999930 0.449180 -0.629868
O18   O     O_R   0.000070 0.551620 0.449180 -0.624495
O19   O     O_R   0.448380 0.000070 0.449180 -0.629868
O20   O     O_R   0.999930 0.448380 0.449180 -0.624495
O21   O     O_R   0.551620 0.000070 0.550820 -0.629868
O22   O     O_R   0.000070 0.448380 0.550820 -0.624495
O23   O     O_R   0.448380 0.999930 0.550820 -0.629867
O24   O     O_R   0.999930 0.551620 0.550820 -0.624495
O25   O     O_R   0.051620 0.499930 0.949180 -0.629868
O26   O     O_R   0.500070 0.051620 0.949180 -0.624495
O27   O     O_R   0.948380 0.500070 0.949180 -0.629868
O28   O     O_R   0.499930 0.948380 0.949180 -0.624495
O29   O     O_R   0.051620 0.500070 0.050820 -0.629868
O30   O     O_R   0.500070 0.948380 0.050820 -0.624495
O31   O     O_R   0.948380 0.499930 0.050820 -0.629868
O32   O     O_R   0.499930 0.051620 0.050820 -0.624496
O33   O     O_R   0.591500 0.499930 0.528880 -0.623338
O34   O     O_R   0.500070 0.591500 0.528880 -0.624984
O35   O     O_R   0.408500 0.500070 0.528880 -0.623338
O36   O     O_R   0.499930 0.408500 0.528880 -0.624983
O37   O     O_R   0.591500 0.500070 0.471120 -0.623338
O38   O     O_R   0.500070 0.408500 0.471120 -0.624982
O39   O     O_R   0.408500 0.499930 0.471120 -0.623337
O40   O     O_R   0.499930 0.591500 0.471120 -0.624983
O41   O     O_R   0.091500 0.999930 0.028880 -0.623339
O42   O     O_R   0.000070 0.091500 0.028880 -0.624984
O43   O     O_R   0.908500 0.000070 0.028880 -0.623338
O44   O     O_R   0.999930 0.908500 0.028880 -0.624983
O45   O     O_R   0.091500 0.000070 0.971120 -0.623338
O46   O     O_R   0.000070 0.908500 0.971120 -0.624983
O47   O     O_R   0.908500 0.999930 0.971120 -0.623337
O48   O     O_R   0.999930 0.091500 0.971120 -0.624983
Zn1   Zn    Zn3+2 0.568970 0.000000 0.500000 0.937596
Zn2   Zn    Zn3+2 1.000000 0.568970 0.500000 0.929275
Zn3   Zn    Zn3+2 0.431030 0.000000 0.500000 0.937597
Zn4   Zn    Zn3+2 1.000000 0.431030 0.500000 0.929275
Zn5   Zn    Zn3+2 0.068970 0.500000 0.000000 0.937599
Zn6   Zn    Zn3+2 0.500000 0.068970 0.000000 0.929274
Zn7   Zn    Zn3+2 0.931030 0.500000 0.000000 0.937599
Zn8   Zn    Zn3+2 0.500000 0.931030 0.000000 0.929275
Zn9   Zn    Zn3+2 0.500000 0.500000 0.538510 0.947238
Zn10  Zn    Zn3+2 0.500000 0.500000 0.461490 0.947238
Zn11  Zn    Zn3+2 0.000000 0.000000 0.038510 0.947236
Zn12  Zn    Zn3+2 1.000000 1.000000 0.961490 0.947237
C193  C     C_2   0.384645 0.980639 0.322323 0.386959
H65   H     H_    0.380034 0.991477 0.295090 0.084170
O49   O     O_2   0.339529 0.960901 0.337592 -0.599777
C194  C     C_2   0.919961 0.414594 0.322944 0.392762
H66   H     H_    0.913507 0.417289 0.295207 0.083117
O50   O     O_2   0.890544 0.375969 0.338862 -0.581293
C195  C     C_2   0.615355 0.019361 0.322323 0.386958
H67   H     H_    0.619965 0.008523 0.295090 0.084170
O51   O     O_2   0.660471 0.039099 0.337592 -0.599777
C196  C     C_2   0.080039 0.585406 0.322944 0.392763
H68   H     H_    0.086492 0.582711 0.295207 0.083117
O52   O     O_2   0.109455 0.624031 0.338862 -0.581294
C197  C     C_2   0.384645 0.019360 0.677677 0.386958
H69   H     H_    0.380034 0.008522 0.704910 0.084170
O53   O     O_2   0.339529 0.039097 0.662408 -0.599777
C198  C     C_2   0.919958 0.585403 0.677056 0.392760
H70   H     H_    0.913505 0.582708 0.704793 0.083117
O54   O     O_2   0.890538 0.624025 0.661138 -0.581292
C199  C     C_2   0.615355 0.980641 0.677677 0.386961
H71   H     H_    0.619966 0.991479 0.704910 0.084170
O55   O     O_2   0.660471 0.960904 0.662408 -0.599778
C200  C     C_2   0.080042 0.414598 0.677056 0.392762
H72   H     H_    0.086495 0.417292 0.704793 0.083117
O56   O     O_2   0.109462 0.375975 0.661138 -0.581293
C201  C     C_2   0.884646 0.480632 0.822323 0.386953
H73   H     H_    0.880035 0.491469 0.795090 0.084171
O57   O     O_2   0.839532 0.460891 0.837592 -0.599776
C202  C     C_2   0.419966 0.914590 0.822944 0.392762
H74   H     H_    0.413512 0.917285 0.795207 0.083117
O58   O     O_2   0.390551 0.875963 0.838862 -0.581293
C203  C     C_2   0.115354 0.519368 0.822323 0.386953
H75   H     H_    0.119965 0.508532 0.795090 0.084171
O59   O     O_2   0.160468 0.539109 0.837592 -0.599776
C204  C     C_2   0.580034 0.085410 0.822944 0.392763
H76   H     H_    0.586488 0.082715 0.795207 0.083117
O60   O     O_2   0.609449 0.124037 0.838862 -0.581293
C205  C     C_2   0.884646 0.519367 0.177677 0.386953
H77   H     H_    0.880035 0.508529 0.204910 0.084171
O61   O     O_2   0.839531 0.539107 0.162408 -0.599775
C206  C     C_2   0.419966 0.085411 0.177056 0.392762
H78   H     H_    0.413511 0.082715 0.204793 0.083117
O62   O     O_2   0.390552 0.124038 0.161138 -0.581292
C207  C     C_2   0.115354 0.480633 0.177677 0.386954
H79   H     H_    0.119965 0.491470 0.204910 0.084171
O63   O     O_2   0.160469 0.460893 0.162408 -0.599776
C208  C     C_2   0.580034 0.914589 0.177056 0.392763
H80   H     H_    0.586489 0.917286 0.204793 0.083116
O64   O     O_2   0.609447 0.875961 0.161138 -0.581292
C209  C     C_R   0.640080 0.183709 0.601885 0.112348
C210  C     C_R   0.646622 0.210248 0.634878 -0.147732
C211  C     C_R   0.676459 0.178017 0.661333 -0.141312
C212  C     C_R   0.700326 0.119270 0.655107 -0.095315
C213  C     C_R   0.694399 0.092615 0.622413 -0.107093
C214  C     C_R   0.664274 0.124435 0.595942 -0.175344
H81   H     H_    0.627843 0.255455 0.640332 0.129146
H82   H     H_    0.680970 0.198573 0.686702 0.138105
H83   H     H_    0.723411 0.094398 0.675613 0.143052
H84   H     H_    0.713166 0.047230 0.617541 0.168319
H85   H     H_    0.660545 0.103022 0.570739 0.139327
C215  C     C_R   0.813672 0.674544 0.584423 0.113425
C216  C     C_R   0.785027 0.699067 0.614072 -0.109904
C217  C     C_R   0.815986 0.741552 0.634980 -0.059643
C218  C     C_R   0.875903 0.759774 0.626731 -0.055315
C219  C     C_R   0.905001 0.735563 0.597544 -0.109391
C220  C     C_R   0.874159 0.693341 0.576429 -0.158978
H86   H     H_    0.738959 0.684985 0.621309 0.120458
H87   H     H_    0.793604 0.760093 0.657718 0.130108
H88   H     H_    0.899839 0.792529 0.643007 0.120567
H89   H     H_    0.951411 0.749784 0.591147 0.126925
H90   H     H_    0.897307 0.676259 0.553563 0.131688
C221  C     C_R   0.359922 0.816290 0.601886 0.112348
C222  C     C_R   0.353381 0.789752 0.634879 -0.147732
C223  C     C_R   0.323545 0.821982 0.661334 -0.141310
C224  C     C_R   0.299678 0.880729 0.655109 -0.095317
C225  C     C_R   0.305603 0.907384 0.622415 -0.107095
C226  C     C_R   0.335727 0.875565 0.595943 -0.175344
H91   H     H_    0.372161 0.744544 0.640332 0.129146
H92   H     H_    0.319036 0.801426 0.686704 0.138105
H93   H     H_    0.276593 0.905600 0.675615 0.143050
H94   H     H_    0.286836 0.952768 0.617543 0.168321
H95   H     H_    0.339456 0.896977 0.570741 0.139326
C227  C     C_R   0.186328 0.325456 0.584423 0.113425
C228  C     C_R   0.214973 0.300933 0.614072 -0.109905
C229  C     C_R   0.184013 0.258448 0.634980 -0.059643
C230  C     C_R   0.124096 0.240227 0.626731 -0.055314
C231  C     C_R   0.094998 0.264438 0.597544 -0.109392
C232  C     C_R   0.125840 0.306660 0.576429 -0.158978
H96   H     H_    0.261040 0.315014 0.621309 0.120458
H97   H     H_    0.206395 0.239906 0.657718 0.130109
H98   H     H_    0.100159 0.207472 0.643007 0.120567
H99   H     H_    0.048587 0.250219 0.591147 0.126925
H100  H     H_    0.102692 0.323742 0.553563 0.131689
C233  C     C_R   0.640077 0.816290 0.398113 0.112348
C234  C     C_R   0.646618 0.789752 0.365121 -0.147731
C235  C     C_R   0.676453 0.821982 0.338665 -0.141310
C236  C     C_R   0.700320 0.880729 0.344890 -0.095319
C237  C     C_R   0.694396 0.907384 0.377584 -0.107095
C238  C     C_R   0.664272 0.875565 0.404056 -0.175343
H101  H     H_    0.627838 0.744545 0.359667 0.129146
H102  H     H_    0.680963 0.801426 0.313296 0.138105
H103  H     H_    0.723405 0.905601 0.324384 0.143050
H104  H     H_    0.713163 0.952769 0.382456 0.168321
H105  H     H_    0.660544 0.896977 0.429259 0.139326
C239  C     C_R   0.813672 0.325456 0.415577 0.113424
C240  C     C_R   0.785028 0.300932 0.385929 -0.109912
C241  C     C_R   0.815987 0.258446 0.365021 -0.059644
C242  C     C_R   0.875904 0.240225 0.373270 -0.055307
C243  C     C_R   0.905002 0.264437 0.402457 -0.109389
C244  C     C_R   0.874159 0.306659 0.423572 -0.158979
H106  H     H_    0.738960 0.315013 0.378692 0.120458
H107  H     H_    0.793605 0.239904 0.342283 0.130109
H108  H     H_    0.899841 0.207470 0.356994 0.120567
H109  H     H_    0.951412 0.250217 0.408854 0.126924
H110  H     H_    0.897307 0.323741 0.446438 0.131689
C245  C     C_R   0.359923 0.183710 0.398113 0.112348
C246  C     C_R   0.353382 0.210248 0.365121 -0.147731
C247  C     C_R   0.323546 0.178018 0.338665 -0.141309
C248  C     C_R   0.299679 0.119271 0.344890 -0.095318
C249  C     C_R   0.305604 0.092616 0.377585 -0.107095
C250  C     C_R   0.335728 0.124435 0.404056 -0.175344
H111  H     H_    0.372161 0.255456 0.359668 0.129146
H112  H     H_    0.319036 0.198574 0.313296 0.138105
H113  H     H_    0.276594 0.094400 0.324385 0.143050
H114  H     H_    0.286837 0.047231 0.382457 0.168321
H115  H     H_    0.339456 0.103022 0.429259 0.139327
C251  C     C_R   0.186328 0.674544 0.415577 0.113423
C252  C     C_R   0.214972 0.699068 0.385929 -0.109913
C253  C     C_R   0.184013 0.741554 0.365021 -0.059644
C254  C     C_R   0.124096 0.759775 0.373270 -0.055307
C255  C     C_R   0.094998 0.735563 0.402457 -0.109389
C256  C     C_R   0.125841 0.693341 0.423572 -0.158977
H116  H     H_    0.261040 0.684986 0.378692 0.120458
H117  H     H_    0.206395 0.760095 0.342283 0.130109
H118  H     H_    0.100160 0.792530 0.356994 0.120567
H119  H     H_    0.048588 0.749783 0.408854 0.126924
H120  H     H_    0.102693 0.676259 0.446438 0.131688
C257  C     C_R   0.140071 0.683709 0.101889 0.112348
C258  C     C_R   0.146609 0.710248 0.134882 -0.147731
C259  C     C_R   0.176443 0.678018 0.161338 -0.141303
C260  C     C_R   0.200310 0.619271 0.155114 -0.095326
C261  C     C_R   0.194388 0.592616 0.122419 -0.107102
C262  C     C_R   0.164266 0.624435 0.095947 -0.175339
H121  H     H_    0.127829 0.755455 0.140335 0.129146
H122  H     H_    0.180950 0.698573 0.186708 0.138104
H123  H     H_    0.223394 0.594399 0.175620 0.143047
H124  H     H_    0.213156 0.547231 0.117547 0.168324
H125  H     H_    0.160540 0.603022 0.070744 0.139327
C263  C     C_R   0.313672 0.174546 0.084422 0.113422
C264  C     C_R   0.285028 0.199070 0.114071 -0.109921
C265  C     C_R   0.315987 0.241556 0.134978 -0.059644
C266  C     C_R   0.375904 0.259778 0.126728 -0.055298
C267  C     C_R   0.405001 0.235566 0.097541 -0.109386
C268  C     C_R   0.374159 0.193342 0.076427 -0.158979
H126  H     H_    0.238960 0.184988 0.121308 0.120460
H127  H     H_    0.293605 0.260098 0.157715 0.130111
H128  H     H_    0.399840 0.292534 0.143003 0.120567
H129  H     H_    0.451412 0.249786 0.091144 0.126924
H130  H     H_    0.397307 0.176260 0.053561 0.131689
C269  C     C_R   0.859929 0.316290 0.101889 0.112348
C270  C     C_R   0.853390 0.289752 0.134882 -0.147731
C271  C     C_R   0.823556 0.321982 0.161338 -0.141305
C272  C     C_R   0.799689 0.380729 0.155114 -0.095324
C273  C     C_R   0.805611 0.407384 0.122419 -0.107102
C274  C     C_R   0.835733 0.375565 0.095947 -0.175339
H131  H     H_    0.872170 0.244545 0.140335 0.129146
H132  H     H_    0.819048 0.301426 0.186708 0.138105
H133  H     H_    0.776605 0.405601 0.175620 0.143047
H134  H     H_    0.786844 0.452769 0.117547 0.168324
H135  H     H_    0.839460 0.396978 0.070744 0.139327
C275  C     C_R   0.686328 0.825454 0.084422 0.113422
C276  C     C_R   0.714972 0.800930 0.114071 -0.109923
C277  C     C_R   0.684013 0.758444 0.134978 -0.059644
C278  C     C_R   0.624096 0.740222 0.126728 -0.055297
C279  C     C_R   0.594999 0.764434 0.097541 -0.109385
C280  C     C_R   0.625841 0.806657 0.076427 -0.158978
H136  H     H_    0.761039 0.815012 0.121308 0.120460
H137  H     H_    0.706395 0.739902 0.157715 0.130111
H138  H     H_    0.600160 0.707466 0.143003 0.120567
H139  H     H_    0.548588 0.750214 0.091144 0.126924
H140  H     H_    0.602693 0.823740 0.053561 0.131689
C281  C     C_R   0.140070 0.316291 0.898110 0.112348
C282  C     C_R   0.146608 0.289752 0.865117 -0.147730
C283  C     C_R   0.176441 0.321983 0.838661 -0.141304
C284  C     C_R   0.200309 0.380729 0.844886 -0.095326
C285  C     C_R   0.194387 0.407385 0.877580 -0.107102
C286  C     C_R   0.164266 0.375565 0.904052 -0.175338
H141  H     H_    0.127828 0.244545 0.859665 0.129145
H142  H     H_    0.180949 0.301427 0.813291 0.138105
H143  H     H_    0.223392 0.405601 0.824379 0.143047
H144  H     H_    0.213155 0.452769 0.882452 0.168324
H145  H     H_    0.160539 0.396978 0.929255 0.139327
C287  C     C_R   0.313672 0.825455 0.915578 0.113422
C288  C     C_R   0.285028 0.800931 0.885929 -0.109920
C289  C     C_R   0.315987 0.758444 0.865022 -0.059643
C290  C     C_R   0.375904 0.740223 0.873271 -0.055300
C291  C     C_R   0.405001 0.764435 0.902458 -0.109387
C292  C     C_R   0.374159 0.806658 0.923573 -0.158979
H146  H     H_    0.238960 0.815013 0.878692 0.120459
H147  H     H_    0.293605 0.739903 0.842284 0.130111
H148  H     H_    0.399840 0.707467 0.856996 0.120567
H149  H     H_    0.451412 0.750214 0.908856 0.126924
H150  H     H_    0.397307 0.823740 0.946439 0.131689
C293  C     C_R   0.859930 0.683709 0.898110 0.112348
C294  C     C_R   0.853392 0.710248 0.865117 -0.147731
C295  C     C_R   0.823559 0.678017 0.838661 -0.141304
C296  C     C_R   0.799691 0.619270 0.844886 -0.095325
C297  C     C_R   0.805613 0.592615 0.877580 -0.107103
C298  C     C_R   0.835734 0.624435 0.904052 -0.175338
H151  H     H_    0.872172 0.755455 0.859665 0.129146
H152  H     H_    0.819052 0.698573 0.813291 0.138105
H153  H     H_    0.776608 0.594399 0.824379 0.143047
H154  H     H_    0.786845 0.547231 0.882452 0.168324
H155  H     H_    0.839461 0.603022 0.929255 0.139327
C299  C     C_R   0.686328 0.174545 0.915578 0.113422
C300  C     C_R   0.714972 0.199069 0.885929 -0.109920
C301  C     C_R   0.684013 0.241556 0.865022 -0.059643
C302  C     C_R   0.624096 0.259777 0.873272 -0.055300
C303  C     C_R   0.594999 0.235565 0.902458 -0.109386
C304  C     C_R   0.625841 0.193342 0.923573 -0.158979
H156  H     H_    0.761040 0.184987 0.878692 0.120459
H157  H     H_    0.706395 0.260097 0.842284 0.130110
H158  H     H_    0.600160 0.292533 0.856996 0.120567
H159  H     H_    0.548588 0.249786 0.908856 0.126924
H160  H     H_    0.602693 0.176260 0.946439 0.131689

loop_
_geom_bond_atom_site_label_1
_geom_bond_atom_site_label_2
_ccdc_geom_bond_type
C235  C236  A    
C201  H73   S    
C93   O45   A    
C233  C234  A    
C109  H5    S    
C273  C274  A    
C174  H30   S    
C127  C199  S    
C252  C253  A    
C53   C69   A    
C263  C264  A    
C42   C58   A    
C9    C177  A    
C174  C190  A    
C240  C241  A    
C239  C240  A    
C288  H146  S    
C32   H56   S    
C118  H14   S    
C58   C82   A    
C39   H63   S    
C265  H127  S    
C22   C38   A    
C261  H124  S    
C206  H78   S    
C195  O51   D    
C260  H123  S    
C64   C84   A    
C75   C90   S    
C214  H85   S    
C291  C292  A    
C56   C72   A    
C153  N14   A    
C115  H11   S    
C287  C292  A    
O3    Zn3   S    
C113  H9    S    
C22   C190  A    
C169  C185  A    
C230  H98   S    
C24   H48   S    
O8    Zn2   S    
C182  C215  S    
C266  H128  S    
C117  C133  A    
C278  H138  S    
C104  O32   A    
C191  C257  S    
C119  C151  A    
C114  C130  A    
C301  H157  S    
C6    O10   A    
C69   C173  A    
C108  C124  A    
C14   C182  A    
C90   O40   A    
C108  C146  A    
C43   C75   A    
C290  H148  S    
C34   C50   A    
C281  C286  A    
C120  H16   S    
C283  H142  S    
C96   O46   A    
C286  H145  S    
C196  H68   S    
C194  H66   S    
C143  C154  S    
C162  H18   S    
C279  C280  A    
C257  C258  A    
C28   C44   A    
C29   C45   A    
C10   C178  A    
C223  H92   S    
C101  O25   A    
C2    O2    A    
C248  H113  S    
C54   C70   A    
C11   C27   A    
C199  O55   D    
O48   Zn12  S    
C34   H58   S    
C222  C223  A    
C220  H90   S    
C38   H62   S    
C46   C62   A    
C298  H155  S    
C3    C83   S    
C209  C210  A    
O10   Zn6   S    
C94   O48   A    
C11   C179  A    
C114  C150  A    
C161  C177  A    
C211  C212  A    
C58   C162  A    
C135  C207  S    
C7    O11   A    
C277  C278  A    
C249  H114  S    
C235  H102  S    
C124  C138  A    
C295  H152  S    
C99   C147  S    
C30   H54   S    
C137  C160  S    
C297  H154  S    
O23   Zn3   S    
C264  H126  S    
C284  C285  A    
C207  H79   S    
C18   H42   S    
C141  C156  S    
C216  C217  A    
O44   Zn11  S    
C117  H13   S    
C229  C230  A    
C104  C152  S    
N4    N15   A    
C300  H156  S    
C295  C296  A    
N5    N10   A    
C19   C35   A    
C223  C224  A    
C246  C247  A    
C134  C206  S    
C164  H20   S    
C160  N1    A    
C36   H60   S    
C16   H40   S    
C97   O17   A    
C14   H38   S    
C48   C64   A    
C217  C218  A    
C95   O43   A    
C231  H99   S    
C40   H64   S    
C129  C201  S    
C303  H159  S    
C57   C161  A    
C136  C144  A    
C202  H74   S    
C175  H31   S    
C243  H109  S    
C124  C196  S    
C28   H52   S    
C97   O19   A    
C208  H80   S    
C259  H122  S    
C33   C49   A    
C171  C187  A    
C112  H8    S    
C55   C71   A    
C95   O47   A    
C91   O35   A    
C21   H45   S    
C172  H28   S    
C48   C76   A    
C199  H71   S    
C166  C182  A    
C167  H23   S    
C180  C251  S    
O17   Zn1   S    
C244  H110  S    
C106  H2    S    
C237  C238  A    
C270  C271  A    
C271  H132  S    
C101  O27   A    
C258  H121  S    
C102  O28   A    
C303  C304  A    
C3    O5    A    
O47   Zn12  S    
C186  C287  S    
C90   O34   A    
C121  C137  A    
C268  H130  S    
C44   C76   A    
N2    N13   A    
C211  H82   S    
C198  H70   S    
C204  H76   S    
O39   Zn10  S    
C255  H119  S    
C187  C281  S    
C93   O41   A    
C188  C299  S    
C233  C238  A    
C273  H134  S    
O30   Zn8   S    
C36   C52   A    
C43   C59   A    
C5    C85   S    
C63   C167  A    
C288  C289  A    
C115  C149  A    
C109  C147  A    
C110  C148  A    
C267  C268  A    
O42   Zn11  S    
O13   Zn5   S    
C39   C55   A    
C251  C252  A    
C260  C261  A    
C79   C94   S    
C100  O22   A    
O36   Zn9   S    
O34   Zn9   S    
C258  C259  A    
C20   H44   S    
C229  H97   S    
C160  N3    A    
C183  C209  S    
O21   Zn1   S    
C8    C88   S    
C8    O16   A    
C98   O20   A    
C215  C220  A    
C92   O38   A    
C20   C188  A    
C18   C34   A    
C218  H88   S    
C21   C189  A    
C266  C267  A    
C116  C132  A    
C181  C221  S    
C106  C122  A    
C264  C265  A    
C24   C192  A    
C51   C67   A    
C80   C95   S    
C118  C152  A    
C70   C174  A    
O31   Zn7   S    
C110  C126  A    
C165  H21   S    
C62   C166  A    
C265  C266  A    
C13   C181  A    
C163  C179  A    
C256  H120  S    
O33   Zn9   S    
C108  H4    S    
C283  C284  A    
O43   Zn11  S    
C236  C237  A    
C26   C42   A    
C128  C200  S    
C279  H139  S    
C226  H95   S    
C176  H32   S    
C15   H39   S    
C224  C225  A    
O4    Zn4   S    
O35   Zn9   S    
C73   C92   S    
O32   Zn6   S    
C27   H51   S    
C102  O26   A    
C276  C277  A    
C15   C31   A    
C25   H49   S    
C16   C32   A    
C123  C137  A    
C77   C96   S    
O1    Zn1   S    
C56   C80   A    
C168  H24   S    
C282  C283  A    
C128  C140  A    
C285  H144  S    
C212  H83   S    
C280  H140  S    
C210  H81   S    
N8    N11   A    
C60   C164  A    
C206  O62   D    
C61   C165  A    
C241  H107  S    
C19   C187  A    
C130  C142  A    
C51   C79   A    
C162  C178  A    
C59   C163  A    
C239  C244  A    
C76   C91   S    
C41   C73   A    
C249  C250  A    
C6    O14   A    
C11   H35   S    
C200  H72   S    
C297  C298  A    
C132  C204  S    
C184  C227  S    
C54   C78   A    
C284  H143  S    
C269  C270  A    
C238  H105  S    
C171  H27   S    
C123  C195  S    
C205  O61   D    
C236  H103  S    
C169  H25   S    
C216  H86   S    
C210  C211  A    
C190  C263  S    
C110  H6    S    
C269  C274  A    
C300  C301  A    
C107  C123  A    
C100  O24   A    
C173  H29   S    
N6    N9    A    
C9    C25   A    
C262  H125  S    
O12   Zn8   S    
C276  H136  S    
C136  C208  S    
C296  C297  A    
C159  N4    A    
C12   C28   A    
C193  H65   S    
C13   C29   A    
C98   O18   A    
C59   C83   A    
C205  H77   S    
C99   O23   A    
C217  H87   S    
C47   C63   A    
C285  C286  A    
C8    O12   A    
C196  O52   D    
C12   H36   S    
C129  C141  A    
C234  C235  A    
C1    C81   S    
C179  C233  S    
C243  C244  A    
C299  C300  A    
O7    Zn3   S    
C302  H158  S    
C241  C242  A    
C116  H12   S    
C7    C87   S    
C221  C222  A    
C17   C185  A    
C40   C56   A    
C15   C183  A    
C203  H75   S    
C114  H10   S    
C197  O53   D    
C96   O44   A    
C155  N12   A    
C69   C87   A    
C103  C151  S    
O15   Zn7   S    
C157  N6    A    
C62   C82   A    
C201  O57   D    
C31   C47   A    
C271  C272  A    
C32   C48   A    
C17   C33   A    
C50   C78   A    
C107  H3    S    
C30   C46   A    
C275  C280  A    
C193  O49   D    
N7    N12   A    
C42   C74   A    
O29   Zn5   S    
C245  C246  A    
C219  C220  A    
C47   C73   A    
C194  O50   D    
C61   C83   A    
C255  C256  A    
O16   Zn6   S    
C92   O36   A    
C254  C255  A    
C161  H17   S    
C272  H133  S    
C119  C135  A    
C94   O42   A    
C89   O37   A    
C5    O15   A    
C270  H131  S    
C242  C243  A    
C12   C180  A    
C66   C86   A    
C302  C303  A    
C177  C245  S    
C111  C147  A    
C23   H47   S    
C195  H67   S    
C38   C54   A    
C257  C262  A    
C105  C145  A    
C170  C186  A    
C198  O54   D    
C3    O3    A    
C122  C138  A    
C267  H129  S    
C113  C129  A    
C102  C150  S    
C126  C198  S    
C37   H61   S    
C251  C256  A    
C274  H135  S    
C97   C145  S    
C2    C82   S    
C153  N16   A    
O9    Zn5   S    
C222  H91   S    
C208  O64   D    
C154  N15   A    
C122  C194  S    
O11   Zn7   S    
C213  C214  A    
C275  C276  A    
O27   Zn7   S    
C131  C203  S    
C29   H53   S    
C289  H147  S    
C215  C216  A    
C99   O21   A    
C19   H43   S    
C219  H89   S    
O14   Zn8   S    
C218  C219  A    
O20   Zn4   S    
C1    O7    A    
C17   H41   S    
C252  H116  S    
C292  H150  S    
C45   C75   A    
O41   Zn11  S    
O37   Zn10  S    
C41   C57   A    
C64   C168  A    
C263  C268  A    
C68   C172  A    
C44   C60   A    
C107  C145  A    
C45   C61   A    
C71   C175  A    
O28   Zn8   S    
C72   C176  A    
C112  C128  A    
C155  N10   A    
C16   C184  A    
C13   H37   S    
C20   C36   A    
C27   C43   A    
C116  C150  A    
C157  N8    A    
C21   C37   A    
C253  C254  A    
C158  N7    A    
C65   C169  A    
C228  H96   S    
C120  C136  A    
C250  H115  S    
C52   C80   A    
C247  H112  S    
C22   H46   S    
C291  H149  S    
C282  H141  S    
C259  C260  A    
C212  C213  A    
O18   Zn2   S    
C202  O58   D    
C230  C231  A    
C242  H108  S    
C115  C131  A    
C125  C139  A    
C105  H1    S    
C126  C140  A    
C278  C279  A    
C293  C294  A    
C49   C65   A    
C117  C151  A    
C7    O13   A    
C237  H104  S    
C74   C89   S    
C301  C302  A    
C53   C79   A    
C100  C148  S    
C89   O33   A    
C175  C191  A    
C55   C77   A    
C23   C39   A    
C176  C192  A    
C78   C93   S    
C290  C291  A    
O26   Zn6   S    
C281  C282  A    
C101  C149  S    
C144  C153  S    
C5    O9    A    
C111  H7    S    
C71   C85   A    
C138  C159  S    
C167  C183  A    
C156  N9    A    
C139  C158  S    
C49   C77   A    
C168  C184  A    
C4    C84   S    
C253  H117  S    
C225  C226  A    
C142  C155  S    
C154  N13   A    
C164  C180  A    
C1    O1    A    
C52   C68   A    
C294  H151  S    
C10   C26   A    
C103  O31   A    
C248  C249  A    
C296  H153  S    
O38   Zn10  S    
C203  O59   D    
C31   H55   S    
C127  C139  A    
C14   C30   A    
C209  C214  A    
C35   H59   S    
C72   C88   A    
C2    O6    A    
C234  H101  S    
C207  O63   D    
O45   Zn12  S    
C132  C142  A    
C189  C269  S    
C120  C152  A    
O40   Zn10  S    
C299  C304  A    
C4    O4    A    
C113  C149  A    
C23   C191  A    
C294  C295  A    
C163  H19   S    
C277  H137  S    
C98   C146  S    
C67   C171  A    
C261  C262  A    
C134  C144  A    
C18   C186  A    
C112  C148  A    
C125  C197  S    
C133  C143  A    
C33   H57   S    
C140  C157  S    
C178  C239  S    
C228  C229  A    
O19   Zn3   S    
C245  C250  A    
C158  N5    A    
C105  C121  A    
C225  H94   S    
C50   C66   A    
O6    Zn4   S    
C227  C232  A    
C166  H22   S    
C109  C125  A    
O46   Zn12  S    
O22   Zn4   S    
C247  C248  A    
C159  N2    A    
C200  O56   D    
C111  C127  A    
C68   C88   A    
C57   C81   A    
C119  H15   S    
C70   C86   A    
C246  H111  S    
C6    C86   S    
C46   C74   A    
C192  C275  S    
C231  C232  A    
C272  C273  A    
C104  O30   A    
C63   C81   A    
O5    Zn1   S    
C66   C170  A    
C118  C134  A    
C9    H33   S    
C240  H106  S    
C26   H50   S    
C65   C85   A    
C304  H160  S    
C121  C193  S    
O2    Zn2   S    
C67   C87   A    
C106  C146  A    
C130  C202  S    
C224  H93   S    
C165  C181  A    
C232  H100  S    
C37   C53   A    
C35   C51   A    
C60   C84   A    
C293  C298  A    
C227  C228  A    
C156  N11   A    
C254  H118  S    
C172  C188  A    
C4    O8    A    
C185  C293  S    
C173  C189  A    
C135  C143  A    
C24   C40   A    
O25   Zn5   S    
C204  O60   D    
C91   O39   A    
C131  C141  A    
C213  H84   S    
C103  O29   A    
C287  C288  A    
C25   C41   A    
C221  C226  A    
C10   H34   S    
C289  C290  A    
O24   Zn2   S    
N1    N14   A    
C133  C205  S    
C197  H69   S    
N3    N16   A    
C170  H26   S    
