data_mof_unit_21095.cif
_audit_creation_date              2012-12-11T15:43:50-0500
_audit_creation_method            fapswitch 2.2
_symmetry_space_group_name_H-M    P1
_symmetry_Int_Tables_number       1
_space_group_crystal_system       triclinic
_cell_length_a                    14.526878
_cell_length_b                    16.199722
_cell_length_c                    6.921835
_cell_angle_alpha                 89.951644
_cell_angle_beta                  98.515617
_cell_angle_gamma                 89.980535
_cell_volume                      1610.96624545

loop_
_atom_site_label
_atom_site_type_symbol
_atom_type_description
_atom_site_fract_x
_atom_site_fract_y
_atom_site_fract_z
_atom_type_partial_charge
O1    O     O_R   0.831700 0.662810 0.581550 -0.529008
O2    O     O_R   0.168300 0.337190 0.418450 -0.529008
O3    O     O_R   0.168300 0.162810 0.418450 -0.529969
O4    O     O_R   0.831700 0.837190 0.581550 -0.529969
O5    O     O_R   0.842890 0.834390 0.255500 -0.520864
O6    O     O_R   0.157110 0.165610 0.744500 -0.520864
O7    O     O_R   0.157110 0.334390 0.744500 -0.524472
O8    O     O_R   0.842890 0.665610 0.255500 -0.524472
O9    O     O_R   0.661690 0.835580 0.024130 -0.543533
O10   O     O_R   0.338310 0.164420 0.975870 -0.543533
O11   O     O_R   0.338310 0.335580 0.975870 -0.543925
O12   O     O_R   0.661690 0.664420 0.024130 -0.543925
C1    C     C_R   0.866333 0.863975 0.430102 0.704184
C2    C     C_R   0.133667 0.136025 0.569898 0.704184
C3    C     C_R   0.133649 0.363932 0.569559 0.691277
C4    C     C_R   0.866351 0.636068 0.430441 0.691277
C5    C     C_R   0.065097 0.066281 0.540749 -0.140020
C6    C     C_R   0.934903 0.933719 0.459251 -0.140021
C7    C     C_R   0.935099 0.566489 0.460492 -0.097385
C8    C     C_R   0.064901 0.433511 0.539508 -0.097385
H1    H     H_    0.123262 0.020214 0.292897 0.160584
H2    H     H_    0.876738 0.979786 0.707103 0.160585
H3    H     H_    0.875606 0.518490 0.705184 0.144097
H4    H     H_    0.124394 0.481510 0.294816 0.144097
C9    C     C_R   0.005374 0.947011 0.340271 -0.009497
C10   C     C_R   0.994625 0.052989 0.659729 -0.009498
C11   C     C_R   0.993710 0.445676 0.656787 -0.091275
C12   C     C_R   0.006290 0.554324 0.343213 -0.091275
O13   O     O_3   0.687240 0.750000 0.366320 -0.388519
O14   O     O_3   0.312760 0.250000 0.633680 -0.388519
V1    V     V_3+5 0.757720 0.750000 0.115230 1.533346
V2    V     V_3+5 0.242280 0.250000 0.884770 1.533346
O15   O     O_R   0.650500 0.664000 0.690740 -0.552016
O16   O     O_R   0.349500 0.336000 0.309260 -0.552016
O17   O     O_R   0.349500 0.164000 0.309260 -0.551165
O18   O     O_R   0.650500 0.836000 0.690740 -0.551165
C13   C     C_R   0.628365 0.635975 0.853735 0.745544
C14   C     C_R   0.371635 0.364025 0.146264 0.745544
C15   C     C_R   0.371649 0.135957 0.146348 0.748736
C16   C     C_R   0.628351 0.864043 0.853652 0.748737
C17   C     C_R   0.069275 0.011936 0.383916 -0.141578
C18   C     C_R   0.930725 0.988064 0.616084 -0.141577
C19   C     C_R   0.930127 0.511053 0.615169 -0.150916
C20   C     C_R   0.069873 0.488946 0.384831 -0.150916
V3    V     V_3+5 0.735670 0.750000 0.607790 1.473443
V4    V     V_3+5 0.264330 0.250000 0.392210 1.473443
O19   O     O_3   0.806150 0.750000 0.906560 -0.328773
O20   O     O_3   0.193850 0.250000 0.093440 -0.328773
H5    H     H_    0.435628 0.056499 0.850457 0.149904
H6    H     H_    0.564371 0.943501 0.149543 0.149904
H7    H     H_    0.564293 0.556398 0.149630 0.149290
H8    H     H_    0.435707 0.443602 0.850370 0.149290
C21   C     C_2   0.559405 0.931836 0.843921 -0.328999
C22   C     C_2   0.440595 0.068164 0.156079 -0.328999
C23   C     C_2   0.440551 0.431779 0.155943 -0.332750
C24   C     C_2   0.559449 0.568221 0.844057 -0.332750
C25   C     C_2   0.534200 0.965880 0.005946 -0.117246
C26   C     C_2   0.465800 0.034120 0.994054 -0.117246
C27   C     C_2   0.465811 0.465895 0.993979 -0.119127
C28   C     C_2   0.534189 0.534105 0.006021 -0.119127
H9    H     H_    0.470778 0.045185 0.299113 0.127008
H10   H     H_    0.529222 0.954815 0.700887 0.127008
H11   H     H_    0.529326 0.545319 0.701023 0.125481
H12   H     H_    0.470674 0.454681 0.298977 0.125481
C29   C     C_2   0.017822 0.894262 0.171948 0.768148
O21   O     O_2   0.956677 0.889977 0.030700 -0.548191
O22   O     O_R   0.102875 0.854323 0.169081 -0.656357
H13   H     H_    0.104562 0.822416 0.043700 0.323965
C30   C     C_2   0.982178 0.105739 0.828051 0.768148
O23   O     O_2   0.043323 0.110023 0.969299 -0.548190
O24   O     O_R   0.897124 0.145676 0.830919 -0.656358
H14   H     H_    0.895437 0.177584 0.956299 0.323965
C31   C     C_2   0.980207 0.390208 0.820325 0.807520
O25   O     O_2   0.037124 0.389574 0.968817 -0.521744
O26   O     O_R   0.900268 0.341626 0.811565 -0.646285
H15   H     H_    0.857751 0.346789 0.682133 0.261087
C32   C     C_2   0.019793 0.609792 0.179676 0.807519
O27   O     O_2   0.962876 0.610426 0.031183 -0.521744
O28   O     O_R   0.099731 0.658375 0.188437 -0.646285
H16   H     H_    0.142248 0.653213 0.317869 0.261088

loop_
_geom_bond_atom_site_label_1
_geom_bond_atom_site_label_2
_ccdc_geom_bond_type
O6    V2    S    
C23   C27   D    
O15   V3    S    
C31   O25   D    
C32   O27   D    
O2    V4    S    
C1    C6    S    
C5    C10   A    
O8    V1    S    
C6    C18   A    
C15   C22   S    
O4    C1    A    
H3    C19   S    
V3    O19   S    
O12   C13   A    
C30   O24   S    
C13   C24   S    
C14   C23   S    
C29   O22   S    
O16   V4    S    
O5    C1    A    
O7    C3    A    
C27   C28   S    
O8    C4    A    
V1    O19   S    
V2    O20   S    
C2    C5    S    
C6    C9    A    
C8    C20   A    
C7    C19   A    
O4    V3    S    
C32   O28   S    
C3    C8    S    
V4    O20   S    
O22   H13   S    
O18   C16   A    
C9    C29   S    
C9    C17   A    
C21   C25   D    
C12   C20   A    
O9    C16   A    
O15   C13   A    
H5    C26   S    
C24   C28   D    
O13   V3    S    
O10   C15   A    
O11   C14   A    
O17   C15   A    
O26   H15   S    
O2    C3    A    
H8    C27   S    
O10   V2    S    
O6    C2    A    
C21   H10   S    
C23   H12   S    
C24   H11   S    
O18   V3    S    
O1    C4    A    
C12   C32   S    
O3    C2    A    
H1    C17   S    
C22   H9    S    
O11   V2    S    
C16   C21   S    
O12   V1    S    
C7    C12   A    
H4    C20   S    
C31   O26   S    
C10   C18   A    
C22   C26   D    
O7    V2    S    
O16   C14   A    
H6    C25   S    
O14   V4    S    
C8    C11   A    
O3    V4    S    
O24   H14   S    
O13   V1    S    
O14   V2    S    
O1    V3    S    
C25   C26   S    
H2    C18   S    
C4    C7    S    
C30   O23   D    
C5    C17   A    
O9    V1    S    
O28   H16   S    
C11   C19   A    
C29   O21   D    
C10   C30   S    
H7    C28   S    
C11   C31   S    
O17   V4    S    
O5    V1    S    
