data_mof_unit_56029.cif
_audit_creation_date              2012-12-11T20:41:37-0500
_audit_creation_method            fapswitch 2.2
_symmetry_space_group_name_H-M    P1
_symmetry_Int_Tables_number       1
_space_group_crystal_system       triclinic
_cell_length_a                    8.250279
_cell_length_b                    18.83756
_cell_length_c                    26.974402
_cell_angle_alpha                 97.095872
_cell_angle_beta                  92.320166
_cell_angle_gamma                 86.45258
_cell_volume                      4149.86698675

loop_
_atom_site_label
_atom_site_type_symbol
_atom_type_description
_atom_site_fract_x
_atom_site_fract_y
_atom_site_fract_z
_atom_type_partial_charge
Ba1   Ba    Ba6+2 0.852670 0.466460 0.522850 1.651782
Ba2   Ba    Ba6+2 0.337150 0.533490 0.477140 1.646564
C1    C     C_3   0.574225 0.221424 0.663187 -0.364996
C2    C     C_R   0.963299 0.574619 0.183280 0.590148
C3    C     C_2   0.774786 0.553897 0.273551 -0.093515
C4    C     C_3   0.116725 0.266603 0.650482 0.319464
C5    C     C_3   0.751980 0.573972 0.328964 -0.065856
C6    C     C_1   0.981643 0.488717 0.342955 0.032098
C7    C     C_2   0.021212 0.482673 0.295112 -0.097954
C8    C     C_2   0.911124 0.515567 0.257246 0.219898
C9    C     C_R   0.031571 0.506443 0.103011 -0.080851
C10   C     C_R   0.028841 0.442781 0.125577 -0.030201
C11   C     C_R   0.063608 0.376989 0.096423 -0.063225
C12   C     C_3   0.576120 0.292729 0.642244 0.372581
C13   C     C_R   0.998725 0.572716 0.132305 -0.028828
C14   C     C_2   0.852999 0.527211 0.361028 -0.274680
C15   C     C_2   0.349953 0.482164 0.641166 -0.275593
C16   C     C_3   0.040009 0.246271 0.696645 -0.344599
C17   C     C_R   0.147339 0.435026 0.971070 0.019797
C18   C     C_R   0.094133 0.566227 0.976761 0.020107
C19   C     C_R   0.138706 0.499604 0.948337 0.049513
C20   C     C_R   0.197936 0.370621 0.941395 -0.099310
C21   C     C_R   0.235889 0.369566 0.891359 -0.062430
C22   C     C_R   0.224817 0.432501 0.868245 -0.034037
C23   C     C_3   0.527931 0.644852 0.630350 0.279766
C24   C     C_R   0.175264 0.497641 0.896619 -0.079096
C25   C     C_R   0.162505 0.560909 0.873291 -0.032672
C26   C     C_R   0.200278 0.558419 0.822365 0.584809
C27   C     C_R   0.263049 0.431699 0.817380 0.592927
C28   C     C_3   0.184853 0.317988 0.416595 0.308352
C29   C     C_2   0.450331 0.477879 0.729191 -0.081897
C30   C     C_3   0.496970 0.486508 0.676411 -0.069330
C31   C     C_1   0.211140 0.513200 0.657096 0.052052
C32   C     C_2   0.170042 0.514003 0.704378 -0.085654
C33   C     C_2   0.294723 0.493638 0.743159 0.220900
C34   C     C_3   0.526683 0.670266 0.686168 -0.388606
C35   C     C_R   0.106158 0.436948 0.022385 0.019985
C36   C     C_R   0.067661 0.504001 0.051216 0.048847
C37   C     C_R   0.065072 0.568788 0.028869 0.020370
C38   C     C_R   0.101589 0.374017 0.046204 -0.100362
C39   C     C_R   0.002828 0.636178 0.110235 -0.062880
C40   C     C_3   0.205320 0.237155 0.403372 -0.382948
C41   C     C_R   0.078915 0.628279 0.951709 -0.101272
C42   C     C_R   0.112473 0.625562 0.901333 -0.062097
C43   C     C_R   0.035086 0.634413 0.059876 -0.101197
C44   C     C_2   0.409737 0.300748 0.521380 -0.245013
C45   C     C_3   0.008465 0.729079 0.346342 0.302671
C46   C     C_3   0.326108 0.253200 0.552145 -0.068994
C47   C     C_2   0.362367 0.174204 0.536573 -0.121250
C48   C     C_2   0.489488 0.151371 0.507251 -0.065528
C49   C     C_2   0.579991 0.206043 0.485444 -0.131101
C50   C     C_1   0.529939 0.274771 0.492218 0.065151
C51   C     C_R   0.646215 0.932479 0.488729 0.458142
C52   C     C_3   0.990482 0.684268 0.587594 0.311218
C53   C     C_R   0.542689 0.073774 0.499007 0.462623
C54   C     C_R   0.610311 0.806654 0.505780 -0.131682
C55   C     C_R   0.662723 0.734480 0.503809 0.042001
C56   C     C_3   0.040844 0.753703 0.296328 -0.307951
C57   C     C_R   0.901624 0.756814 0.460871 -0.006918
C58   C     C_R   0.851587 0.829874 0.462990 -0.153610
C59   C     C_R   0.702795 0.855387 0.484879 -0.061080
C60   C     C_R   0.803639 0.709485 0.479519 -0.270058
C61   C     C_3   0.935873 0.761570 0.608214 -0.238947
C62   C     C_3   0.668305 0.378506 0.372034 0.314549
C63   C     C_3   0.650108 0.363596 0.314928 -0.250404
C64   C     C_3   0.057646 0.817303 0.600566 -0.236338
C65   C     C_3   0.218892 0.806035 0.629547 -0.165893
C66   C     C_3   0.326447 0.868884 0.628367 -0.414261
C67   C     C_3   0.523216 0.723865 0.361596 0.418351
C68   C     C_3   0.789486 0.315390 0.290568 -0.191906
C69   C     C_3   0.798485 0.239168 0.305466 -0.165398
C70   C     C_3   0.928984 0.191820 0.276842 -0.433601
C71   C     C_3   0.494769 0.792556 0.337455 -0.358496
C72   C     C_R   0.989720 0.446211 0.176679 0.587588
H1    H     H_    0.633700 0.282552 0.605281 0.062866
H2    H     H_    0.589553 0.426986 0.384151 0.067896
H3    H     H_    0.700151 0.198601 0.668119 0.128102
H4    H     H_    0.647833 0.415525 0.299315 0.069145
H5    H     H_    0.531628 0.339883 0.304277 0.128963
H6    H     H_    0.449231 0.315271 0.638421 -0.085811
H7    H     H_    0.506625 0.182810 0.637047 0.065027
H8    H     H_    0.402745 0.631452 0.617457 0.029057
H9    H     H_    0.611680 0.596355 0.624002 0.049634
H10   H     H_    0.452573 0.721510 0.693180 0.130370
H11   H     H_    0.473335 0.630150 0.706482 0.084145
H12   H     H_    0.292909 0.223799 0.372954 0.115139
H13   H     H_    0.652752 0.678604 0.700851 0.122312
H14   H     H_    0.514983 0.229083 0.699829 0.132422
H15   H     H_    0.127623 0.253068 0.728996 0.107404
H16   H     H_    0.982897 0.671260 0.340157 0.029760
H17   H     H_    0.901076 0.761927 0.361628 -0.028344
H18   H     H_    0.142232 0.719744 0.277914 0.165611
H19   H     H_    0.928951 0.749634 0.271870 0.120617
H20   H     H_    0.073873 0.810769 0.301924 0.091598
H21   H     H_    0.656916 0.713173 0.365306 -0.131600
H22   H     H_    0.472720 0.732312 0.399600 0.082254
H23   H     H_    0.251249 0.211736 0.436469 0.081247
H24   H     H_    0.556758 0.836597 0.360490 0.070429
H25   H     H_    0.362970 0.807788 0.334663 0.144268
H26   H     H_    0.142496 0.324420 0.657348 0.030612
H27   H     H_    0.544972 0.785014 0.299403 0.109077
H28   H     H_    0.134539 0.454514 0.283196 0.111859
H29   H     H_    0.061624 0.326962 0.112427 0.116363
H30   H     H_    0.544268 0.465641 0.756729 0.090613
H31   H     H_    0.274443 0.318645 0.870692 0.116792
H32   H     H_    0.212235 0.319685 0.955869 0.066854
H33   H     H_    0.124501 0.320947 0.026885 0.066690
H34   H     H_    0.086656 0.215185 0.390974 0.125221
H35   H     H_    0.692783 0.578776 0.247375 0.100019
H36   H     H_    0.980497 0.688140 0.131968 0.116275
H37   H     H_    0.038290 0.680201 0.969708 0.067706
H38   H     H_    0.099174 0.674959 0.884350 0.120283
H39   H     H_    0.047766 0.531415 0.715647 0.110762
H40   H     H_    0.038610 0.686104 0.046718 0.066811
H41   H     H_    0.357817 0.453943 0.603674 0.067309
H42   H     H_    0.295274 0.136548 0.553873 0.096009
H43   H     H_    0.685108 0.188954 0.463072 0.103038
H44   H     H_    0.500392 0.824728 0.525088 0.100808
H45   H     H_    0.881248 0.655001 0.575408 0.014049
H46   H     H_    0.928825 0.866202 0.448328 0.098224
H47   H     H_    0.384469 0.358101 0.529469 0.067090
H48   H     H_    0.929803 0.281297 0.705678 0.166060
H49   H     H_    0.843607 0.653566 0.478717 0.058311
H50   H     H_    0.007417 0.189479 0.690303 0.105617
H51   H     H_    0.304547 0.339110 0.427474 0.006814
H52   H     H_    0.102487 0.330006 0.448351 0.089963
H53   H     H_    0.338034 0.881276 0.589500 0.153183
H54   H     H_    0.273234 0.916987 0.651138 0.133859
H55   H     H_    0.449748 0.855448 0.644145 0.137454
H56   H     H_    0.068389 0.683536 0.554873 0.040523
H57   H     H_    0.196222 0.800256 0.669126 0.128341
H58   H     H_    0.283841 0.756390 0.612490 0.165374
H59   H     H_    0.079942 0.815433 0.560083 0.125140
H60   H     H_    0.001597 0.871336 0.613509 0.123444
H61   H     H_    0.899442 0.186732 0.236058 0.144060
H62   H     H_    0.049701 0.214917 0.284261 0.155250
H63   H     H_    0.935307 0.137576 0.289231 0.125379
H64   H     H_    0.829368 0.240591 0.345977 0.156379
H65   H     H_    0.679057 0.215048 0.297570 0.125267
H66   H     H_    0.770138 0.312401 0.249344 0.150945
H67   H     H_    0.820613 0.777425 0.589217 0.067962
H68   H     H_    0.906804 0.340320 0.300221 0.138245
H69   H     H_    0.231624 0.233238 0.645218 -0.026697
H70   H     H_    0.833549 0.535818 0.400923 0.079281
H71   H     H_    0.909608 0.764467 0.648492 0.139448
H72   H     H_    0.795614 0.388805 0.383259 -0.005653
N1    N     N_R   0.955551 0.511767 0.204936 -0.421183
N2    N     N_R   0.251172 0.494377 0.795066 -0.425909
N3    N     N_R   0.505999 0.955370 0.511821 -0.255105
N4    N     N_R   0.455567 0.024301 0.516910 -0.249352
N5    N     N_R   0.682455 0.050986 0.475446 -0.242355
N6    N     N_R   0.733167 0.981805 0.470393 -0.244327
O1    O     O_2   0.914730 0.537460 0.618690 -0.469865
O2    O     O_2   0.236860 0.752567 0.472085 -0.489771
O3    O     O_3   0.146214 0.739292 0.378271 -0.579252
O4    O     O_3   0.146720 0.537410 0.558510 -0.480313
O5    O     O_3   0.553920 0.415280 0.473710 -0.490329
O6    O     O_2   0.383540 0.672140 0.526840 -0.453145
O7    O     O_3   0.581035 0.699994 0.605661 -0.657488
O8    O     O_2   0.428122 0.527872 0.323084 -0.486138
O9    O     O_3   0.446193 0.667593 0.332227 -0.569416
O10   O     O_2   0.984278 0.390790 0.195726 -0.618176
O11   O     O_2   0.306009 0.375134 0.792894 -0.603182
O12   O     O_3   0.620523 0.319458 0.393553 -0.650710
O13   O     O_2   0.940366 0.632630 0.208579 -0.625575
O14   O     O_2   0.189957 0.613567 0.802493 -0.600697
O15   O     O_3   0.666360 0.409390 0.586570 -0.480866
O16   O     O_2   0.832064 0.448468 0.671115 -0.474087
O17   O     O_3   0.075449 0.651917 0.625614 -0.645042
O18   O     O_3   0.666144 0.339539 0.675182 -0.588069
O19   O     O_2   0.806150 0.327840 0.473120 -0.455748
O20   O     O_3   0.073640 0.373350 0.561550 -0.472790
O21   O     O_2   0.008676 0.246526 0.510898 -0.477554
O22   O     O_3   0.011752 0.252854 0.608464 -0.572497
O23   O     O_2   0.274960 0.462520 0.381280 -0.451498
O24   O     O_3   0.042980 0.462530 0.441480 -0.494032
O25   O     O_3   0.523340 0.590550 0.413420 -0.474121
O26   O     O_3   0.120211 0.348163 0.374775 -0.644030
O27   O     O_3   0.635780 0.584660 0.526290 -0.476681
O28   O     O_3   0.116060 0.626590 0.438450 -0.466176
P1    P     P_3+3 0.084800 0.558370 0.611580 0.996053
P2    P     P_3+3 0.628800 0.338360 0.458800 0.976970
P3    P     P_3+3 0.104968 0.280100 0.557366 0.966117
P4    P     P_3+3 0.104900 0.441570 0.388420 0.984034
P5    P     P_3+3 0.099573 0.719898 0.437600 0.962446
P6    P     P_3+3 0.664345 0.422331 0.652110 0.987869
P7    P     P_3+3 0.568600 0.674479 0.541088 0.932684
P8    P     P_3+3 0.536374 0.586944 0.348584 0.970639

loop_
_geom_bond_atom_site_label_1
_geom_bond_atom_site_label_2
_ccdc_geom_bond_type
C57   P5    S    
C19   C24   A    
C28   H52   S    
Ba1   O24   S    
C68   H66   S    
C63   H5    S    
C10   C72   A    
Ba1   O4    S    
C27   O11   D    
O19   P2    D    
C65   H58   S    
C28   H51   S    
C62   O12   S    
C67   H22   S    
O6    P7    D    
C27   N2    Am   
C55   C60   A    
C54   C55   A    
C32   H39   S    
C45   H17   S    
C24   C25   A    
O25   P8    S    
C15   C31   D    
C17   C19   A    
C56   H19   S    
C50   P2    S    
C32   C33   S    
C35   C38   A    
Ba2   O5    S    
C36   C37   A    
C70   H62   S    
O27   P7    S    
C52   C61   S    
Ba1   O15   S    
C63   C68   S    
C21   H31   S    
C44   C50   D    
C67   O9    S    
C2    O13   D    
O24   P4    S    
Ba1   Ba2   S    
O7    P7    S    
C22   C27   A    
C11   C38   A    
C17   C35   A    
Ba2   O24   S    
C64   H60   S    
C9    C13   A    
C43   H40   S    
C6    C7    D    
C1    H7    S    
C51   N6    A    
C21   C22   A    
C44   H47   S    
C67   C71   S    
C68   C69   S    
C40   H12   S    
Ba2   O25   S    
C12   H6    S    
C11   H29   S    
C7    C8    S    
C66   H54   S    
C26   O14   D    
C8    N1    S    
C37   C43   A    
C62   H72   S    
C6    P4    S    
C71   H27   S    
C64   C65   S    
C61   C64   S    
C57   C58   A    
C6    C14   D    
C28   O26   S    
C52   H45   S    
C51   N3    A    
C52   O17   S    
C41   H37   S    
C52   H56   S    
C25   C42   A    
C60   H49   S    
C40   H34   S    
C31   C32   D    
C69   H64   S    
C34   H13   S    
C61   H67   S    
C71   H24   S    
C4    C16   S    
O2    P5    D    
C44   C46   S    
C68   H68   S    
O16   P6    D    
C49   C50   D    
C9    C10   A    
C72   N1    Am   
C17   C20   A    
C13   C39   A    
O3    P5    S    
C40   H23   S    
C3    C5    S    
C18   C37   A    
Ba1   P1    S    
C7    H28   S    
C70   H61   S    
C69   H65   S    
C4    O22   S    
C20   H32   S    
O15   P6    S    
Ba1   O19   S    
C65   C66   S    
C58   C59   A    
C4    H26   S    
C9    C36   A    
C41   C42   A    
C23   O7    S    
C35   C36   A    
Ba2   O23   S    
C64   H59   S    
C5    P8    S    
C29   C30   S    
Ba2   O6    S    
O18   P6    S    
C48   C49   S    
C62   H2    S    
Ba2   P4    S    
C10   C11   A    
C29   H30   S    
Ba1   O1    S    
C66   H53   S    
O17   P1    S    
C1    C12   S    
C16   H48   S    
C38   H33   S    
C42   H38   S    
C70   H63   S    
O1    P1    D    
C39   H36   S    
C31   P1    S    
C23   H8    S    
C45   H16   S    
C29   C33   D    
Ba2   O27   S    
O8    P8    D    
C51   C59   S    
C1    H3    S    
C18   C41   A    
C15   H41   S    
C53   N4    A    
C72   O10   D    
C71   H25   S    
C5    C14   S    
C57   C60   A    
Ba2   O4    S    
C63   H4    S    
C14   H70   S    
C1    H14   S    
C54   C59   A    
C16   H15   S    
C54   H44   S    
C65   H57   S    
C22   C24   A    
C67   H21   S    
O22   P3    S    
C46   P3    S    
Ba1   P2    S    
C53   N5    A    
C2    N1    Am   
C34   H11   S    
O9    P8    S    
Ba1   O20   S    
C48   C53   S    
Ba2   O28   S    
C30   P6    S    
C12   H1    S    
C2    C13   A    
Ba1   O5    S    
C56   H20   S    
C3    C8    D    
N3    N4    A    
C62   C63   S    
C45   C56   S    
Ba1   O27   S    
O20   P3    S    
C3    H35   S    
C12   O18   S    
C34   H10   S    
C26   N2    Am   
C46   C47   S    
C49   H43   S    
C58   H46   S    
C33   N2    S    
C66   H55   S    
C55   P7    S    
O12   P2    S    
O28   P5    S    
C23   C34   S    
C69   C70   S    
C47   H42   S    
C18   C19   A    
O21   P3    D    
C47   C48   D    
O5    P2    S    
C25   C26   A    
C23   H9    S    
C15   C30   S    
C39   C43   A    
C20   C21   A    
C28   C40   S    
C4    H69   S    
C56   H18   S    
N5    N6    A    
C61   H71   S    
O26   P4    S    
O4    P1    S    
C16   H50   S    
O23   P4    D    
C45   O3    S    
