data_mof_unit_67791.cif
_audit_creation_date              2013-03-05T15:41:22-0500
_audit_creation_method            fapswitch 2.2
_symmetry_space_group_name_H-M    P1
_symmetry_Int_Tables_number       1
_space_group_crystal_system       triclinic
_cell_length_a                    8.144209
_cell_length_b                    8.858045
_cell_length_c                    11.046738
_cell_angle_alpha                 96.249958
_cell_angle_beta                  84.484549
_cell_angle_gamma                 93.707053
_cell_volume                      787.343448072

loop_
_atom_site_label
_atom_site_type_symbol
_atom_site_description
_atom_site_fract_x
_atom_site_fract_y
_atom_site_fract_z
_atom_type_partial_charge
O1    O     O_R   0.389250 0.738570 0.508370 -0.592838
O2    O     O_R   0.678390 0.711620 0.486510 -0.577931
C1    C     C_R   0.543372 0.792393 0.498821 0.913223
O3    O     O_R   0.355430 0.513500 0.696140 -0.607599
O4    O     O_R   0.644580 0.486550 0.674270 -0.641275
C2    C     C_R   0.501629 0.508879 0.741254 0.868427
Zn1   Zn    Zn3+2 0.306940 0.517990 0.514600 1.089890
Zn2   Zn    Zn3+2 0.693060 0.482010 0.485400 1.052206
O5    O     O_R   0.321610 0.288380 0.513490 -0.582527
O6    O     O_R   0.610750 0.261430 0.491630 -0.600119
O7    O     O_R   0.355420 0.513450 0.325730 -0.564639
O8    O     O_R   0.644570 0.486500 0.303860 -0.634124
C3    C     C_R   0.456095 0.207903 0.504281 0.956260
C4    C     C_R   0.501793 0.500888 0.258769 0.902217
C5    C     C_3   0.420512 0.660214 0.950396 -0.407248
H1    H     H_    0.497512 0.763070 0.934289 0.260140
C6    C     C_3   0.404503 0.646590 0.093082 -0.190095
H2    H     H_    0.277709 0.407971 0.943214 0.207399
C7    C     C_3   0.405737 0.369561 0.925770 -0.317064
C8    C     C_3   0.693986 0.535528 0.915166 -0.141957
C9    C     C_3   0.506310 0.516004 0.878840 -0.175730
C10   C     C_3   0.506406 0.502731 0.120690 -0.173911
C11   C     C_3   0.446677 0.338265 0.056690 -0.241719
C12   C     C_3   0.688850 0.537447 0.058460 -0.361224
H3    H     H_    0.719636 0.653733 0.096255 0.153306
C13   C     C_2   0.564384 0.955232 0.500552 -0.254889
C14   C     C_2   0.432483 0.045706 0.507088 -0.264839
N1    N     N_2   0.950330 0.457950 0.465890 -0.222801
N2    N     N_2   0.049670 0.542050 0.534110 -0.192976
C15   C     C_2   0.263384 0.699128 0.902085 0.596729
H4    H     H_    0.160510 0.616470 0.899572 0.173334
O9    O     O_2   0.249577 0.825347 0.870254 -0.483785
C16   C     C_2   0.834192 0.470243 0.103304 0.616859
H5    H     H_    0.881537 0.528520 0.184209 0.134047
O10   O     O_2   0.897220 0.354864 0.055694 -0.461719
C17   C     C_2   0.376270 0.230022 0.833999 0.982545
O11   O     O_2   0.234736 0.189321 0.811921 -0.541570
O12   O     O_R   0.505337 0.148541 0.773704 -0.774916
H6    H     H_    0.466594 0.042547 0.740582 0.351278
C18   C     C_2   0.579842 0.223973 0.061405 0.972454
O13   O     O_2   0.626491 0.206616 0.160860 -0.566570
O14   O     O_R   0.647366 0.136564 0.958630 -0.754038
H7    H     H_    0.743655 0.077451 0.975591 0.400142
C19   C     C_2   0.737121 0.014193 0.503924 1.045303
O15   O     O_2   0.836018 0.982761 0.416035 -0.570535
O16   O     O_R   0.785472 0.101496 0.609351 -0.782959
H8    H     H_    0.907078 0.132980 0.605537 0.361759
C20   C     C_2   0.256804 0.991056 0.521916 0.593954
H9    H     H_    0.182569 0.026343 0.605514 0.083591
O17   O     O_2   0.192796 0.915205 0.438327 -0.448346
C21   C     C_2   0.004199 0.333416 0.385631 1.155141
O18   O     O_2   0.959315 0.316836 0.283255 -0.573090
O19   O     O_R   0.067785 0.211879 0.429029 -0.794063
H10   H     H_    0.087404 0.126387 0.361739 0.409022
C22   C     C_2   0.998404 0.666559 0.612737 1.130086
O20   O     O_2   0.046919 0.682374 0.713654 -0.607298
O21   O     O_R   0.940012 0.789360 0.567576 -0.744654
H11   H     H_    0.940760 0.881209 0.630082 0.329795
C23   C     C_2   0.476337 0.794090 0.161449 0.900076
O22   O     O_2   0.426572 0.831099 0.267272 -0.564531
O23   O     O_R   0.605849 0.882159 0.107928 -0.808922
H12   H     H_    0.669772 0.945085 0.171680 0.389078
C24   C     C_2   0.223036 0.639455 0.140664 0.913226
O24   O     O_2   0.156192 0.521160 0.169018 -0.634674
O25   O     O_R   0.133408 0.771255 0.152734 -0.726510
H13   H     H_    0.017238 0.756991 0.192867 0.352403
C25   C     C_2   0.298151 0.255599 0.122117 1.003758
O26   O     O_2   0.303809 0.228322 0.227551 -0.606811
O27   O     O_R   0.165716 0.192225 0.058494 -0.675224
H14   H     H_    0.086247 0.125228 0.108397 0.401713
C26   C     C_2   0.799120 0.410213 0.846832 0.530786
H15   H     H_    0.742755 0.304305 0.811068 0.205691
O28   O     O_2   0.948953 0.427497 0.827976 -0.546325
C27   C     C_2   0.777205 0.689418 0.881411 1.000527
O29   O     O_2   0.891900 0.748637 0.936762 -0.569643
O30   O     O_R   0.718942 0.767002 0.791679 -0.826740
H16   H     H_    0.763468 0.876647 0.794999 0.372065

loop_
_geom_bond_atom_site_label_1
_geom_bond_atom_site_label_2
_geom_bond_distance
_ccdc_geom_bond_type
C14   C20   1.480172 S    
O4    Zn2   2.082305 S    
C7    C11   1.572122 S    
C22   O20   1.209148 D    
C24   O25   1.404003 S    
C8    C26   1.533424 S    
C5    C6    1.586156 S    
Zn1   N2    2.107825 S    
C6    C10   1.635745 S    
C11   C18   1.538894 S    
C12   C16   1.506304 S    
C16   H5    1.074235 S    
Zn2   O8    2.085882 S    
O23   H12   1.012510 S    
C26   H15   1.070232 S    
C4    C10   1.524015 S    
C18   O14   1.390882 S    
O2    C1    1.338421 A    
C13   C14   1.373058 D    
C12   H3    1.091466 S    
C8    C27   1.548946 S    
C23   O22   1.216950 D    
O1    Zn1   2.030493 S    
O19   H10   1.010853 S    
C6    C24   1.519964 S    
C25   O26   1.220686 D    
C15   O9    1.223027 D    
C20   O17   1.219838 D    
C16   O10   1.218018 D    
N1    N2    1.301721 D    
O21   H11   1.008269 S    
O27   H14   1.013887 S    
C27   O30   1.400331 S    
C6    C23   1.546276 S    
O3    Zn1   2.085883 S    
C20   H9    1.081808 S    
O4    C2    1.332059 A    
C17   O12   1.388640 S    
C18   O13   1.224576 D    
C7    C9    1.596813 S    
O8    C4    1.326952 A    
Zn1   O7    2.082304 S    
O1    C1    1.312281 A    
C7    C17   1.532547 S    
C22   O21   1.374398 S    
C15   H4    1.076816 S    
Zn2   N1    2.107825 S    
N1    C21   1.403665 S    
C10   C12   1.601722 S    
C23   O23   1.394574 S    
O3    C2    1.338868 A    
O14   H7    1.013390 S    
C13   C19   1.471087 S    
C5    H1    1.093158 S    
C8    C12   1.577731 S    
C26   O28   1.220577 D    
C5    C9    1.591945 S    
O12   H6    1.011959 S    
O30   H16   1.012629 S    
C5    C15   1.506518 S    
Zn2   O6    2.030492 S    
O25   H13   1.011807 S    
C27   O29   1.223995 D    
C11   C25   1.534412 S    
O7    C4    1.345490 A    
Zn1   O5    2.043739 S    
H2    C7    1.110437 S    
O5    C3    1.334882 A    
O16   H8    1.009573 S    
C17   O11   1.224460 D    
O2    Zn2   2.043739 S    
N2    C22   1.387949 S    
C21   O19   1.374491 S    
C8    C9    1.611142 S    
C10   C11   1.615264 S    
C2    C9    1.518346 S    
C1    C13   1.439783 S    
C3    C14   1.440492 S    
C19   O15   1.220119 D    
C21   O18   1.212652 D    
C19   O16   1.400764 S    
C24   O24   1.207231 D    
C25   O27   1.397834 S    
O6    C3    1.316874 A    
