data_mof_unit_20795.cif
_audit_creation_date              2012-10-26T20:51:13-0400
_audit_creation_method            fapswitch 2.2
_symmetry_space_group_name_H-M    P1
_symmetry_Int_Tables_number       1
_space_group_crystal_system       triclinic
_cell_length_a                    12.982551
_cell_length_b                    10.859705
_cell_length_c                    9.538171
_cell_angle_alpha                 90.000444
_cell_angle_beta                  95.886218
_cell_angle_gamma                 90.077645
_cell_volume                      1337.66356088

loop_
_atom_site_label
_atom_site_type_symbol
_atom_type_description
_atom_site_fract_x
_atom_site_fract_y
_atom_site_fract_z
_atom_type_partial_charge
C1    C     C_R   0.500125 0.262688 0.499903 0.586748
C2    C     C_R   0.507875 0.935426 0.371883 -0.146457
C3    C     C_R   0.501591 0.869875 0.498579 0.013145
C4    C     C_R   0.300670 0.499702 0.474139 0.578222
C5    C     C_R   0.496088 0.937868 0.620722 0.007154
C6    C     C_3   0.487249 0.928933 0.775395 -0.091838
C7    C     C_3   0.486225 0.071148 0.774833 0.269794
C8    C     C_R   0.550651 0.590411 0.080628 0.147689
C9    C     C_R   0.442044 0.417943 0.066361 0.020805
C10   C     C_R   0.442018 0.417959 0.917414 0.063198
C11   C     C_R   0.550531 0.590477 0.933166 0.129663
C12   C     C_R   0.027352 0.456907 0.559469 0.068070
C13   C     C_3   0.663295 0.619215 0.942480 -0.269008
C14   C     C_3   0.663666 0.618418 0.101495 -0.274460
C15   C     C_R   0.500435 0.737294 0.499923 0.552772
C16   C     C_R   0.699132 0.493500 0.526218 0.581620
C17   C     C_R   0.811420 0.478400 0.541432 -0.041701
C18   C     C_R   0.188121 0.501993 0.460755 0.003532
C19   C     C_R   0.026762 0.574645 0.341076 -0.127879
C20   C     C_R   0.133721 0.563737 0.347574 -0.167504
C21   C     C_R   0.135129 0.447337 0.565697 0.413906
C22   C     C_2   0.810317 0.334612 0.753427 0.288471
C23   C     C_R   0.973383 0.522302 0.446708 -0.058157
C24   C     C_2   0.387340 0.871229 0.809773 0.210742
C25   C     C_R   0.866633 0.534428 0.440417 -0.158122
C26   C     C_R   0.864212 0.408242 0.651904 -0.022673
C27   C     C_R   0.972379 0.401560 0.662403 0.382566
C28   C     C_R   0.496167 0.062071 0.620729 0.079509
C29   C     C_R   0.501326 0.130094 0.498559 0.020114
C30   C     C_R   0.507715 0.064571 0.371874 -0.147623
Cu1   Cu    Cu3+1 0.499990 0.499980 0.640670 1.052329
Cu2   Cu    Cu3+1 0.500010 0.500020 0.359330 0.965802
F1    F     F_    0.574245 0.120962 0.847512 -0.601663
F2    F     F_    0.023036 0.335916 0.769677 -0.574244
F3    F     F_    0.188869 0.383669 0.672099 -0.569400
H1    H     H_    0.826221 0.588274 0.356351 0.129071
H2    H     H_    0.985830 0.624346 0.253901 0.140350
H3    H     H_    0.174242 0.606470 0.266434 0.155167
H4    H     H_    0.512354 0.112333 0.273021 0.158436
H5    H     H_    0.512706 0.887688 0.273053 0.141940
H6    H     H_    0.845906 0.321975 0.860463 0.159127
H7    H     H_    0.388560 0.806122 0.896184 0.113379
H8    H     H_    0.557285 0.888176 0.834389 0.124532
H9    H     H_    0.412807 0.115192 0.798970 0.143380
H10   H     H_    0.396740 0.349993 0.115934 0.132025
H11   H     H_    0.396609 0.350138 0.855183 0.163834
H12   H     H_    0.709861 0.543245 0.903174 0.164518
H13   H     H_    0.678602 0.711657 0.899156 0.130339
H14   H     H_    0.709864 0.541226 0.151619 0.161135
H15   H     H_    0.679733 0.710266 0.150423 0.129177
N1    N     N_R   0.500660 0.500930 0.148010 -0.237638
N2    N     N_R   0.500660 0.500890 0.852110 -0.232465
O1    O     O_R   0.500000 0.319640 0.618810 -0.450300
O2    O     O_2   0.304883 0.897248 0.742956 -0.473150
O3    O     O_R   0.500010 0.319680 0.381230 -0.521742
O4    O     O_R   0.348990 0.499960 0.599490 -0.447868
O5    O     O_R   0.349000 0.500000 0.361910 -0.520387
O6    O     O_R   0.499990 0.680320 0.618770 -0.512603
O7    O     O_R   0.500000 0.680360 0.381190 -0.515509
O8    O     O_R   0.651000 0.500000 0.638090 -0.481975
O9    O     O_R   0.651010 0.500040 0.400510 -0.511116
O10   O     O_2   0.729170 0.281348 0.716838 -0.426780

loop_
_geom_bond_atom_site_label_1
_geom_bond_atom_site_label_2
_ccdc_geom_bond_type
C4    O5    A    
Cu2   O9    S    
C13   H13   S    
C19   C23   A    
Cu2   N1    S    
C9    H10   S    
C6    C7    S    
C21   F3    S    
Cu1   O4    S    
C22   O10   D    
C5    C28   A    
C20   H3    S    
C9    C10   A    
Cu2   O3    S    
C19   C20   A    
C9    N1    A    
Cu1   N2    S    
C2    C30   A    
C10   N2    A    
C7    C28   S    
C1    C29   S    
C2    C3    A    
C1    O3    A    
C4    C18   S    
C7    H9    S    
Cu1   O1    S    
C18   C21   A    
C11   C13   S    
C8    N1    A    
C26   C27   A    
C14   H15   S    
Cu2   O5    S    
C8    C11   A    
C17   C26   A    
Cu2   O7    S    
Cu1   O6    S    
C6    C24   S    
C28   C29   A    
C30   H4    S    
C18   C20   A    
C6    H8    S    
C23   C25   A    
C27   F2    S    
C16   O8    A    
C5    C6    S    
C15   O6    A    
C22   H6    S    
C16   O9    A    
C7    F1    S    
C12   C27   A    
C24   O2    D    
C14   H14   S    
C2    H5    S    
C10   H11   S    
C24   H7    S    
C22   C26   S    
C12   C23   A    
C13   H12   S    
C1    O1    A    
C16   C17   S    
C3    C15   S    
C8    C14   S    
C11   N2    A    
C19   H2    S    
Cu1   O8    S    
C25   H1    S    
C13   C14   S    
C15   O7    A    
C12   C21   A    
C4    O4    A    
C29   C30   A    
Cu1   Cu2   S    
C17   C25   A    
C3    C5    A    
