data_mof_unit_7605.cif
_audit_creation_date              2012-12-10T17:09:53-0500
_audit_creation_method            fapswitch 2.2
_symmetry_space_group_name_H-M    P1
_symmetry_Int_Tables_number       1
_space_group_crystal_system       triclinic
_cell_length_a                    10.780842
_cell_length_b                    13.033151
_cell_length_c                    11.723075
_cell_angle_alpha                 100.348077
_cell_angle_beta                  94.292614
_cell_angle_gamma                 91.614121
_cell_volume                      1614.397671

loop_
_atom_site_label
_atom_site_type_symbol
_atom_type_description
_atom_site_fract_x
_atom_site_fract_y
_atom_site_fract_z
_atom_type_partial_charge
C1    C     C_R   0.498604 0.298603 0.477587 0.798655
C2    C     C_R   0.067382 0.416936 0.556103 0.093799
C3    C     C_R   0.128296 0.487505 0.497721 -0.093245
C4    C     C_R   0.060528 0.552295 0.435959 -0.198644
C5    C     C_R   0.932736 0.552719 0.436555 -0.218292
C6    C     C_R   0.870683 0.488378 0.498932 -0.086857
C7    C     C_R   0.507251 0.814552 0.534909 -0.096387
C8    C     C_R   0.501932 0.184138 0.462767 -0.148474
C9    C     C_R   0.516066 0.011519 0.346363 -0.315029
C10   C     C_R   0.503235 0.119590 0.351388 0.467723
C11   C     C_R   0.505061 0.139649 0.563302 -0.341595
C12   C     C_R   0.262378 0.495635 0.499303 0.788136
C13   C     C_R   0.511639 0.032122 0.556640 0.140082
C14   C     C_R   0.515780 0.968064 0.446584 0.073384
C15   C     C_R   0.516106 0.860212 0.436779 -0.240077
C16   C     C_R   0.503890 0.877743 0.644473 -0.274504
C17   C     C_R   0.511105 0.986465 0.657076 0.269737
C18   C     C_R   0.361229 0.424565 0.022084 -0.308258
C19   C     C_R   0.374559 0.429310 0.144151 0.487438
C20   C     C_R   0.564167 0.529329 0.156434 0.013023
C21   C     C_R   0.552555 0.526875 0.033993 -0.076576
C22   C     C_R   0.449775 0.473438 0.966368 -0.049471
C23   C     C_R   0.502496 0.700945 0.521831 0.813545
C24   C     C_R   0.437627 0.469499 0.844143 -0.074134
C25   C     C_R   0.622606 0.575074 0.855548 0.527712
C26   C     C_R   0.641597 0.575866 0.977644 0.214535
C27   C     C_R   0.737317 0.496188 0.499725 0.794593
C28   C     C_R   0.133048 0.343337 0.609624 -0.192808
C29   C     C_R   0.070495 0.274127 0.665538 -0.144364
C30   C     C_R   0.941672 0.274943 0.666848 -0.143867
C31   C     C_R   0.874598 0.344909 0.612159 -0.169910
C32   C     C_R   0.936268 0.417574 0.557072 0.101306
Cu1   Cu    Cu3+1 0.509250 0.507730 0.615930 0.958713
Cu2   Cu    Cu3+1 0.490750 0.492270 0.384070 0.964908
H1    H     H_    0.107205 0.604872 0.389467 0.156899
H2    H     H_    0.499698 0.189263 0.647256 0.211159
H3    H     H_    0.359849 0.425889 0.792097 0.154635
H4    H     H_    0.282439 0.382265 0.970167 0.154189
H5    H     H_    0.642384 0.571309 0.209467 0.172664
H6    H     H_    0.232457 0.336554 0.606708 0.139836
H7    H     H_    0.122059 0.218476 0.706394 0.134712
H8    H     H_    0.893249 0.219921 0.708746 0.129801
H9    H     H_    0.774404 0.339439 0.611684 0.149734
H10   H     H_    0.882086 0.605535 0.390384 0.149931
H11   H     H_    0.519843 0.811680 0.351727 0.165313
H12   H     H_    0.495683 0.842946 0.720621 0.148842
H13   H     H_    0.524165 0.959679 0.264350 0.124080
N1    N     N_R   0.523180 0.519350 0.790130 -0.228548
N2    N     N_R   0.476820 0.480650 0.209890 -0.213842
O1    O     O_R   0.506570 0.354460 0.582000 -0.611306
O2    O     O_R   0.490940 0.341410 0.386200 -0.539226
O3    O     O_R   0.327470 0.506530 0.597920 -0.594121
O4    O     O_R   0.311840 0.493480 0.402120 -0.558358
O5    O     O_R   0.509060 0.658590 0.613800 -0.565147
O6    O     O_R   0.493430 0.645540 0.418000 -0.592224
O7    O     O_R   0.688160 0.506520 0.597880 -0.526487
O8    O     O_R   0.672530 0.493470 0.402080 -0.595431
N3    N     N_2   0.514362 0.048516 0.770390 -0.445227
H14   H     H_    0.473054 0.011004 0.828862 0.241731
C33   C     C_3   0.636616 0.092317 0.816544 -0.725304
H15   H     H_    0.628976 0.146097 0.900353 0.235856
H16   H     H_    0.678204 0.137245 0.755855 0.233110
H17   H     H_    0.699160 0.029203 0.832286 0.220768
O9    O     O_3   0.496483 0.165590 0.252052 -0.568044
C34   C     C_3   0.452228 0.095939 0.148933 0.046582
H18   H     H_    0.373341 0.043961 0.163640 0.138149
H19   H     H_    0.529805 0.048716 0.113845 0.152055
C35   C     C_3   0.404124 0.157107 0.057376 -0.800119
H20   H     H_    0.475069 0.216842 0.045411 0.262522
H21   H     H_    0.380048 0.103369 0.973893 0.200255
H22   H     H_    0.317379 0.194446 0.082941 0.240770
O10   O     O_3   0.712108 0.620225 0.799311 -0.556549
C36   C     C_3   0.715886 0.730007 0.831805 0.098027
H23   H     H_    0.765713 0.755709 0.918950 0.183564
H24   H     H_    0.620986 0.761102 0.832746 0.116933
C37   C     C_3   0.788019 0.776917 0.745453 -0.779143
H25   H     H_    0.743909 0.751744 0.655844 0.252121
H26   H     H_    0.789924 0.863342 0.767782 0.191749
H27   H     H_    0.885191 0.750768 0.748250 0.242565
O11   O     O_3   0.742957 0.629862 0.042900 -0.607877
C38   C     C_3   0.848833 0.568903 0.029578 0.067823
H28   H     H_    0.865333 0.542851 0.936343 0.178827
H29   H     H_    0.838595 0.499186 0.071362 0.143588
C39   C     C_3   0.962430 0.634780 0.088378 -0.790778
H30   H     H_    0.955326 0.653503 0.183854 0.240607
H31   H     H_    0.048266 0.591883 0.070569 0.197772
H32   H     H_    0.969018 0.708597 0.053912 0.249748
N4    N     N_2   0.282643 0.379848 0.199633 -0.396723
H33   H     H_    0.312403 0.322334 0.243515 0.290556
C40   C     C_3   0.154379 0.368898 0.151371 -0.756992
H34   H     H_    0.093719 0.351423 0.218550 0.248198
H35   H     H_    0.142273 0.303875 0.075527 0.212536
H36   H     H_    0.124887 0.442599 0.125180 0.238439

loop_
_geom_bond_atom_site_label_1
_geom_bond_atom_site_label_2
_ccdc_geom_bond_type
C6    C32   A    
C21   C26   A    
C1    C8    S    
C36   H23   S    
C37   H27   S    
C38   H28   S    
Cu1   O3    S    
Cu2   O2    S    
C20   N2    A    
C31   H9    S    
C40   H36   S    
C33   H17   S    
C33   H16   S    
C28   C29   A    
C37   H26   S    
C8    C11   A    
C30   C31   A    
O11   C38   S    
C28   H6    S    
N3    C33   S    
C2    C32   A    
C18   C19   A    
C3    C12   S    
Cu1   O1    S    
C38   H29   S    
C6    C27   S    
C16   C17   A    
C34   H19   S    
Cu2   O8    S    
C39   H32   S    
C9    C10   A    
C12   O4    A    
C17   N3    S    
N4    H33   S    
Cu1   O7    S    
C7    C15   A    
C4    H1    S    
Cu2   O6    S    
C13   C14   A    
C36   H24   S    
C12   O3    A    
C24   H3    S    
C24   N1    A    
C37   H25   S    
C19   N4    S    
C27   O8    A    
C16   H12   S    
C20   H5    S    
C27   O7    A    
C35   H20   S    
C25   C26   A    
C26   O11   S    
C33   H15   S    
C9    C14   A    
C29   C30   A    
C19   N2    A    
C40   H35   S    
C31   C32   A    
C34   C35   S    
Cu1   Cu2   S    
C25   O10   S    
C39   H30   S    
C1    O2    A    
C25   N1    A    
C8    C10   A    
C7    C16   A    
C5    H10   S    
N4    C40   S    
C9    H13   S    
C36   C37   S    
C22   C24   A    
C15   H11   S    
C3    C4    A    
C38   C39   S    
C23   O5    A    
C1    O1    A    
Cu1   O5    S    
C11   H2    S    
Cu2   N2    S    
C29   H7    S    
C18   C22   A    
C10   O9    S    
C39   H31   S    
O10   C36   S    
C23   O6    A    
C13   C17   A    
O9    C34   S    
C2    C3    A    
N3    H14   S    
C11   C13   A    
C40   H34   S    
C5    C6    A    
C35   H22   S    
C7    C23   S    
C18   H4    S    
C4    C5    A    
C20   C21   A    
Cu2   O4    S    
C35   H21   S    
C34   H18   S    
Cu1   N1    S    
C14   C15   A    
C30   H8    S    
C2    C28   A    
C21   C22   A    
