data_mof_unit_9244.cif
_audit_creation_date              2013-03-05T16:34:39-0500
_audit_creation_method            fapswitch 2.2
_symmetry_space_group_name_H-M    P1
_symmetry_Int_Tables_number       1
_space_group_crystal_system       triclinic
_cell_length_a                    10.833187
_cell_length_b                    9.092181
_cell_length_c                    7.800863
_cell_angle_alpha                 90.02324
_cell_angle_beta                  88.743234
_cell_angle_gamma                 90.276874
_cell_volume                      768.170081672

loop_
_atom_site_label
_atom_site_type_symbol
_atom_site_description
_atom_site_fract_x
_atom_site_fract_y
_atom_site_fract_z
_atom_type_partial_charge
O1    O     O_R   0.500000 0.288390 0.642760 -0.556735
O2    O     O_R   0.500000 0.711610 0.642760 -0.548823
O3    O     O_R   0.500000 0.288370 0.357190 -0.577042
O4    O     O_R   0.500000 0.711630 0.357190 -0.584171
C1    C     C_R   0.499847 0.220079 0.499971 0.846724
C2    C     C_R   0.498767 0.779896 0.500024 0.886838
O5    O     O_R   0.319650 0.500000 0.642810 -0.562063
O6    O     O_R   0.680350 0.500000 0.642810 -0.582404
O7    O     O_R   0.319630 0.500000 0.357240 -0.562529
O8    O     O_R   0.680370 0.500000 0.357240 -0.596904
C3    C     C_R   0.261354 0.487312 0.503368 0.793290
C4    C     C_R   0.738143 0.510127 0.498236 0.845798
Cu1   Cu    Cu3+1 0.500000 0.500000 0.669080 1.107287
Cu2   Cu    Cu3+1 0.500000 0.500000 0.330920 1.073832
H1    H     H_    0.111493 0.386029 0.258262 0.214090
H2    H     H_    0.888776 0.409685 0.248719 0.178245
C5    C     C_R   0.101064 0.511268 0.831279 0.359320
C6    C     C_R   0.886711 0.671182 0.762787 0.354735
C7    C     C_R   0.048109 0.602643 0.956954 -0.295260
C8    C     C_R   0.944878 0.686459 0.920640 -0.232015
H3    H     H_    0.085671 0.607860 0.083884 0.199793
H4    H     H_    0.908786 0.761210 0.017282 0.210882
N1    N     N_1   0.500000 0.500000 0.076820 0.003480
N2    N     N_1   0.500000 0.500000 0.923180 0.008617
C9    C     C_R   0.937103 0.572216 0.638572 -0.060539
C10   C     C_R   0.056947 0.518110 0.661819 -0.039503
C11   C     C_R   0.125929 0.473387 0.513819 -0.044876
C12   C     C_R   0.872393 0.519905 0.494889 -0.038414
C13   C     C_R   0.063114 0.433946 0.366429 -0.186200
C14   C     C_R   0.936493 0.450991 0.359623 -0.198751
C15   C     C_1   0.499265 0.065379 0.500003 -0.109447
C16   C     C_1   0.498832 0.934605 0.500043 -0.075957
N3    N     N_R   0.181343 0.394605 0.882873 0.130199
O9    O     O_R   0.251445 0.410660 0.014496 -0.379412
O10   O     O_R   0.179370 0.268238 0.804408 -0.354516
N4    N     N_R   0.787664 0.769178 0.722945 0.120235
O11   O     O_R   0.716386 0.821067 0.844855 -0.349504
O12   O     O_R   0.781929 0.826142 0.570322 -0.398300

loop_
_geom_bond_atom_site_label_1
_geom_bond_atom_site_label_2
_geom_bond_distance
_ccdc_geom_bond_type
Cu2   N1    1.982199 S    
C2    C16   1.406640 S    
O7    Cu2   1.960256 S    
C13   C14   1.383362 A    
O3    Cu2   1.935144 S    
O6    C4    1.280996 A    
C11   C13   1.394719 A    
C7    C8    1.390669 A    
C3    C11   1.472414 S    
N1    N2    1.198525 T    
N4    O12   1.301408 A    
N3    O9    1.298194 A    
C5    N3    1.438079 S    
Cu1   Cu2   2.637941 S    
C9    C12   1.415892 A    
O5    C3    1.274636 A    
O7    C3    1.295810 A    
C10   C11   1.421773 A    
O2    C2    1.275439 A    
C6    C9    1.423883 A    
O8    C4    1.280431 A    
C4    C12   1.456308 S    
O1    C1    1.275146 A    
C5    C10   1.416992 A    
C12   C14   1.399908 A    
N4    O11   1.301608 A    
C7    H3    1.079683 S    
C8    H4    1.082762 S    
H1    C13   1.076564 S    
C6    C8    1.402042 A    
O4    Cu2   1.934978 S    
O1    Cu1   1.934839 S    
H2    C14   1.083617 S    
O6    Cu1   1.960008 S    
O3    C1    1.275379 A    
O5    Cu1   1.968950 S    
O4    C2    1.275068 A    
O8    Cu2   1.969212 S    
O2    Cu1   1.935004 S    
C5    C7    1.399899 A    
N3    O10   1.301910 A    
C9    C10   1.406066 A    
C6    N4    1.437320 S    
C15   C16   1.189013 T    
Cu1   N2    1.982199 S    
C1    C15   1.406540 S    
