data_mof_unit_52730.cif
_audit_creation_date              2012-12-10T18:42:34-0500
_audit_creation_method            fapswitch 2.2
_symmetry_space_group_name_H-M    P1
_symmetry_Int_Tables_number       1
_space_group_crystal_system       triclinic
_cell_length_a                    8.588348
_cell_length_b                    10.580582
_cell_length_c                    10.018044
_cell_angle_alpha                 90.713046
_cell_angle_beta                  97.874469
_cell_angle_gamma                 91.584482
_cell_volume                      901.287004237

loop_
_atom_site_label
_atom_site_type_symbol
_atom_type_description
_atom_site_fract_x
_atom_site_fract_y
_atom_site_fract_z
_atom_type_partial_charge
C1    C     C_R   0.499498 0.260601 0.499290 0.926325
C2    C     C_R   0.621093 0.068815 0.581020 -0.223975
C3    C     C_R   0.501541 0.871566 0.501463 0.018599
C4    C     C_R   0.501595 0.127894 0.498543 0.007838
C5    C     C_R   0.583436 0.590448 0.082432 -0.026580
C6    C     C_R   0.418025 0.408727 0.917613 -0.029281
C7    C     C_R   0.575823 0.594257 0.938845 0.005598
C8    C     C_R   0.412426 0.412613 0.059730 -0.018344
C9    C     C_2   0.989029 0.333109 0.398591 0.901347
C10   C     C_2   0.026922 0.640206 0.624228 0.954179
C11   C     C_R   0.689576 0.682243 0.164881 0.129795
C12   C     C_R   0.501596 0.739198 0.500849 0.880430
C13   C     C_R   0.848270 0.653657 0.200153 -0.118436
C14   C     C_R   0.955092 0.745295 0.262606 -0.085926
C15   C     C_R   0.904410 0.866131 0.290177 -0.103787
C16   C     C_R   0.747208 0.896111 0.252627 -0.158315
C17   C     C_R   0.640549 0.805191 0.188328 -0.058775
C18   C     C_R   0.327180 0.307339 0.835893 0.144735
C19   C     C_R   0.388729 0.185986 0.829637 -0.094838
C20   C     C_R   0.296610 0.086747 0.763598 -0.111389
C21   C     C_R   0.141713 0.107300 0.706590 -0.119262
C22   C     C_R   0.078004 0.226332 0.717844 -0.164085
C23   C     C_R   0.202500 0.493346 0.466198 0.945285
C24   C     C_R   0.169844 0.325599 0.783177 -0.092952
C25   C     C_2   0.641095 0.706445 0.878968 0.954494
C26   C     C_2   0.299202 0.327316 0.112661 0.997683
C27   C     C_R   0.797621 0.504619 0.534324 0.954638
C28   C     C_2   0.040199 0.461193 0.459011 -0.293308
C29   C     C_2   0.961243 0.525697 0.544920 -0.336037
C30   C     C_R   0.382353 0.060004 0.417795 -0.149904
C31   C     C_R   0.622076 0.938984 0.581249 -0.215428
C32   C     C_R   0.382633 0.930531 0.418787 -0.218795
H1    H     H_    0.288028 0.106494 0.357114 0.227002
H2    H     H_    0.708010 0.990002 0.272101 0.158161
H3    H     H_    0.519763 0.830307 0.156933 0.168766
H4    H     H_    0.507827 0.168645 0.875283 0.134962
H5    H     H_    0.345060 0.993921 0.756938 0.178418
H6    H     H_    0.070185 0.030789 0.655519 0.141652
H7    H     H_    0.956932 0.241668 0.677373 0.155570
H8    H     H_    0.117523 0.415903 0.795574 0.189890
H9    H     H_    0.633270 0.895800 0.857838 0.328952
H10   H     H_    0.068110 0.281825 0.100855 0.361366
H11   H     H_    0.716762 0.891300 0.641176 0.173635
H12   H     H_    0.290438 0.876472 0.356705 0.153399
H13   H     H_    0.712820 0.122962 0.643495 0.149661
H14   H     H_    0.828189 0.189000 0.370605 0.329454
H15   H     H_    0.141900 0.809093 0.625693 0.335246
H16   H     H_    0.889625 0.561110 0.177184 0.167246
H17   H     H_    0.077355 0.722547 0.288733 0.166357
H18   H     H_    0.987142 0.936851 0.339232 0.151834
N1    N     N_R   0.499960 0.499970 0.857200 -0.139890
N2    N     N_R   0.500040 0.500030 0.142800 -0.143449
O1    O     O_R   0.499990 0.316750 0.614620 -0.639286
O2    O     O_R   0.843035 0.276952 0.412423 -0.813999
O3    O     O_2   0.027681 0.643990 0.746131 -0.564970
O4    O     O_R   0.095457 0.739771 0.560292 -0.853656
O5    O     O_2   0.759079 0.698999 0.824882 -0.582333
O6    O     O_R   0.570460 0.822797 0.890337 -0.838781
O7    O     O_2   0.339523 0.223219 0.152753 -0.639017
O8    O     O_R   0.140536 0.357781 0.093088 -0.799456
O9    O     O_R   0.500010 0.683250 0.385380 -0.639947
O10   O     O_R   0.499990 0.316780 0.385290 -0.565194
O11   O     O_R   0.500010 0.683220 0.614710 -0.600051
O12   O     O_R   0.271750 0.499990 0.587840 -0.626345
O13   O     O_R   0.728250 0.500010 0.412160 -0.591145
O14   O     O_R   0.271750 0.500010 0.358510 -0.596374
O15   O     O_R   0.728250 0.499990 0.641490 -0.583672
O16   O     O_2   0.082099 0.271724 0.344877 -0.662248
Zn1   Zn    Zn3+2 0.500000 0.499980 0.653120 1.000953
Zn2   Zn    Zn3+2 0.500000 0.500020 0.346880 1.005760

loop_
_geom_bond_atom_site_label_1
_geom_bond_atom_site_label_2
_ccdc_geom_bond_type
O9    Zn2   S    
C13   H16   S    
C2    C4    A    
C5    N2    A    
C23   C28   S    
C10   O3    D    
C6    N1    A    
C27   C29   S    
C8    C26   S    
C26   O7    D    
C8    N2    A    
C19   C20   A    
C7    C25   S    
C1    C4    S    
O1    Zn1   S    
C1    O10   A    
H14   O2    S    
C32   H12   S    
C9    O16   D    
C7    N1    A    
C13   C14   A    
C3    C31   A    
C20   H5    S    
C11   C13   A    
C10   C29   S    
O14   Zn2   S    
C31   H11   S    
C27   O13   A    
C22   H7    S    
C23   O14   A    
C17   H3    S    
C28   C29   D    
C24   H8    S    
H9    O6    S    
C5    C11   S    
C19   H4    S    
C12   O11   A    
C2    H13   S    
C3    C32   A    
C6    C18   S    
C22   C24   A    
C14   H17   S    
N2    Zn2   S    
C25   O6    S    
C15   C16   A    
C30   C32   A    
C16   C17   A    
C23   O12   A    
C25   O5    D    
C27   O15   A    
C20   C21   A    
O10   Zn2   S    
C18   C24   A    
C10   O4    S    
C15   H18   S    
H10   O8    S    
C5    C7    A    
C18   C19   A    
C1    O1    A    
C14   C15   A    
C2    C31   A    
C6    C8    A    
C3    C12   S    
N1    Zn1   S    
C30   H1    S    
C16   H2    S    
O13   Zn2   S    
C21   C22   A    
C12   O9    A    
C26   O8    S    
C9    O2    S    
O12   Zn1   S    
C4    C30   A    
C21   H6    S    
O11   Zn1   S    
C9    C28   S    
H15   O4    S    
O15   Zn1   S    
C11   C17   A    
