data_mof_unit_65273.cif
_audit_creation_date              2012-12-10T18:51:07-0500
_audit_creation_method            fapswitch 2.2
_symmetry_space_group_name_H-M    P1
_symmetry_Int_Tables_number       1
_space_group_crystal_system       triclinic
_cell_length_a                    37.082806
_cell_length_b                    30.383169
_cell_length_c                    21.707096
_cell_angle_alpha                 90.072559
_cell_angle_beta                  125.5185
_cell_angle_gamma                 89.873007
_cell_volume                      19906.3801786

loop_
_atom_site_label
_atom_site_type_symbol
_atom_type_description
_atom_site_fract_x
_atom_site_fract_y
_atom_site_fract_z
_atom_type_partial_charge
C1    C     C_R   0.413929 0.500030 0.912741 0.867143
C2    C     C_R   0.702557 0.523624 0.159678 -0.175536
C3    C     C_R   0.500109 0.134357 0.500196 -0.032364
C4    C     C_R   0.000237 0.726042 0.500361 0.110612
C5    C     C_R   0.500237 0.226045 0.500362 0.110623
C6    C     C_R   0.465355 0.702754 0.494489 -0.208889
C7    C     C_R   0.534154 0.702775 0.505723 -0.209842
C8    C     C_R   0.965356 0.202756 0.494481 -0.208892
C9    C     C_R   0.034157 0.202774 0.505723 -0.209840
C10   C     C_R   0.466425 0.657205 0.499451 0.134039
C11   C     C_R   0.533397 0.657228 0.501097 0.135263
C12   C     C_R   0.966424 0.157206 0.499443 0.134042
C13   C     C_R   0.797544 0.021899 0.843150 -0.178197
C14   C     C_R   0.033398 0.157228 0.501096 0.135264
C15   C     C_R   0.499927 0.633935 0.500184 -0.119931
C16   C     C_R   0.999927 0.133935 0.500180 -0.119931
C17   C     C_R   0.018815 0.296914 0.469863 -0.210827
C18   C     C_R   0.980076 0.297210 0.528869 -0.210547
C19   C     C_R   0.518807 0.796913 0.469854 -0.210830
C20   C     C_R   0.480073 0.797211 0.528868 -0.210545
C21   C     C_R   0.499639 0.725813 0.499871 0.065029
C22   C     C_R   0.999642 0.225813 0.499870 0.065029
C23   C     C_R   0.999690 0.365927 0.499579 -0.126566
C24   C     C_R   0.202559 0.023602 0.159666 -0.175513
C25   C     C_R   0.499686 0.865927 0.499575 -0.126572
C26   C     C_R   0.021799 0.342445 0.473921 0.134013
C27   C     C_R   0.977326 0.342768 0.524920 0.134182
C28   C     C_R   0.521792 0.842444 0.473912 0.134018
C29   C     C_R   0.477323 0.842768 0.524918 0.134177
C30   C     C_2   0.534434 0.521865 0.749925 -0.148591
C31   C     C_2   0.464842 0.479379 0.249206 -0.146207
C32   C     C_2   0.034443 0.021853 0.749935 -0.148589
C33   C     C_2   0.964848 0.979367 0.249214 -0.146214
C34   C     C_2   0.498633 0.508246 0.683505 -0.410065
C35   C     C_R   0.343411 0.520826 0.888703 -0.249515
C36   C     C_2   0.501162 0.491598 0.316242 -0.406657
C37   C     C_2   0.998634 0.008250 0.683507 -0.410094
C38   C     C_2   0.001164 0.991600 0.316244 -0.406643
C39   C     C_2   0.532084 0.528495 0.814632 0.193621
C40   C     C_2   0.466696 0.472996 0.183878 0.191042
C41   C     C_2   0.032099 0.028477 0.814650 0.193633
C42   C     C_2   0.966707 0.972982 0.183892 0.191050
C43   C     C_3   0.137880 0.436267 0.717203 -0.409321
C44   C     C_3   0.135746 0.451449 0.782050 -0.824132
C45   C     C_3   0.862275 0.437126 0.281316 -0.408778
C46   C     C_R   0.656716 0.522777 0.114111 -0.244557
C47   C     C_3   0.864339 0.453280 0.216902 -0.823653
C48   C     C_3   0.637890 0.936330 0.717311 -0.409280
C49   C     C_3   0.635744 0.951567 0.782122 -0.824128
C50   C     C_3   0.362279 0.937098 0.281366 -0.408801
C51   C     C_3   0.364343 0.953232 0.216941 -0.823658
C52   C     C_3   0.050772 0.363628 0.453813 -0.388318
C53   C     C_3   0.025700 0.369131 0.368291 -0.821586
C54   C     C_3   0.948353 0.364353 0.544849 -0.388112
C55   C     C_3   0.973221 0.369590 0.630381 -0.821678
C56   C     C_3   0.550763 0.863625 0.453796 -0.388309
C57   C     C_R   0.843412 0.020898 0.888642 -0.249480
C58   C     C_3   0.525685 0.869130 0.368273 -0.821593
C59   C     C_3   0.448351 0.864355 0.544847 -0.388111
C60   C     C_3   0.473218 0.869591 0.630379 -0.821684
C61   C     C_3   0.432547 0.635711 0.507844 -0.385596
C62   C     C_3   0.387728 0.631039 0.431382 -0.825197
C63   C     C_3   0.567649 0.635777 0.493419 -0.386623
C64   C     C_3   0.612241 0.631045 0.570285 -0.825678
C65   C     C_3   0.932543 0.135714 0.507829 -0.385591
C66   C     C_3   0.887726 0.131041 0.431363 -0.825204
C67   C     C_3   0.067652 0.135775 0.493421 -0.386625
C68   C     C_R   0.156719 0.022759 0.114098 -0.244577
C69   C     C_3   0.112243 0.131043 0.570288 -0.825676
C70   C     C_3   0.556643 0.566334 0.870055 -0.331344
C71   C     C_3   0.587109 0.592680 0.857871 -0.935989
C72   C     C_3   0.439333 0.437368 0.125007 -0.333680
C73   C     C_3   0.407533 0.412450 0.135659 -0.926582
C74   C     C_3   0.056693 0.066289 0.870119 -0.331339
C75   C     C_3   0.087218 0.092586 0.858016 -0.936017
C76   C     C_3   0.939369 0.937332 0.125052 -0.333660
C77   C     C_3   0.907590 0.912392 0.135730 -0.926599
C78   C     C_3   0.366055 0.460598 0.758097 -0.440281
C79   C     C_R   0.366124 0.500286 0.862905 -0.033976
C80   C     C_3   0.383423 0.496098 0.731919 -0.857259
C81   C     C_3   0.634118 0.456196 0.239315 -0.431851
C82   C     C_3   0.616157 0.489971 0.267296 -0.859011
C83   C     C_3   0.866042 0.960459 0.758177 -0.440156
C84   C     C_3   0.883424 0.995901 0.731931 -0.857235
C85   C     C_3   0.134114 0.956227 0.239333 -0.431900
C86   C     C_3   0.116155 0.990016 0.267297 -0.859031
C87   C     C_3   0.223709 0.563312 0.638436 -0.421301
C88   C     C_3   0.238339 0.604533 0.687601 -0.845255
C89   C     C_3   0.776084 0.561245 0.364538 -0.420811
C90   C     C_R   0.633941 0.500093 0.137751 -0.034474
C91   C     C_3   0.762358 0.603630 0.318414 -0.847464
C92   C     C_3   0.723707 0.063245 0.638321 -0.421300
C93   C     C_3   0.738311 0.104508 0.687381 -0.845269
C94   C     C_3   0.276083 0.061276 0.364489 -0.420823
C95   C     C_3   0.262357 0.103647 0.318330 -0.847459
C96   C     C_R   0.866123 0.000287 0.862896 -0.034044
C97   C     C_R   0.586093 0.499962 0.087526 0.869768
C98   C     C_R   0.133941 0.000093 0.137751 -0.034457
C99   C     C_R   0.342878 0.480842 0.790216 0.170991
C100  C     C_R   0.657207 0.478545 0.208773 0.169018
C101  C     C_R   0.842873 0.980777 0.790256 0.170989
C102  C     C_R   0.157205 0.978559 0.208784 0.169030
C103  C     C_R   0.296673 0.482127 0.745142 -0.219367
C104  C     C_R   0.703418 0.479766 0.253997 -0.222024
C105  C     C_R   0.796667 0.982069 0.745182 -0.219433
C106  C     C_R   0.203416 0.979779 0.254011 -0.222020
C107  C     C_R   0.274353 0.502943 0.771304 0.101684
C108  C     C_R   0.913929 0.000030 0.912736 0.867160
C109  C     C_R   0.725710 0.502508 0.229692 0.100894
C110  C     C_R   0.774352 0.002954 0.771294 0.101694
C111  C     C_R   0.225711 0.002503 0.229694 0.100882
C112  C     C_R   0.201896 0.530584 0.659727 0.200551
C113  C     C_R   0.798029 0.529461 0.341934 0.200556
C114  C     C_R   0.701894 0.030556 0.659674 0.200537
C115  C     C_R   0.298029 0.029475 0.341914 0.200563
C116  C     C_R   0.155837 0.527749 0.614959 -0.275881
C117  C     C_R   0.844090 0.526909 0.386209 -0.275058
C118  C     C_R   0.655836 0.027718 0.614911 -0.275867
C119  C     C_R   0.086093 0.999962 0.087524 0.869752
C120  C     C_R   0.344090 0.026924 0.386188 -0.275052
C121  C     C_R   0.134365 0.498709 0.633740 -0.102515
C122  C     C_R   0.865646 0.498570 0.366400 -0.103476
C123  C     C_R   0.634366 0.998710 0.633741 -0.102576
C124  C     C_R   0.365647 0.998570 0.366402 -0.103450
C125  C     C_R   0.502461 0.499917 0.883524 0.926320
C126  C     C_R   0.497635 0.500107 0.116540 0.923246
C127  C     C_R   0.002459 0.999916 0.883521 0.926245
C128  C     C_R   0.997633 0.000107 0.116538 0.923277
C129  C     C_R   0.158970 0.471022 0.697689 0.161635
C130  C     C_2   0.508410 0.498720 0.823433 -0.417276
C131  C     C_R   0.841107 0.471301 0.301878 0.161206
C132  C     C_R   0.658974 0.971057 0.697739 0.161646
C133  C     C_R   0.341109 0.971285 0.301903 0.161194
C134  C     C_R   0.205002 0.474161 0.742762 -0.243122
C135  C     C_R   0.795061 0.474276 0.257185 -0.242380
C136  C     C_R   0.705006 0.974202 0.742808 -0.243119
C137  C     C_R   0.295063 0.974256 0.257211 -0.242381
C138  C     C_R   0.226329 0.503354 0.724120 0.041341
C139  C     C_R   0.773689 0.502814 0.276844 0.039888
C140  C     C_R   0.726329 0.003364 0.724115 0.041326
C141  C     C_2   0.492146 0.501375 0.177075 -0.417813
C142  C     C_R   0.273689 0.002808 0.276847 0.039884
C143  C     C_R   0.500034 0.413656 0.500017 0.867560
C144  C     C_R   0.000034 0.913655 0.500017 0.867582
C145  C     C_R   0.499785 0.501657 0.618926 0.950536
C146  C     C_R   0.500185 0.498317 0.381024 0.948911
C147  C     C_R   0.999785 0.001659 0.618926 0.950554
C148  C     C_R   0.000186 0.998318 0.381024 0.948914
C149  C     C_R   0.499973 0.586156 0.500037 0.862945
C150  C     C_R   0.999973 0.086156 0.500036 0.862943
C151  C     C_R   0.999933 0.413744 0.499897 0.846923
C152  C     C_2   0.008401 0.998719 0.823423 -0.417219
C153  C     C_R   0.499932 0.913744 0.499896 0.846930
C154  C     C_R   0.086344 0.498934 0.586218 0.876345
C155  C     C_R   0.913663 0.498906 0.413794 0.876191
C156  C     C_R   0.586344 0.998933 0.586219 0.876360
C157  C     C_R   0.413663 0.998907 0.413794 0.876200
C158  C     C_R   0.000020 0.586421 0.500052 0.874244
C159  C     C_R   0.500019 0.086421 0.500052 0.874267
C160  C     C_R   0.461917 0.296972 0.479540 -0.178237
C161  C     C_R   0.538434 0.296870 0.520910 -0.177821
C162  C     C_R   0.961888 0.796969 0.479392 -0.178246
C163  C     C_2   0.992140 0.001374 0.177069 -0.417854
C164  C     C_R   0.038462 0.796867 0.521056 -0.177831
C165  C     C_R   0.999474 0.274017 0.499485 0.064889
C166  C     C_R   0.499469 0.774016 0.499482 0.064889
C167  C     C_R   0.461751 0.342675 0.478919 -0.192854
C168  C     C_R   0.538495 0.342579 0.521323 -0.190760
C169  C     C_R   0.961723 0.842672 0.478773 -0.192851
C170  C     C_R   0.038522 0.842576 0.521468 -0.190749
C171  C     C_R   0.500098 0.365695 0.500086 -0.029928
C172  C     C_R   0.000098 0.865693 0.500085 -0.029974
C173  C     C_R   0.500204 0.273989 0.500293 0.110308
C174  C     C_R   0.297542 0.521821 0.843211 -0.178202
C175  C     C_R   0.000203 0.773987 0.500292 0.110322
C176  C     C_R   0.013672 0.703034 0.460973 -0.177075
C177  C     C_R   0.986765 0.703187 0.539708 -0.176830
C178  C     C_R   0.513591 0.203037 0.460855 -0.177092
C179  C     C_R   0.486845 0.203189 0.539826 -0.176844
C180  C     C_R   0.013311 0.657330 0.460426 -0.193588
C181  C     C_R   0.987000 0.657479 0.540094 -0.193723
C182  C     C_R   0.513231 0.157333 0.460310 -0.193578
C183  C     C_R   0.487079 0.157481 0.540209 -0.193722
C184  C     C_R   0.000109 0.634355 0.500196 -0.032309
H1    H     H_    0.565070 0.528851 0.756070 0.180948
H2    H     H_    0.775580 0.453444 0.207621 0.152425
H3    H     H_    0.890898 0.111442 0.391556 0.274689
H4    H     H_    0.864118 0.114170 0.439178 0.236887
H5    H     H_    0.943990 0.103391 0.536784 0.215865
H6    H     H_    0.928068 0.156277 0.545374 0.187530
H7    H     H_    0.125689 0.163967 0.595606 0.242550
H8    H     H_    0.108819 0.111415 0.609701 0.273999
H9    H     H_    0.136138 0.114190 0.563014 0.236547
H10   H     H_    0.056431 0.103499 0.464291 0.215101
H11   H     H_    0.072393 0.156392 0.456337 0.186207
H12   H     H_    0.614021 0.571361 0.866351 0.257795
H13   H     H_    0.724525 0.952984 0.791854 0.152018
H14   H     H_    0.567973 0.607218 0.800184 0.267107
H15   H     H_    0.602545 0.619912 0.899710 0.255622
H16   H     H_    0.531985 0.589602 0.865275 0.224466
H17   H     H_    0.577203 0.553035 0.928596 0.196817
H18   H     H_    0.425966 0.396254 0.192009 0.267882
H19   H     H_    0.382143 0.435168 0.129582 0.256831
H20   H     H_    0.390219 0.386582 0.091531 0.255708
H21   H     H_    0.419378 0.452579 0.067754 0.200916
H22   H     H_    0.462180 0.412806 0.126885 0.224813
H23   H     H_    0.114100 0.071221 0.866480 0.257800
H24   H     H_    0.275582 0.953411 0.207665 0.152425
H25   H     H_    0.068119 0.107157 0.800356 0.267104
H26   H     H_    0.102692 0.119790 0.899906 0.255630
H27   H     H_    0.032057 0.089590 0.865336 0.224434
H28   H     H_    0.077218 0.052968 0.928647 0.196808
H29   H     H_    0.926037 0.896214 0.192097 0.267887
H30   H     H_    0.882182 0.935093 0.129634 0.256834
H31   H     H_    0.890297 0.886508 0.091628 0.255703
H32   H     H_    0.919402 0.952526 0.067786 0.200946
H33   H     H_    0.962233 0.912784 0.126948 0.224813
H34   H     H_    0.495494 0.469506 0.787900 0.151821
H35   H     H_    0.032709 0.279487 0.444638 0.136942
H36   H     H_    0.506868 0.529696 0.214461 0.149416
H37   H     H_    0.995462 0.969516 0.787866 0.151798
H38   H     H_    0.006845 0.029704 0.214438 0.149429
H39   H     H_    0.361290 0.535679 0.944442 0.146858
H40   H     H_    0.638951 0.539429 0.059942 0.142343
H41   H     H_    0.861293 0.035803 0.944341 0.146921
H42   H     H_    0.138955 0.039397 0.059919 0.142342
H43   H     H_    0.355477 0.516259 0.686414 0.257443
H44   H     H_    0.407230 0.517970 0.779542 0.261565
H45   H     H_    0.400587 0.480407 0.709343 0.241787
H46   H     H_    0.966059 0.280025 0.553988 0.136917
H47   H     H_    0.393559 0.438820 0.800255 0.227962
H48   H     H_    0.342791 0.439388 0.708643 0.200471
H49   H     H_    0.643836 0.509452 0.314567 0.255601
H50   H     H_    0.592478 0.512723 0.221134 0.256472
H51   H     H_    0.598708 0.472786 0.287999 0.247365
H52   H     H_    0.607005 0.434637 0.195883 0.229329
H53   H     H_    0.657573 0.434331 0.287611 0.199086
H54   H     H_    0.855485 0.016047 0.686378 0.257427
H55   H     H_    0.907234 0.017797 0.779508 0.261477
H56   H     H_    0.900588 0.980157 0.709395 0.241784
H57   H     H_    0.532699 0.779485 0.444626 0.136942
H58   H     H_    0.893535 0.938686 0.800372 0.227999
H59   H     H_    0.842770 0.939228 0.708761 0.200432
H60   H     H_    0.143835 0.009500 0.314559 0.255612
H61   H     H_    0.092476 0.012762 0.221122 0.256496
H62   H     H_    0.098704 0.972841 0.288006 0.247366
H63   H     H_    0.106999 0.934667 0.195908 0.229331
H64   H     H_    0.157566 0.934367 0.287639 0.199103
H65   H     H_    0.209491 0.620150 0.682145 0.256781
H66   H     H_    0.263862 0.596429 0.747887 0.266700
H67   H     H_    0.252731 0.628459 0.668886 0.245162
H68   H     H_    0.466057 0.780027 0.553989 0.136916
H69   H     H_    0.252499 0.548194 0.643220 0.208784
H70   H     H_    0.200236 0.573486 0.578306 0.197533
H71   H     H_    0.791694 0.619541 0.326196 0.256677
H72   H     H_    0.737336 0.596864 0.257397 0.265883
H73   H     H_    0.747650 0.626749 0.337816 0.245328
H74   H     H_    0.746815 0.545919 0.357668 0.209629
H75   H     H_    0.799241 0.569930 0.425463 0.197345
H76   H     H_    0.709450 0.120144 0.681857 0.256779
H77   H     H_    0.763823 0.096450 0.747693 0.266681
H78   H     H_    0.752710 0.128402 0.668630 0.245169
H79   H     H_    0.432113 0.279512 0.463085 0.131737
H80   H     H_    0.752508 0.048112 0.643165 0.208806
H81   H     H_    0.700238 0.073369 0.578163 0.197531
H82   H     H_    0.291693 0.119549 0.326097 0.256685
H83   H     H_    0.237335 0.096865 0.257318 0.265883
H84   H     H_    0.247648 0.126781 0.337712 0.245331
H85   H     H_    0.246814 0.045959 0.357631 0.209631
H86   H     H_    0.299239 0.069978 0.425407 0.197352
H87   H     H_    0.568272 0.279329 0.537418 0.131904
H88   H     H_    0.932062 0.779509 0.462821 0.131734
H89   H     H_    0.433961 0.473604 0.242831 0.181541
H90   H     H_    0.068322 0.779326 0.537679 0.131901
H91   H     H_    0.431830 0.359956 0.462581 0.152900
H92   H     H_    0.568370 0.359790 0.537573 0.153177
H93   H     H_    0.931779 0.859951 0.462318 0.152933
H94   H     H_    0.068421 0.859785 0.537834 0.153209
H95   H     H_    0.023917 0.720472 0.430047 0.131687
H96   H     H_    0.976542 0.720747 0.570659 0.131674
H97   H     H_    0.523774 0.220475 0.429836 0.131687
H98   H     H_    0.476685 0.220749 0.570870 0.131673
H99   H     H_    0.437755 0.720038 0.487889 0.136386
H100  H     H_    0.065081 0.028824 0.756082 0.180963
H101  H     H_    0.561700 0.720087 0.512393 0.136444
H102  H     H_    0.937755 0.220040 0.487878 0.136386
H103  H     H_    0.061705 0.220086 0.512397 0.136444
H104  H     H_    0.280066 0.537496 0.863598 0.144403
H105  H     H_    0.720040 0.540901 0.140813 0.143956
H106  H     H_    0.780070 0.037627 0.863497 0.144389
H107  H     H_    0.220044 0.040865 0.140790 0.143957
H108  H     H_    0.277883 0.467513 0.689151 0.126316
H109  H     H_    0.722240 0.463619 0.308730 0.127167
H110  H     H_    0.777874 0.967406 0.689229 0.126328
H111  H     H_    0.933970 0.973579 0.242841 0.181530
H112  H     H_    0.222237 0.963644 0.308755 0.127171
H113  H     H_    0.169636 0.457242 0.833890 0.246760
H114  H     H_    0.116184 0.482309 0.766582 0.272288
H115  H     H_    0.119609 0.425672 0.794422 0.238131
H116  H     H_    0.104139 0.427448 0.667630 0.205365
H117  H     H_    0.157607 0.405379 0.734103 0.192762
H118  H     H_    0.830423 0.459357 0.165256 0.246960
H119  H     H_    0.883800 0.484181 0.233235 0.272306
H120  H     H_    0.880542 0.427913 0.203763 0.238024
H121  H     H_    0.896026 0.428011 0.330623 0.206030
H122  H     H_    0.136428 0.549013 0.565972 0.154525
H123  H     H_    0.842626 0.406228 0.263494 0.192803
H124  H     H_    0.669631 0.957385 0.833956 0.246755
H125  H     H_    0.616174 0.982425 0.766591 0.272296
H126  H     H_    0.619612 0.925810 0.794537 0.238118
H127  H     H_    0.604155 0.927486 0.667749 0.205396
H128  H     H_    0.657627 0.905446 0.734277 0.192746
H129  H     H_    0.330426 0.959302 0.165292 0.246966
H130  H     H_    0.383802 0.984132 0.233254 0.272306
H131  H     H_    0.380546 0.927856 0.203819 0.238028
H132  H     H_    0.396032 0.927992 0.330679 0.206014
H133  H     H_    0.863405 0.547811 0.435697 0.155691
H134  H     H_    0.342633 0.906199 0.263566 0.192812
H135  H     H_    0.023708 0.640002 0.429553 0.150790
H136  H     H_    0.976552 0.640267 0.570894 0.150748
H137  H     H_    0.523566 0.140007 0.429344 0.150836
H138  H     H_    0.476694 0.140271 0.571103 0.150791
H139  H     H_    0.016248 0.336450 0.340116 0.242148
H140  H     H_    0.995249 0.389102 0.344740 0.273850
H141  H     H_    0.047252 0.385923 0.355607 0.235921
H142  H     H_    0.064716 0.395522 0.483109 0.212776
H143  H     H_    0.080294 0.342513 0.474567 0.184626
H144  H     H_    0.636427 0.048957 0.565888 0.154584
H145  H     H_    0.982293 0.336811 0.658201 0.242034
H146  H     H_    0.003879 0.389169 0.654418 0.273904
H147  H     H_    0.951682 0.386688 0.642933 0.235971
H148  H     H_    0.934772 0.396415 0.515878 0.213008
H149  H     H_    0.918608 0.343613 0.523578 0.184769
H150  H     H_    0.516229 0.836450 0.340096 0.242149
H151  H     H_    0.495236 0.889103 0.344730 0.273853
H152  H     H_    0.547235 0.885921 0.355583 0.235918
H153  H     H_    0.564710 0.895518 0.483094 0.212780
H154  H     H_    0.580282 0.842508 0.474542 0.184622
H155  H     H_    0.363404 0.047839 0.435659 0.155679
H156  H     H_    0.482290 0.836812 0.658198 0.242034
H157  H     H_    0.503878 0.889170 0.654417 0.273900
H158  H     H_    0.451681 0.886690 0.642931 0.235973
H159  H     H_    0.434771 0.896417 0.515877 0.213007
H160  H     H_    0.418605 0.843616 0.523576 0.184770
H161  H     H_    0.466866 0.504460 0.674984 0.159779
H162  H     H_    0.533068 0.494298 0.324988 0.158725
H163  H     H_    0.966865 0.004477 0.674983 0.159802
H164  H     H_    0.033069 0.994312 0.324987 0.158722
H165  H     H_    0.374085 0.663978 0.406241 0.242492
H166  H     H_    0.224519 0.452916 0.791771 0.152020
H167  H     H_    0.390896 0.611441 0.391570 0.274688
H168  H     H_    0.364122 0.614167 0.439201 0.236886
H169  H     H_    0.443995 0.603387 0.536797 0.215865
H170  H     H_    0.428075 0.656272 0.545394 0.187530
H171  H     H_    0.625687 0.663969 0.595604 0.242550
H172  H     H_    0.608819 0.611416 0.609698 0.274000
H173  H     H_    0.636137 0.614193 0.563009 0.236547
H174  H     H_    0.556429 0.603500 0.464289 0.215102
H175  H     H_    0.572389 0.656394 0.456334 0.186207
H176  H     H_    0.874084 0.163979 0.406220 0.242493
O1    O     O_R   0.434530 0.536960 0.934530 -0.616027
O2    O     O_R   0.934540 0.500010 0.383460 -0.611625
O3    O     O_R   0.565460 0.000010 0.616540 -0.611371
O4    O     O_R   0.434540 0.000010 0.383460 -0.611626
O5    O     O_R   0.000010 0.565480 0.448930 -0.623911
O6    O     O_R   0.999990 0.565480 0.551070 -0.623791
O7    O     O_R   0.500010 0.065480 0.448930 -0.623927
O8    O     O_R   0.499990 0.065480 0.551070 -0.623808
O9    O     O_R   0.434530 0.463040 0.934530 -0.635202
O10   O     O_R   0.565470 0.463040 0.065470 -0.626682
O11   O     O_R   0.934530 0.963040 0.934530 -0.635212
O12   O     O_R   0.565470 0.536960 0.065470 -0.624639
O13   O     O_R   0.065470 0.963040 0.065470 -0.626678
O14   O     O_R   0.500010 0.536960 0.909550 -0.631391
O15   O     O_R   0.499990 0.536960 0.090450 -0.618138
O16   O     O_R   0.000010 0.036960 0.909550 -0.631353
O17   O     O_R   0.999990 0.036960 0.090450 -0.618145
O18   O     O_R   0.500010 0.463040 0.909550 -0.612544
O19   O     O_R   0.499990 0.463040 0.090450 -0.624452
O20   O     O_R   0.000010 0.963040 0.909550 -0.612514
O21   O     O_R   0.999990 0.963040 0.090450 -0.624468
O22   O     O_R   0.536960 0.434530 0.536970 -0.624726
O23   O     O_R   0.934530 0.036960 0.934530 -0.616036
O24   O     O_R   0.463040 0.434530 0.463030 -0.627461
O25   O     O_R   0.036960 0.934530 0.536970 -0.624740
O26   O     O_R   0.963040 0.934530 0.463030 -0.627475
O27   O     O_R   0.536950 0.500000 0.627420 -0.618568
O28   O     O_R   0.463050 0.500000 0.372580 -0.619882
O29   O     O_R   0.036950 0.000000 0.627420 -0.618577
O30   O     O_R   0.963050 0.000000 0.372580 -0.619883
O31   O     O_R   0.463030 0.500000 0.553490 -0.626571
O32   O     O_R   0.536970 0.500000 0.446510 -0.626575
O33   O     O_R   0.963030 0.000000 0.553490 -0.626562
O34   O     O_R   0.065470 0.036960 0.065470 -0.624635
O35   O     O_R   0.036970 0.000000 0.446510 -0.626568
O36   O     O_R   0.536960 0.565470 0.536960 -0.621756
O37   O     O_R   0.463040 0.565470 0.463040 -0.619450
O38   O     O_R   0.036960 0.065470 0.536960 -0.621756
O39   O     O_R   0.963040 0.065470 0.463040 -0.619453
O40   O     O_R   1.000000 0.434540 0.448940 -0.620517
O41   O     O_R   0.000000 0.434540 0.551060 -0.620229
O42   O     O_R   0.500000 0.934540 0.448940 -0.620511
O43   O     O_R   0.500000 0.934540 0.551060 -0.620237
O44   O     O_R   0.065470 0.500010 0.514410 -0.628057
O45   O     O_R   0.934530 0.500010 0.485590 -0.628427
O46   O     O_R   0.565470 0.000010 0.514410 -0.628059
O47   O     O_R   0.434530 0.000010 0.485590 -0.628420
O48   O     O_R   0.065460 0.500010 0.616540 -0.611360
Zn1   Zn    Zn3+2 0.500000 0.549350 0.000000 0.937260
Zn2   Zn    Zn3+2 0.999990 0.500010 0.568190 0.933017
Zn3   Zn    Zn3+2 0.500010 0.000010 0.431810 0.932891
Zn4   Zn    Zn3+2 0.499990 0.000010 0.568190 0.933000
Zn5   Zn    Zn3+2 0.000000 0.049350 0.000000 0.937275
Zn6   Zn    Zn3+2 0.500000 0.450640 0.000000 0.926915
Zn7   Zn    Zn3+2 0.000000 0.950640 0.000000 0.926904
Zn8   Zn    Zn3+2 0.549360 0.500000 0.549360 0.935750
Zn9   Zn    Zn3+2 0.450640 0.500000 0.450640 0.934714
Zn10  Zn    Zn3+2 0.049360 0.000000 0.549360 0.935742
Zn11  Zn    Zn3+2 0.950640 0.000000 0.450640 0.934706
Zn12  Zn    Zn3+2 0.000010 0.500010 0.431810 0.932903

loop_
_geom_bond_atom_site_label_1
_geom_bond_atom_site_label_2
_ccdc_geom_bond_type
C99   C103  A    
C105  C110  A    
C133  C137  A    
C153  O42   A    
C66   H4    S    
C144  O26   A    
C89   H75   S    
C45   H121  S    
C4    C177  A    
C136  C140  A    
O29   Zn10  S    
C69   H7    S    
C120  H155  S    
C51   H130  S    
C135  C139  A    
C124  C133  A    
C2    H105  S    
C79   C99   A    
C68   H42   S    
C181  C184  A    
O20   Zn7   S    
C100  C104  A    
C46   H40   S    
C5    C179  A    
C111  C142  S    
C41   C74   S    
C75   H23   S    
C61   H169  S    
C12   C16   A    
C160  H79   S    
C60   H157  S    
C56   H154  S    
C35   H39   S    
O9    Zn6   S    
C135  H2    S    
C93   H77   S    
O3    Zn4   S    
C17   H35   S    
C8    H102  S    
C150  O38   A    
C128  O21   A    
C96   C108  S    
C59   C60   S    
C52   H143  S    
O17   Zn5   S    
C152  H37   S    
C181  H136  S    
C77   H30   S    
C123  C156  S    
C45   C47   S    
C25   C29   A    
C89   C113  S    
C121  C154  S    
C58   H150  S    
C55   H145  S    
C112  C138  A    
C105  H110  S    
C18   H46   S    
C176  H95   S    
C9    H103  S    
C95   H82   S    
C72   H22   S    
C87   C112  S    
C97   O10   A    
C98   C102  A    
C6    C21   A    
C21   C166  S    
C134  H166  S    
C48   H127  S    
C43   C44   S    
C62   H168  S    
C147  O29   A    
C64   H172  S    
C76   H33   S    
C174  H104  S    
C69   H9    S    
C37   C147  S    
O43   Zn4   S    
C38   C148  S    
C178  C182  A    
C65   H5    S    
O16   Zn5   S    
C1    C79   S    
C44   H114  S    
C10   C61   S    
C45   H123  S    
C15   C149  S    
C73   H18   S    
C59   H160  S    
C70   H16   S    
C155  O2    A    
C72   C73   S    
O5    Zn12  S    
C94   C115  S    
O21   Zn7   S    
C156  O46   A    
O19   Zn6   S    
O22   Zn8   S    
C126  C141  S    
C33   C38   D    
C74   H27   S    
C107  C138  S    
C162  C169  A    
C91   H71   S    
O24   Zn9   S    
C47   H120  S    
O25   Zn10  S    
C80   H43   S    
C170  H94   S    
C3    C182  A    
C68   C98   A    
C24   H107  S    
C19   H57   S    
C66   H176  S    
C63   H175  S    
C82   H49   S    
C78   C99   S    
C31   C36   D    
C103  C107  A    
C180  C184  A    
O26   Zn11  S    
C137  C142  A    
C75   H26   S    
O37   Zn9   S    
C123  C132  A    
C122  C155  S    
C164  C170  A    
C49   H124  S    
C28   C56   S    
C155  O45   A    
C85   C86   S    
C31   C40   S    
C97   O12   A    
C73   H19   S    
C83   H58   S    
C33   C42   S    
C11   C63   S    
C141  H36   S    
C50   H134  S    
C78   C80   S    
C20   H68   S    
C51   H131  S    
C164  C175  A    
C130  H34   S    
C168  C171  A    
C128  O17   A    
C4    C175  S    
C8    C22   A    
C14   C67   S    
C113  C139  A    
C114  C140  A    
C89   C91   S    
C8    C12   A    
C118  C123  A    
C57   H41   S    
C13   H106  S    
C40   C141  D    
O40   Zn12  S    
C3    C159  S    
C60   H156  S    
C11   C15   A    
C158  O6    A    
O39   Zn11  S    
C125  O18   A    
C106  C111  A    
C151  O40   A    
C81   H52   S    
C52   H142  S    
C30   C34   D    
C30   H1    S    
C43   C129  S    
C162  C175  A    
C117  C122  A    
O6    Zn2   S    
C85   H64   S    
C95   H83   S    
C83   C84   S    
C132  C136  A    
C53   H141  S    
O18   Zn6   S    
C32   C37   D    
C19   C28   A    
C113  C117  A    
C86   H61   S    
C4    C176  A    
C84   H55   S    
C49   H126  S    
C122  C131  A    
C112  C116  A    
C52   C53   S    
C71   H14   S    
C93   H78   S    
C53   H140  S    
C54   C55   S    
C127  O16   A    
C83   C101  S    
C148  O30   A    
C5    C173  S    
C89   H74   S    
C51   H129  S    
C107  C174  A    
C116  H122  S    
C145  O27   A    
C42   C76   S    
C151  O41   A    
O34   Zn5   S    
O4    Zn3   S    
O7    Zn3   S    
C177  C181  A    
C148  O35   A    
C35   C79   A    
C56   C58   S    
C30   C39   S    
C64   H173  S    
C61   C62   S    
C5    C178  A    
C37   H163  S    
C63   C64   S    
C176  C180  A    
C183  H138  S    
O15   Zn1   S    
C85   H63   S    
C60   H158  S    
C16   C150  S    
C78   H47   S    
C82   H51   S    
C3    C183  A    
C85   C102  S    
C88   H65   S    
C137  H24   S    
C150  O39   A    
O1    Zn1   S    
C43   H116  S    
O13   Zn7   S    
C6    H99   S    
C77   H29   S    
C2    C109  A    
C25   C28   A    
C58   H151  S    
C54   H148  S    
C164  H90   S    
C78   H48   S    
C94   H86   S    
C83   H59   S    
O30   Zn11  S    
O14   Zn1   S    
C160  C173  A    
C23   C26   A    
C48   H128  S    
C159  O7    A    
O28   Zn9   S    
C177  H96   S    
C57   C96   A    
C70   C71   S    
C157  O47   A    
C67   H10   S    
C40   C72   S    
O23   Zn5   S    
C90   C97   S    
C115  C142  A    
C153  O43   A    
C96   C101  A    
C154  O44   A    
C144  O25   A    
O31   Zn9   S    
C69   H8    S    
C18   C165  A    
C108  O23   A    
C59   H159  S    
C156  O3    A    
C25   C153  S    
C116  C121  A    
O33   Zn11  S    
C49   H125  S    
C7    C21   A    
C161  H87   S    
C74   H28   S    
C9    C14   A    
O38   Zn10  S    
C91   H73   S    
C161  C173  A    
C76   H32   S    
C61   H170  S    
C124  C157  S    
C50   C51   S    
C119  O13   A    
C56   H153  S    
C80   H44   S    
C136  H13   S    
C88   H67   S    
C92   H81   S    
C48   C49   S    
C45   C131  S    
O46   Zn3   S    
C82   H50   S    
C179  H98   S    
C47   H118  S    
C31   H89   S    
C38   H164  S    
C77   H31   S    
C163  H38   S    
C75   H25   S    
C55   H146  S    
C146  O28   A    
O35   Zn10  S    
C84   H54   S    
C121  C129  A    
C126  O19   A    
C50   C133  S    
C106  H112  S    
C6    C10   A    
C167  C171  A    
C71   H15   S    
C72   H21   S    
C46   C90   A    
C81   C100  S    
C20   C166  A    
C12   C65   S    
C144  C172  S    
C104  H109  S    
C143  C171  S    
C17   C165  A    
C62   H167  S    
C94   H85   S    
C103  H108  S    
C170  C172  A    
C92   C93   S    
C143  O24   A    
C94   C95   S    
C24   C68   A    
C129  C134  A    
O32   Zn8   S    
C87   H69   S    
C13   C57   A    
C65   H6    S    
C87   C88   S    
C127  O20   A    
O8    Zn4   S    
C1    O1    A    
C44   H113  S    
C48   C132  S    
C32   H100  S    
C158  C184  S    
C145  O31   A    
C146  O32   A    
C80   H45   S    
O45   Zn2   S    
C81   C82   S    
C71   H12   S    
C27   C54   S    
C98   C119  S    
C41   C152  D    
C2    C46   A    
C7    C11   A    
C43   H117  S    
C162  H88   S    
C1    O9    A    
C7    H101  S    
C17   C26   A    
C131  C135  A    
C10   C15   A    
C104  C109  A    
C34   C145  S    
C9    C22   A    
C91   H72   S    
C178  H97   S    
C160  C167  A    
C36   H162  S    
O10   Zn6   S    
C22   C165  S    
C125  C130  S    
O42   Zn3   S    
C29   C59   S    
C81   H53   S    
C19   C166  A    
O2    Zn12  S    
C147  O33   A    
C50   H132  S    
C70   H17   S    
C34   H161  S    
C86   H62   S    
C182  H137  S    
C119  O34   A    
C84   H56   S    
C24   C111  A    
C67   H11   S    
C90   C100  A    
C179  C183  A    
C20   C29   A    
C87   H70   S    
C101  C105  A    
C53   H139  S    
C73   H20   S    
C74   C75   S    
O44   Zn12  S    
C76   C77   S    
C62   H165  S    
C167  H91   S    
C168  H92   S    
C42   C163  D    
C128  C163  S    
C159  O8    A    
O11   Zn7   S    
C67   C69   S    
C143  O22   A    
C157  O4    A    
C13   C110  A    
C26   C52   S    
C127  C152  S    
C93   H76   S    
C32   C41   S    
C154  O48   A    
C125  O14   A    
C44   H115  S    
C149  O37   A    
C92   H80   S    
O47   Zn4   S    
O12   Zn1   S    
C114  C118  A    
C108  O11   A    
C36   C146  S    
C115  C120  A    
C23   C27   A    
C169  C172  A    
C14   C16   A    
C169  H93   S    
O41   Zn2   S    
C158  O5    A    
C88   H66   S    
C23   C151  S    
C149  O36   A    
C35   C174  A    
C64   H171  S    
C47   H119  S    
C18   C27   A    
O48   Zn2   S    
C134  C138  A    
C66   H3    S    
C39   C130  D    
C33   H111  S    
O27   Zn8   S    
C58   H152  S    
C109  C139  S    
C54   H149  S    
C55   H147  S    
C110  C140  S    
C118  H144  S    
O36   Zn8   S    
C95   H84   S    
C117  H133  S    
C63   H174  S    
C39   C70   S    
C102  C106  A    
C161  C168  A    
C86   H60   S    
C65   C66   S    
C126  O15   A    
C92   C114  S    
C120  C124  A    
C180  H135  S    
