data_mof_unit_68579.cif
_audit_creation_date              2012-12-11T18:55:36-0500
_audit_creation_method            fapswitch 2.2
_symmetry_space_group_name_H-M    P1
_symmetry_Int_Tables_number       1
_space_group_crystal_system       triclinic
_cell_length_a                    8.449725
_cell_length_b                    15.0444
_cell_length_c                    16.0977
_cell_angle_alpha                 110.027178
_cell_angle_beta                  96.648936
_cell_angle_gamma                 81.584133
_cell_volume                      1897.15820592

loop_
_atom_site_label
_atom_site_type_symbol
_atom_type_description
_atom_site_fract_x
_atom_site_fract_y
_atom_site_fract_z
_atom_type_partial_charge
Ba1   Ba    Ba6+2 0.364200 0.465260 0.540910 1.643112
Ba2   Ba    Ba6+2 0.825640 0.534660 0.459080 1.654910
C1    C     C_3   0.321034 0.173691 0.772750 -0.318429
C2    C     C_R   0.881570 0.519485 0.749805 -0.256632
C3    C     C_2   0.507593 0.408696 0.136807 -0.161139
C4    C     C_3   0.689624 0.298038 0.780909 0.429462
C5    C     C_2   0.464940 0.427473 0.219590 0.056945
C6    C     C_2   0.195721 0.501245 0.187861 0.039687
C7    C     C_3   0.228684 0.458580 0.090138 -0.061546
C8    C     C_3   0.405429 0.451216 0.074263 0.022090
C9    C     C_2   0.124776 0.500982 0.028325 -0.102610
C10   C     C_2   0.050126 0.448617 0.951543 0.428403
C11   C     C_R   0.808852 0.553532 0.923401 -0.041736
C12   C     C_3   0.247332 0.256428 0.739860 0.543424
C13   C     C_R   0.953662 0.498806 0.893880 -0.046423
C14   C     C_R   0.702760 0.592146 0.867569 -0.119452
C15   C     C_R   0.735233 0.571844 0.779094 0.072871
C16   C     C_3   0.702891 0.260161 0.859625 -0.087434
C17   C     C_R   0.993870 0.486103 0.807214 0.061504
C18   C     C_R   0.853165 0.187534 0.560291 0.029966
C19   C     C_R   0.076437 0.208838 0.486868 0.102618
C20   C     C_R   0.270319 0.772935 0.495022 -0.267838
C21   C     C_R   0.350618 0.823830 0.458949 -0.034724
C22   C     C_R   0.289136 0.917883 0.465290 -0.167380
C23   C     C_3   0.035962 0.718476 0.740299 0.313525
C24   C     C_R   0.149928 0.963812 0.511834 0.009394
C25   C     C_R   0.075767 0.910655 0.551483 -0.094207
C26   C     C_R   0.078387 0.058895 0.518153 -0.031565
C27   C     C_R   0.926746 0.094515 0.556755 -0.061641
C28   C     C_3   0.708931 0.230259 0.339428 0.296202
C29   C     C_R   0.857362 0.037128 0.593138 0.356089
C30   C     C_R   0.937857 0.951240 0.595665 -0.111967
C31   C     C_R   0.150764 0.118528 0.485295 -0.119919
C32   C     C_R   0.929776 0.242586 0.525190 -0.262985
C33   C     C_R   0.133415 0.814559 0.540627 0.017763
C34   C     C_3   0.096916 0.759725 0.837524 -0.128376
C35   C     C_3   0.713653 0.122099 0.316748 -0.183990
C36   C     C_3   0.479977 0.778045 0.675563 0.368438
C37   C     C_3   0.453030 0.887692 0.714319 0.120525
C38   C     C_3   0.217059 0.218405 0.249868 0.392149
C39   C     C_3   0.223173 0.121917 0.170008 0.858254
C40   C     C_3   0.943080 0.118934 0.129558 0.238632
C41   C     C_3   0.336429 0.030001 0.261468 0.110286
C42   C     C_3   0.521301 0.845583 0.075009 0.135373
C43   C     C_3   0.981871 0.787871 0.330992 0.266294
C44   C     C_3   0.070993 0.302577 0.979503 0.163021
C45   C     C_3   0.397671 0.760377 0.244090 0.432452
C46   C     C_3   0.594861 0.013230 0.579515 0.254158
C47   C     C_3   0.409890 0.770316 0.152875 0.336707
C48   C     C_3   0.847723 0.701109 0.195410 0.678062
C49   C     C_3   0.955761 0.736068 0.144187 -0.230227
C50   C     C_2   0.309181 0.483510 0.248192 -0.101204
H1    H     H_    0.288820 0.242849 0.672965 0.047064
H2    H     H_    0.910570 0.702756 0.736000 -0.000441
H3    H     H_    0.114387 0.651911 0.709013 0.075964
H4    H     H_    0.035138 0.832770 0.867630 0.111338
H5    H     H_    0.227623 0.765007 0.840666 0.127573
H6    H     H_    0.297443 0.189857 0.843118 0.133351
H7    H     H_    0.766367 0.309234 0.917160 0.090428
H8    H     H_    0.298601 0.813075 0.277343 -0.062348
H9    H     H_    0.463719 0.701025 0.107295 -0.003344
H10   H     H_    0.286819 0.786114 0.124599 -0.009316
H11   H     H_    0.727258 0.723513 0.170959 0.117557
H12   H     H_    0.697871 0.086334 0.243956 0.094335
H13   H     H_    0.083260 0.722375 0.165638 0.059894
H14   H     H_    0.937835 0.694440 0.073038 0.107635
H15   H     H_    0.621285 0.367514 0.115852 0.099956
H16   H     H_    0.592401 0.634289 0.892303 0.083738
H17   H     H_    0.911621 0.508633 0.683226 0.060215
H18   H     H_    0.122282 0.576500 0.042767 0.018086
H19   H     H_    0.872144 0.311792 0.525492 0.054967
H20   H     H_    0.264366 0.095745 0.456455 0.072181
H21   H     H_    0.810236 0.299507 0.765092 0.046506
H22   H     H_    0.316908 0.700516 0.489210 0.050991
H23   H     H_    0.614165 0.108537 0.348444 0.094344
H24   H     H_    0.350432 0.952086 0.431782 0.044272
H25   H     H_    0.884045 0.914761 0.630100 0.107276
H26   H     H_    0.582320 0.261219 0.881166 0.106738
H27   H     H_    0.831270 0.250903 0.348244 0.064402
H28   H     H_    0.649237 0.266135 0.402378 0.056993
H29   H     H_    0.951823 0.074219 0.305963 0.208114
H30   H     H_    0.849760 0.011234 0.344770 0.183748
H31   H     H_    0.342674 0.990038 0.818288 0.189786
H32   H     H_    0.223319 0.912596 0.751911 0.182236
H33   H     H_    0.639719 0.915022 0.811296 0.215948
H34   H     H_    0.362620 0.749255 0.660285 -0.021386
H35   H     H_    0.694349 0.892309 0.708568 0.177858
H36   H     H_    0.129742 0.356257 0.268246 0.187079
H37   H     H_    0.244989 0.304471 0.180097 0.105162
H38   H     H_    0.470915 0.117193 0.168652 0.119997
H39   H     H_    0.383065 0.040861 0.078087 0.184466
H40   H     H_    0.902855 0.182093 0.185731 0.091377
H41   H     H_    0.940257 0.051801 0.143400 0.068140
H42   H     H_    0.854141 0.117589 0.072895 0.041027
H43   H     H_    0.337270 0.092803 0.322013 0.017951
H44   H     H_    0.455722 0.011910 0.234717 0.090463
H45   H     H_    0.544130 0.756946 0.613959 -0.012394
H46   H     H_    0.312772 0.970500 0.282068 0.096609
H47   H     H_    0.041546 0.190305 0.708242 0.119448
H48   H     H_    0.025073 0.294888 0.691112 0.083195
H49   H     H_    0.949266 0.713516 0.901532 0.164583
H50   H     H_    0.135817 0.721743 0.948793 0.185551
H51   H     H_    0.319387 0.662308 0.285136 0.117465
H52   H     H_    0.467467 0.618376 0.215460 0.190766
H53   H     H_    0.590550 0.778983 0.034807 0.034001
H54   H     H_    0.590387 0.905343 0.082097 0.072809
H55   H     H_    0.403094 0.858074 0.039922 0.052990
H56   H     H_    0.402829 0.915911 0.660177 0.015094
H57   H     H_    0.956095 0.821716 0.400523 0.095769
H58   H     H_    0.001808 0.846656 0.308500 -0.029714
H59   H     H_    0.089041 0.735921 0.327177 -0.040937
H60   H     H_    0.014400 0.871831 0.169560 0.201786
H61   H     H_    0.828936 0.871024 0.198165 0.209042
H62   H     H_    0.539361 0.409102 0.756155 0.249745
H63   H     H_    0.546481 0.412935 0.862479 0.195177
H64   H     H_    0.268083 0.459516 0.361657 0.191766
H65   H     H_    0.359339 0.559208 0.378647 0.201581
H66   H     H_    0.030137 0.231766 0.945095 0.100220
H67   H     H_    0.338427 0.230181 0.283381 -0.034115
H68   H     H_    0.988146 0.341818 0.032421 0.062960
H69   H     H_    0.194427 0.287146 0.006974 0.065740
H70   H     H_    0.476338 0.050036 0.602422 0.063820
H71   H     H_    0.606645 0.942067 0.586513 0.032381
H72   H     H_    0.596311 0.006715 0.508506 0.035401
H73   H     H_    0.888072 0.158003 0.804938 0.198465
H74   H     H_    0.712547 0.114778 0.799628 0.244316
H75   H     H_    0.450522 0.157995 0.765992 0.143114
H76   H     H_    0.270271 0.106750 0.732317 0.040047
N1    N     N_3   0.864154 0.080546 0.349039 -0.532085
N2    N     N_3   0.614366 0.396518 0.807759 -0.516586
N3    N     N_3   0.275038 0.516312 0.339775 -0.474121
N4    N     N_3   0.787913 0.164068 0.839721 -0.500737
N5    N     N_3   0.338604 0.917572 0.783139 -0.483196
N6    N     N_3   0.604385 0.927667 0.751478 -0.487705
N7    N     N_3   0.155987 0.294883 0.215000 -0.463221
N8    N     N_3   0.369839 0.109424 0.124500 -0.508231
N9    N     N_3   0.074430 0.259003 0.734654 -0.472365
N10   N     N_3   0.069954 0.699574 0.887592 -0.516900
N11   N     N_3   0.360919 0.664426 0.227679 -0.566990
N12   N     N_3   0.911793 0.836269 0.150603 -0.521395
O1    O     O_2   0.428380 0.595290 0.716080 -0.470272
O2    O     O_2   0.681053 0.810954 0.453676 -0.469956
O3    O     O_3   0.542920 0.776528 0.296914 -0.536699
O4    O     O_3   0.649320 0.571640 0.606850 -0.488667
O5    O     O_3   0.067570 0.379360 0.450830 -0.482135
O6    O     O_2   0.850910 0.734710 0.551660 -0.451802
O7    O     O_3   0.039342 0.788145 0.701156 -0.677577
O8    O     O_2   0.923950 0.446922 0.196030 -0.463664
O9    O     O_3   0.851879 0.601107 0.166336 -0.637642
O10   O     O_3   0.202060 0.415890 0.655600 -0.496017
O11   O     O_2   0.306125 0.522705 0.814864 -0.489288
O12   O     O_3   0.109398 0.215482 0.308523 -0.666782
O13   O     O_3   0.572992 0.744014 0.738029 -0.645326
O14   O     O_3   0.295046 0.343328 0.799990 -0.576689
O15   O     O_2   0.338780 0.265250 0.448290 -0.486739
O16   O     O_3   0.612600 0.359160 0.609560 -0.496208
O17   O     O_2   0.523860 0.190610 0.539387 -0.480893
O18   O     O_3   0.094695 0.126232 0.104956 -0.640290
O19   O     O_3   0.215096 0.041220 0.196666 -0.670367
O20   O     O_3   0.503269 0.843299 0.160303 -0.651484
O21   O     O_3   0.847084 0.742335 0.288856 -0.596044
O22   O     O_3   0.073001 0.349066 0.916790 -0.640678
O23   O     O_3   0.602842 0.238909 0.707642 -0.569130
O24   O     O_3   0.714931 0.066578 0.633332 -0.651296
O25   O     O_2   0.761310 0.404670 0.283870 -0.428053
O26   O     O_3   0.540390 0.428280 0.393140 -0.507039
O27   O     O_3   0.987650 0.584030 0.344390 -0.406994
O28   O     O_3   0.624235 0.256189 0.269461 -0.673470
O29   O     O_3   0.122140 0.620560 0.549160 -0.482174
O30   O     O_3   0.577110 0.640760 0.390430 -0.471560
P1    P     P_3+3 0.592580 0.619730 0.703530 0.972434
P2    P     P_3+3 0.156500 0.273340 0.422460 0.958057
P3    P     P_3+3 0.654270 0.242461 0.605849 0.978505
P4    P     P_3+3 0.597130 0.380190 0.296460 0.964053
P5    P     P_3+3 0.534292 0.763089 0.401011 0.988451
P6    P     P_3+3 0.198870 0.441749 0.770075 0.965301
P7    P     P_3+3 0.035119 0.739746 0.585445 0.931871
P8    P     P_3+3 0.991776 0.543210 0.226237 1.009903

loop_
_geom_bond_atom_site_label_1
_geom_bond_atom_site_label_2
_ccdc_geom_bond_type
C33   P7    S    
O10   P6    S    
H37   N7    S    
C40   H41   S    
Ba2   O4    S    
H60   N12   S    
Ba1   O5    S    
H73   N4    S    
C41   H46   S    
O3    P5    S    
C4    N2    S    
C46   H71   S    
C9    H18   S    
C45   C47   S    
C42   H53   S    
Ba2   O5    S    
O28   P4    S    
C20   C33   A    
O4    P1    S    
C38   O12   S    
C24   C25   A    
C36   H34   S    
C26   C27   A    
C22   C24   A    
C5    C50   S    
C41   O19   S    
C46   H70   S    
C36   C37   S    
O12   P2    S    
C43   H57   S    
C21   P5    S    
C5    P4    S    
C45   O3    S    
O1    P1    D    
C44   H66   S    
Ba1   Ba2   S    
C49   H13   S    
Ba1   O15   S    
C43   O21   S    
C17   P6    S    
C31   H20   S    
C30   H25   S    
C39   O19   S    
C2    C17   A    
C16   N4    S    
O15   P2    D    
H39   N8    S    
C29   C30   A    
C6    C7    S    
C41   H43   S    
C21   C22   A    
C10   C13   S    
C47   O20   S    
C14   H16   S    
C7    C8    S    
Ba2   O26   S    
C40   H40   S    
C3    H15   S    
H33   N6    S    
C18   C27   A    
C18   C32   A    
C49   N12   S    
C35   H23   S    
O5    P2    S    
C44   H69   S    
C12   O14   S    
C48   O21   S    
H50   N10   S    
C48   H11   S    
H62   N2    S    
H35   N6    S    
C40   O18   S    
C36   H45   S    
O29   P7    S    
C2    H17   S    
C48   C49   S    
O30   P5    S    
C37   H56   S    
C4    C16   S    
C38   N7    S    
O16   P3    S    
O26   P4    S    
C47   H9    S    
C23   H2    S    
C34   H5    S    
C3    C5    D    
C1    H76   S    
C14   C15   A    
C19   C32   A    
Ba2   O29   S    
C25   C33   A    
O25   P4    D    
Ba1   P1    S    
O11   P6    D    
C28   C35   S    
C49   H14   S    
Ba1   O16   S    
C13   C17   A    
C34   H4    S    
H51   N11   S    
H38   N8    S    
O7    P7    S    
H29   N1    S    
C18   P3    S    
C12   N9    S    
H74   N4    S    
C16   H26   S    
O13   P1    S    
C15   P1    S    
C41   H44   S    
H61   N12   S    
C44   H68   S    
Ba1   O10   S    
C23   O7    S    
H30   N1    S    
C7    C9    S    
Ba2   O25   S    
C12   H1    S    
C1    C12   S    
Ba2   O30   S    
C2    C15   A    
C38   C39   S    
C26   C31   A    
C11   C13   A    
C42   O20   S    
C20   H22   S    
O23   P3    S    
C45   H8    S    
C35   H12   S    
C4    H21   S    
C37   N5    S    
C42   H55   S    
C6    C50   D    
C29   O24   S    
O8    P8    D    
C47   H10   S    
C25   C30   A    
C40   H42   S    
C50   N3    S    
C22   H24   S    
C23   H3    S    
H36   N7    S    
C46   H72   S    
C9    C10   D    
C43   H59   S    
O2    P5    D    
C46   O24   S    
C42   H54   S    
Ba2   O6    S    
C19   P2    S    
Ba1   P2    S    
C24   C26   A    
H52   N11   S    
O14   P6    S    
Ba2   O27   S    
C28   O28   S    
C43   H58   S    
C27   C29   A    
Ba1   O4    S    
H49   N10   S    
Ba2   P4    S    
C28   H28   S    
C48   O9    S    
C28   H27   S    
H64   N3    S    
Ba1   O26   S    
C32   H19   S    
Ba1   O29   S    
O9    P8    S    
C35   N1    S    
C1    H75   S    
H65   N3    S    
H31   N5    S    
Ba1   O1    S    
H48   N9    S    
C23   C34   S    
C10   O22   S    
C39   O18   S    
C1    H6    S    
C6    P8    S    
C16   H7    S    
C3    C8    S    
O27   P8    S    
C19   C31   A    
C4    O23   S    
O6    P7    D    
C38   H67   S    
C44   O22   S    
C11   C14   A    
C45   N11   S    
C20   C21   A    
H47   N9    S    
C36   O13   S    
C34   N10   S    
H32   N5    S    
C37   N6    S    
C39   N8    S    
O17   P3    D    
H63   N2    S    
