data_mof_unit_24291.cif
_audit_creation_date              2013-03-05T15:55:10-0500
_audit_creation_method            fapswitch 2.2
_symmetry_space_group_name_H-M    P1
_symmetry_Int_Tables_number       1
_space_group_crystal_system       monoclinic
_cell_length_a                    14.654765
_cell_length_b                    16.140814
_cell_length_c                    6.907265
_cell_angle_alpha                 90.0
_cell_angle_beta                  98.82837
_cell_angle_gamma                 90.0
_cell_volume                      1614.48638732

loop_
_atom_site_label
_atom_site_type_symbol
_atom_site_description
_atom_site_fract_x
_atom_site_fract_y
_atom_site_fract_z
_atom_type_partial_charge
O1    O     O_R   0.831700 0.662810 0.581550 -0.582386
O2    O     O_R   0.168300 0.337190 0.418450 -0.588498
O3    O     O_R   0.168300 0.162810 0.418450 -0.582386
O4    O     O_R   0.831700 0.837190 0.581550 -0.588499
O5    O     O_R   0.842890 0.834390 0.255500 -0.593159
O6    O     O_R   0.157110 0.165610 0.744500 -0.573130
O7    O     O_R   0.157110 0.334390 0.744500 -0.593156
O8    O     O_R   0.842890 0.665610 0.255500 -0.573130
O9    O     O_R   0.661690 0.835580 0.024130 -0.600237
O10   O     O_R   0.338310 0.164420 0.975870 -0.605512
O11   O     O_R   0.338310 0.335580 0.975870 -0.600237
O12   O     O_R   0.661690 0.664420 0.024130 -0.605513
C1    C     C_R   0.863799 0.865943 0.430732 1.023542
C2    C     C_R   0.135290 0.134719 0.568425 0.993040
C3    C     C_R   0.136201 0.365943 0.569268 1.023542
C4    C     C_R   0.864710 0.634719 0.431575 0.993040
C5    C     C_R   0.066847 0.065069 0.532922 -0.344089
C6    C     C_R   0.931302 0.936404 0.464331 -0.336845
C7    C     C_R   0.933153 0.565069 0.467078 -0.344089
C8    C     C_R   0.068698 0.436403 0.535669 -0.336845
H1    H     H_    0.003461 0.900588 0.227787 0.176206
H2    H     H_    0.995437 0.100855 0.769666 0.197829
H3    H     H_    0.996539 0.400588 0.772214 0.176208
H4    H     H_    0.004562 0.600854 0.230333 0.197827
C9    C     C_R   0.000405 0.944406 0.345502 -0.175050
C10   C     C_R   0.998414 0.056551 0.652972 -0.175061
C11   C     C_R   0.999595 0.444406 0.654498 -0.175044
C12   C     C_R   0.001585 0.556550 0.347027 -0.175064
O13   O     O_3   0.687240 0.750000 0.366320 -0.252323
O14   O     O_3   0.312760 0.250000 0.633680 -0.252323
V1    V     V_3+5 0.757720 0.750000 0.115230 1.298099
V2    V     V_3+5 0.242280 0.250000 0.884770 1.298101
O15   O     O_R   0.650500 0.664000 0.690740 -0.549751
O16   O     O_R   0.349500 0.336000 0.309260 -0.534491
O17   O     O_R   0.349500 0.164000 0.309260 -0.549751
O18   O     O_R   0.650500 0.836000 0.690740 -0.534490
C13   C     C_R   0.630439 0.633863 0.855621 0.978490
C14   C     C_R   0.373353 0.361934 0.145835 0.987138
C15   C     C_R   0.369561 0.133863 0.144378 0.978489
C16   C     C_R   0.626646 0.861934 0.854165 0.987136
C17   C     C_R   0.067252 0.007565 0.377291 0.417374
C18   C     C_R   0.930174 0.994452 0.618874 0.389552
C19   C     C_R   0.932748 0.507565 0.622709 0.417371
C20   C     C_R   0.069825 0.494451 0.381126 0.389553
V3    V     V_3+5 0.735670 0.750000 0.607790 1.350777
V4    V     V_3+5 0.264330 0.250000 0.392210 1.350778
O19   O     O_3   0.806150 0.750000 0.906560 -0.266781
O20   O     O_3   0.193850 0.250000 0.093440 -0.266779
C21   C     C_2   0.539957 0.908038 0.851904 0.029856
C22   C     C_2   0.439806 0.066503 0.144431 -0.016840
C23   C     C_2   0.460042 0.408039 0.148096 0.029855
C24   C     C_2   0.560193 0.566503 0.855568 -0.016841
C25   C     C_2   0.538592 0.979851 0.955626 0.107119
C26   C     C_2   0.451200 0.025259 0.974719 0.137345
C27   C     C_2   0.461408 0.479851 0.044375 0.107120
C28   C     C_2   0.548800 0.525259 0.025281 0.137346
N1    N     N_R   0.137062 0.010169 0.253675 0.226524
O21   O     O_R   0.125759 0.057716 0.099902 -0.391166
O22   O     O_R   0.199544 0.952344 0.268446 -0.343666
N2    N     N_R   0.857778 0.994245 0.736908 0.236258
O23   O     O_R   0.876895 0.009503 0.923693 -0.389067
O24   O     O_R   0.771900 0.993373 0.653513 -0.361097
N3    N     N_R   0.862937 0.510170 0.746324 0.226524
O25   O     O_R   0.874241 0.557716 0.900098 -0.391166
O26   O     O_R   0.800456 0.452344 0.731554 -0.343666
N4    N     N_R   0.142220 0.494244 0.263091 0.236258
O27   O     O_R   0.123103 0.509493 0.076302 -0.389071
O28   O     O_R   0.228099 0.493375 0.346485 -0.361096
I1    I     I_    0.352701 0.030159 0.707639 -0.086816
I2    I     I_    0.665281 0.042502 0.062260 -0.042931
I3    I     I_    0.647298 0.530159 0.292361 -0.086816
I4    I     I_    0.334718 0.542502 0.937741 -0.042933
N5    N     N_R   0.498622 0.047702 0.326133 0.254778
O29   O     O_R   0.524757 0.106125 0.452349 -0.312485
O30   O     O_R   0.522050 0.971469 0.370803 -0.331573
N6    N     N_R   0.456765 0.861936 0.787819 0.245520
O31   O     O_R   0.449790 0.818129 0.628087 -0.287627
O32   O     O_R   0.398153 0.849007 0.908437 -0.308865
N7    N     N_R   0.501377 0.547703 0.673867 0.254778
O33   O     O_R   0.475243 0.606125 0.547651 -0.312485
O34   O     O_R   0.477949 0.471470 0.629197 -0.331573
N8    N     N_R   0.543235 0.361936 0.212181 0.245520
O35   O     O_R   0.550210 0.318129 0.371913 -0.287627
O36   O     O_R   0.601847 0.349007 0.091562 -0.308864

loop_
_geom_bond_atom_site_label_1
_geom_bond_atom_site_label_2
_geom_bond_distance
_ccdc_geom_bond_type
O6    V2    1.995191 S    
C27   C28   1.498877 S    
N3    O26   1.300500 A    
O15   V3    2.008111 S    
N5    O29   1.301328 A    
N4    O28   1.301299 A    
C19   N3    1.430245 S    
C25   C26   1.498876 S    
O2    V4    2.017963 S    
C22   C26   1.380326 D    
C1    C6    1.501808 S    
C5    C10   1.402673 A    
N6    O32   1.301974 A    
C6    C18   1.422339 A    
N1    O22   1.300503 A    
C16   C21   1.470329 S    
O12   C13   1.282235 A    
N2    O24   1.301298 A    
O4    C1    1.293173 A    
C20   N4    1.433811 S    
O16   V4    2.008111 S    
H3    C11   1.083752 S    
C24   N7    1.441575 S    
O5    C1    1.305536 A    
C27   I4    2.142967 S    
O7    C3    1.305535 A    
N4    O27   1.301054 A    
O8    C4    1.307907 A    
V1    O19   1.701521 S    
V2    O20   1.701521 S    
C2    C5    1.501509 S    
C6    C9    1.403940 A    
C25   I2    2.142967 S    
C8    C20   1.422336 A    
C7    C19   1.420939 A    
O4    V3    2.017961 S    
V3    O19   2.161327 S    
C3    C8    1.501809 S    
V4    O20   2.161329 S    
O18   C16   1.301066 A    
N6    O31   1.301191 A    
C22   N5    1.441575 S    
C9    C17   1.407520 A    
N7    O34   1.301766 A    
C13   C24   1.497229 S    
C14   C23   1.470329 S    
C12   C20   1.409933 A    
O9    C16   1.279798 A    
O15   C13   1.312584 A    
N7    O33   1.301330 A    
O13   V3    1.709457 S    
O10   C15   1.282236 A    
O11   C14   1.279799 A    
O17   C15   1.312584 A    
C7    C12   1.402674 A    
O10   V2    2.003172 S    
O6    C2    1.307907 A    
C28   I3    2.162347 S    
C21   N6    1.438878 S    
O18   V3    2.008111 S    
O1    C4    1.290949 A    
O2    C3    1.293173 A    
C23   N8    1.438879 S    
O3    C2    1.290949 A    
O11   V2    2.003171 S    
N8    O36   1.301975 A    
O12   V1    2.003172 S    
N5    O30   1.301765 A    
C18   N2    1.433812 S    
C10   C18   1.409934 A    
H1    C9    1.083752 S    
O7    V2    1.995190 S    
O16   C14   1.301066 A    
O8    V1    1.995192 S    
O14   V4    1.709457 S    
H4    C12   1.083402 S    
C8    C11   1.403940 A    
O3    V4    2.017964 S    
C17   N1    1.430244 S    
O13   V1    2.150494 S    
O14   V2    2.150494 S    
O1    V3    2.017962 S    
N1    O21   1.300213 A    
C26   I1    2.162347 S    
C4    C7    1.501510 S    
C21   C25   1.364417 D    
C23   C27   1.364416 D    
C5    C17   1.420938 A    
O9    V1    2.003171 S    
N3    O25   1.300213 A    
C11   C19   1.407520 A    
C15   C22   1.497228 S    
N8    O35   1.301191 A    
H2    C10   1.083402 S    
N2    O23   1.301055 A    
O17   V4    2.008111 S    
C24   C28   1.380326 D    
O5    V1    1.995191 S    
