data_mof_unit_51164.cif
_audit_creation_date              2012-12-11T14:03:58-0500
_audit_creation_method            fapswitch 2.2
_symmetry_space_group_name_H-M    P1
_symmetry_Int_Tables_number       1
_space_group_crystal_system       triclinic
_cell_length_a                    19.207212
_cell_length_b                    10.862656
_cell_length_c                    18.981955
_cell_angle_alpha                 90.064541
_cell_angle_beta                  89.418155
_cell_angle_gamma                 90.117878
_cell_volume                      3960.20545222

loop_
_atom_site_label
_atom_site_type_symbol
_atom_type_description
_atom_site_fract_x
_atom_site_fract_y
_atom_site_fract_z
_atom_type_partial_charge
C1    C     C_R   0.241652 0.458575 0.652519 0.570070
C2    C     C_R   0.759927 0.467043 0.353223 0.556789
C3    C     C_R   0.741657 0.958551 0.652536 0.570044
C4    C     C_R   0.259927 0.967043 0.353223 0.556793
C5    C     C_2   0.277544 0.825334 0.533478 -0.129090
C6    C     C_2   0.739734 0.885067 0.463231 -0.119633
C7    C     C_2   0.777558 0.325358 0.533484 -0.129153
C8    C     C_2   0.239672 0.385085 0.463212 -0.119566
C9    C     C_R   0.960215 0.648664 0.438416 -0.019269
C10   C     C_R   0.040442 0.658541 0.562021 -0.012048
C11   C     C_R   0.460215 0.148661 0.438418 -0.019257
C12   C     C_R   0.540445 0.158557 0.562020 -0.012031
C13   C     C_R   0.923033 0.859407 0.462091 -0.041646
C14   C     C_R   0.025976 0.886668 0.560881 -0.071145
C15   C     C_R   0.423006 0.359385 0.462100 -0.041477
C16   C     C_R   0.525952 0.386678 0.560885 -0.071145
C17   C     C_R   0.930558 0.972937 0.495350 0.314347
C18   C     C_R   0.984281 0.988332 0.544249 0.251316
C19   C     C_R   0.430529 0.472922 0.495350 0.314449
C20   C     C_R   0.484257 0.488337 0.544241 0.251342
C21   C     C_R   0.011994 0.768211 0.533504 -0.002410
C22   C     C_R   0.966180 0.759486 0.476516 -0.039660
C23   C     C_R   0.511980 0.268219 0.533509 -0.002369
C24   C     C_R   0.466167 0.259481 0.476520 -0.039617
C25   C     C_R   0.033333 0.546412 0.524332 0.018479
C26   C     C_R   0.986392 0.538282 0.468642 0.039511
C27   C     C_R   0.533355 0.046438 0.524323 0.018455
C28   C     C_R   0.486407 0.038288 0.468640 0.039527
C29   C     C_R   0.071918 0.440481 0.541474 -0.090896
C30   C     C_R   0.968213 0.418767 0.444219 -0.083429
C31   C     C_R   0.571972 0.940540 0.541447 -0.090828
C32   C     C_R   0.468240 0.918766 0.444221 -0.083413
C33   C     C_R   0.060374 0.327421 0.509540 -0.069405
C34   C     C_R   0.006347 0.315414 0.462626 -0.087487
C35   C     C_R   0.560425 0.827463 0.509531 -0.069363
C36   C     C_R   0.506384 0.815426 0.462634 -0.087480
C37   C     C_2   0.238451 0.902511 0.926789 0.372886
C38   C     C_2   0.760448 0.902682 0.073368 0.363146
C39   C     C_2   0.738451 0.402511 0.926788 0.372887
C40   C     C_2   0.260448 0.402682 0.073368 0.363148
C41   C     C_2   0.248961 0.898335 0.084570 -0.084035
C42   C     C_2   0.750498 0.900415 0.915744 -0.091662
C43   C     C_2   0.748961 0.398335 0.084570 -0.084034
C44   C     C_2   0.250498 0.400415 0.915744 -0.091671
C45   C     C_R   0.226710 0.873219 0.647195 0.541843
C46   C     C_R   0.768892 0.887581 0.343154 0.525369
C47   C     C_R   0.726711 0.373224 0.647197 0.541879
C48   C     C_R   0.268889 0.387589 0.343146 0.525362
C49   C     C_2   0.192308 0.924191 0.047315 -0.063656
C50   C     C_2   0.806470 0.930256 0.953170 -0.060061
C51   C     C_2   0.692308 0.424191 0.047315 -0.063656
C52   C     C_2   0.306470 0.430256 0.953170 -0.060065
C53   C     C_2   0.185821 0.889576 0.973864 0.346373
C54   C     C_2   0.813842 0.898603 0.026655 0.365843
C55   C     C_2   0.685821 0.389576 0.973864 0.346372
C56   C     C_2   0.313842 0.398603 0.026655 0.365845
C57   C     C_2   0.985048 0.654524 0.913491 0.300277
C58   C     C_2   0.971381 0.653520 0.072062 0.357742
C59   C     C_2   0.485049 0.154524 0.913491 0.300284
C60   C     C_2   0.471382 0.153520 0.072062 0.357743
C61   C     C_2   0.953418 0.564053 0.026585 0.239415
C62   C     C_2   0.987772 0.557070 0.958029 0.249878
C63   C     C_2   0.453420 0.064054 0.026586 0.239412
C64   C     C_2   0.487775 0.057072 0.958031 0.249870
C65   C     C_R   0.061245 0.651255 0.637115 0.527242
C66   C     C_R   0.938785 0.649160 0.363058 0.530846
C67   C     C_R   0.561246 0.151258 0.637115 0.527258
C68   C     C_R   0.438785 0.149159 0.363059 0.530844
C69   C     C_R   0.238591 0.464366 0.850022 0.554561
C70   C     C_R   0.761308 0.464224 0.149926 0.564489
C71   C     C_R   0.738591 0.964366 0.850022 0.554549
C72   C     C_R   0.261308 0.964224 0.149926 0.564487
C73   C     C_R   0.225321 0.870633 0.854155 0.624671
C74   C     C_R   0.774567 0.870538 0.145803 0.596811
C75   C     C_R   0.725321 0.370633 0.854155 0.624673
C76   C     C_R   0.274567 0.370538 0.145803 0.596806
C77   C     C_R   0.027935 0.651460 0.849821 0.601258
C78   C     C_R   0.941955 0.648229 0.141437 0.662201
C79   C     C_R   0.527935 0.151460 0.849820 0.601256
C80   C     C_R   0.441956 0.148229 0.141437 0.662200
C81   C     C_2   0.247332 0.909550 0.576162 -0.043335
C82   C     C_2   0.742663 0.949880 0.404351 -0.082591
C83   C     C_2   0.747333 0.409562 0.576165 -0.043315
C84   C     C_2   0.242647 0.449900 0.404334 -0.082523
C85   C     C_2   0.241327 0.908396 0.420007 0.358425
C86   C     C_2   0.755186 0.892304 0.588676 0.381530
C87   C     C_2   0.741328 0.408402 0.420009 0.358427
C88   C     C_2   0.255185 0.392370 0.588647 0.381607
C89   C     C_2   0.287396 0.845264 0.457593 -0.134052
C90   C     C_2   0.739640 0.949884 0.529439 -0.098642
C91   C     C_2   0.787399 0.345271 0.457595 -0.134081
C92   C     C_2   0.239505 0.449888 0.529423 -0.098742
Cr1   Cr    Cr6+3 0.113970 0.508630 0.747920 1.081705
Cr2   Cr    Cr6+3 0.886030 0.508630 0.252080 1.046490
Cr3   Cr    Cr6+3 0.613970 0.008630 0.747920 1.081790
Cr4   Cr    Cr6+3 0.386030 0.008630 0.252080 1.046494
Cr5   Cr    Cr6+3 0.269200 0.666740 0.749850 1.073192
Cr6   Cr    Cr6+3 0.730800 0.666740 0.250150 1.075039
Cr7   Cr    Cr6+3 0.769200 0.166740 0.749850 1.073134
Cr8   Cr    Cr6+3 0.230800 0.166740 0.250150 1.075036
Cr9   Cr    Cr6+3 0.112300 0.820070 0.749800 1.066808
Cr10  Cr    Cr6+3 0.887700 0.820070 0.250200 1.099751
Cr11  Cr    Cr6+3 0.612300 0.320070 0.749800 1.066871
Cr12  Cr    Cr6+3 0.387700 0.320070 0.250200 1.099747
H1    H     H_    0.332720 0.805805 0.432358 0.098630
H2    H     H_    0.724947 0.046790 0.530399 0.075521
H3    H     H_    0.832715 0.305793 0.432356 0.098652
H4    H     H_    0.224666 0.546730 0.530392 0.075358
H5    H     H_    0.289675 0.839736 0.062977 0.169856
H6    H     H_    0.709936 0.841037 0.937133 0.180420
H7    H     H_    0.789675 0.339735 0.062977 0.169853
H8    H     H_    0.209936 0.341037 0.937133 0.180418
H9    H     H_    0.295403 0.738235 0.554498 0.156759
H10   H     H_    0.746620 0.785516 0.462330 0.186572
H11   H     H_    0.795439 0.238279 0.554509 0.156723
H12   H     H_    0.246569 0.285539 0.462319 0.186531
H13   H     H_    0.229862 0.997794 0.556264 0.195620
H14   H     H_    0.742519 0.050031 0.405311 0.129258
H15   H     H_    0.729850 0.497796 0.556265 0.195749
H16   H     H_    0.242501 0.550045 0.405296 0.129276
H17   H     H_    0.879327 0.844238 0.429575 0.164753
H18   H     H_    0.069544 0.902272 0.594511 0.168900
H19   H     H_    0.379294 0.344197 0.429590 0.164741
H20   H     H_    0.569514 0.402285 0.594520 0.168882
H21   H     H_    0.925814 0.403941 0.408966 0.145752
H22   H     H_    0.112161 0.444977 0.578692 0.147180
H23   H     H_    0.425838 0.903922 0.408974 0.145732
H24   H     H_    0.612242 0.945090 0.578633 0.147132
H25   H     H_    0.092123 0.248760 0.522874 0.168409
H26   H     H_    0.994656 0.226735 0.439544 0.161815
H27   H     H_    0.592185 0.748815 0.522860 0.168443
H28   H     H_    0.494694 0.726734 0.439565 0.161795
H29   H     H_    0.149401 0.976296 0.070088 0.192856
H30   H     H_    0.848844 0.983750 0.930245 0.179312
H31   H     H_    0.649401 0.476298 0.070087 0.192856
H32   H     H_    0.348844 0.483750 0.930245 0.179316
O1    O     O_R   0.043230 0.549300 0.667990 -0.497393
O2    O     O_R   0.956770 0.549300 0.332010 -0.512966
O3    O     O_R   0.543230 0.049300 0.667990 -0.497335
O4    O     O_R   0.456770 0.049300 0.332010 -0.512968
O5    O     O_R   0.262920 0.788600 0.824420 -0.485447
O6    O     O_R   0.737080 0.788600 0.175580 -0.485394
O7    O     O_R   0.762920 0.288600 0.824420 -0.485448
O8    O     O_R   0.237080 0.288600 0.175580 -0.485397
O9    O     O_R   0.167530 0.905110 0.830340 -0.472853
O10   O     O_R   0.832470 0.905110 0.169660 -0.487792
O11   O     O_R   0.667530 0.405110 0.830340 -0.472843
O12   O     O_R   0.332470 0.405110 0.169660 -0.487797
O13   O     O_R   0.054010 0.748440 0.822860 -0.473887
O14   O     O_R   0.945990 0.748440 0.177140 -0.430935
O15   O     O_R   0.554010 0.248440 0.822860 -0.473878
O16   O     O_R   0.445990 0.248440 0.177140 -0.430936
O17   O     O_3   0.165160 0.665150 0.749190 -0.299325
O18   O     O_3   0.834840 0.665150 0.250810 -0.325548
O19   O     O_3   0.665160 0.165150 0.749190 -0.299343
O20   O     O_3   0.334840 0.165150 0.250810 -0.325543
O21   O     O_R   0.178620 0.457600 0.674100 -0.556297
O22   O     O_R   0.821380 0.457600 0.325900 -0.574352
O23   O     O_R   0.678620 0.957600 0.674100 -0.556138
O24   O     O_R   0.321380 0.957600 0.325900 -0.574339
O25   O     O_R   0.284680 0.542100 0.669460 -0.516799
O26   O     O_R   0.715320 0.542100 0.330540 -0.451920
O27   O     O_R   0.784680 0.042100 0.669460 -0.516948
O28   O     O_R   0.215320 0.042100 0.330540 -0.451924
O29   O     O_R   0.262860 0.790390 0.676650 -0.496176
O30   O     O_R   0.737140 0.790390 0.323350 -0.498092
O31   O     O_R   0.762860 0.290390 0.676650 -0.496190
O32   O     O_R   0.237140 0.290390 0.323350 -0.498109
O33   O     O_R   0.167460 0.907030 0.670940 -0.538976
O34   O     O_R   0.832540 0.907030 0.329060 -0.522071
O35   O     O_R   0.667460 0.407030 0.670940 -0.538920
O36   O     O_R   0.332540 0.407030 0.329060 -0.522062
O37   O     O_R   0.053950 0.750220 0.675100 -0.514199
O38   O     O_R   0.946050 0.750220 0.324900 -0.479436
O39   O     O_R   0.553950 0.250220 0.675100 -0.514188
O40   O     O_R   0.446050 0.250220 0.324900 -0.479444
O41   O     O_R   0.043300 0.547370 0.827390 -0.450223
O42   O     O_R   0.956700 0.547370 0.172610 -0.489517
O43   O     O_R   0.543300 0.047370 0.827390 -0.450231
O44   O     O_R   0.456700 0.047370 0.172610 -0.489517
O45   O     O_R   0.178690 0.455820 0.821860 -0.467869
O46   O     O_R   0.821310 0.455820 0.178140 -0.475534
O47   O     O_R   0.678690 0.955820 0.821860 -0.467868
O48   O     O_R   0.321310 0.955820 0.178140 -0.475536
O49   O     O_R   0.284750 0.540170 0.828860 -0.516115
O50   O     O_R   0.715250 0.540170 0.171140 -0.508937
O51   O     O_R   0.784750 0.040170 0.828860 -0.516128
O52   O     O_R   0.215250 0.040170 0.171140 -0.508935
F1    F     F_    0.121250 0.854701 0.952667 -0.623747
F2    F     F_    0.879986 0.875544 0.047875 -0.584099
F3    F     F_    0.621250 0.354700 0.952667 -0.623742
F4    F     F_    0.379986 0.375543 0.047875 -0.584096
F5    F     F_    0.302407 0.943917 0.945126 -0.676587
F6    F     F_    0.694039 0.928550 0.054063 -0.669965
F7    F     F_    0.802406 0.443918 0.945126 -0.676587
F8    F     F_    0.194039 0.428551 0.054063 -0.669965
O53   O     O_3   0.908707 0.470838 0.047862 -0.689973
H33   H     H_    0.908008 0.406616 0.010757 0.374198
O54   O     O_3   0.028461 0.454608 0.943270 -0.671476
H34   H     H_    0.029036 0.399954 0.985097 0.349369
O55   O     O_3   0.408710 0.970838 0.047861 -0.689971
H35   H     H_    0.408012 0.906616 0.010756 0.374198
O56   O     O_3   0.528467 0.954613 0.943272 -0.671474
H36   H     H_    0.529043 0.899959 0.985100 0.349372
O57   O     O_3   0.021158 0.742970 0.058287 -0.601828
H37   H     H_    0.058324 0.706245 0.028577 0.352265
O58   O     O_3   0.944440 0.755815 0.929878 -0.641059
H38   H     H_    0.947834 0.815426 0.890490 0.337168
O59   O     O_3   0.521158 0.242972 0.058288 -0.601826
H39   H     H_    0.558325 0.206248 0.028579 0.352267
O60   O     O_3   0.444439 0.255813 0.929877 -0.641050
H40   H     H_    0.447819 0.315409 0.890481 0.337158
F9    F     F_    0.177161 0.933843 0.447737 -0.646305
F10   F     F_    0.771671 0.770556 0.590582 -0.663257
F11   F     F_    0.677165 0.433857 0.447742 -0.646307
F12   F     F_    0.271905 0.270705 0.590545 -0.663163
O61   O     O_3   0.884693 0.065564 0.478343 -0.726841
H41   H     H_    0.895052 0.139369 0.506943 0.354550
O62   O     O_3   0.993328 0.100578 0.577102 -0.727810
H42   H     H_    0.032025 0.094352 0.611103 0.327283
O63   O     O_3   0.384660 0.565536 0.478341 -0.726795
H43   H     H_    0.395032 0.639361 0.506918 0.354548
O64   O     O_3   0.493309 0.600601 0.577075 -0.727743
H44   H     H_    0.532046 0.594409 0.611040 0.327286

loop_
_geom_bond_atom_site_label_1
_geom_bond_atom_site_label_2
_ccdc_geom_bond_type
Cr10  O34   S    
C7    C83   D    
O56   H36   S    
C56   F4    S    
C14   H18   S    
C87   C91   D    
O55   H35   S    
Cr12  O12   S    
Cr9   O37   S    
C35   C36   A    
C19   O63   S    
C43   C51   D    
C2    O26   A    
Cr7   O51   S    
C13   H17   S    
C68   O40   A    
Cr11  O11   S    
C57   C62   D    
Cr12  O40   S    
C73   O5    A    
O57   H37   S    
Cr5   O49   S    
C12   C23   A    
Cr9   O9    S    
C59   C64   D    
C50   C54   S    
C15   H19   S    
C60   C63   D    
C6    C82   D    
C80   O44   A    
C14   C21   A    
Cr7   O7    S    
Cr8   O52   S    
C62   O54   S    
C85   F9    S    
C36   H28   S    
C38   C74   S    
C49   C53   S    
C9    C22   A    
C7    H11   S    
C81   H13   S    
C11   C24   A    
C47   O31   A    
Cr2   O42   S    
C83   H15   S    
C14   C18   A    
C9    C66   S    
C6    H10   S    
C37   C73   S    
C46   C82   S    
C51   H31   S    
C70   O46   A    
C39   C55   D    
C88   C92   D    
C29   C33   A    
C67   O39   A    
C40   C56   D    
Cr7   O19   S    
C13   C22   A    
C23   C24   A    
C4    O28   A    
Cr9   O33   S    
C8    C92   S    
C55   F3    S    
C39   C75   S    
C46   O30   A    
C60   O59   S    
Cr10  O18   S    
Cr3   O19   S    
C16   C20   A    
Cr12  O36   S    
C65   O1    A    
C44   C52   D    
C58   C61   D    
C74   O6    A    
C30   H21   S    
C1    O25   A    
O54   H34   S    
Cr2   O22   S    
C48   O36   A    
C21   C22   A    
Cr6   O6    S    
C3    C86   S    
C3    O23   A    
C61   C62   S    
Cr1   O45   S    
C31   H24   S    
Cr4   O48   S    
C18   O62   S    
C41   C49   D    
Cr6   O26   S    
C59   O60   S    
C9    C26   A    
C17   C18   A    
Cr7   O31   S    
C10   C21   A    
C25   C29   A    
C29   H22   S    
C12   C67   S    
C30   C34   A    
C12   C27   A    
C27   C31   A    
O58   H38   S    
C91   H3    S    
C28   C32   A    
Cr1   O1    S    
C63   O55   S    
C90   H2    S    
O64   H44   S    
Cr8   O8    S    
C61   O53   S    
O62   H42   S    
C33   H25   S    
Cr1   O41   S    
C34   H26   S    
C42   H6    S    
C4    C85   S    
C58   O57   S    
C75   O11   A    
O61   H41   S    
C6    C90   S    
C39   F7    S    
Cr12  O20   S    
C38   F6    S    
C73   O9    A    
Cr2   O2    S    
C37   F5    S    
C15   C19   A    
C86   F10   S    
O63   H43   S    
C65   O37   A    
C57   C77   S    
C5    C81   D    
O60   H40   S    
C66   O2    A    
Cr9   O17   S    
C84   H16   S    
C7    C91   S    
Cr11  O15   S    
Cr11  O39   S    
O59   H39   S    
C2    C87   S    
Cr8   O28   S    
C1    O21   A    
Cr4   O44   S    
Cr1   O21   S    
Cr5   O5    S    
Cr6   O30   S    
C46   O34   A    
C75   O7    A    
C42   C50   D    
C41   C72   S    
Cr7   O27   S    
C44   H8    S    
C10   C25   A    
Cr11  O19   S    
C15   C24   A    
Cr4   O24   S    
C64   O56   S    
Cr10  O14   S    
C26   C30   A    
C16   C23   A    
Cr5   O17   S    
C86   C90   D    
C52   H32   S    
Cr3   O23   S    
C72   O52   A    
Cr10  O38   S    
Cr8   O20   S    
C82   H14   S    
C59   C79   S    
C69   O49   A    
C67   O3    A    
C11   C68   S    
C78   O14   A    
C79   O15   A    
C40   F8    S    
C10   C65   S    
Cr3   O43   S    
C80   O16   A    
C49   H29   S    
C60   C80   S    
C85   C89   D    
C88   F12   S    
C5    H9    S    
C32   H23   S    
C78   O42   A    
C72   O48   A    
Cr3   O3    S    
C74   O10   A    
C45   C81   S    
C71   O51   A    
C47   C83   S    
C76   O8    A    
C45   O33   A    
Cr4   O4    S    
C47   O35   A    
C32   C36   A    
C77   O13   A    
C3    O27   A    
C43   C70   S    
C57   O58   S    
C8    H12   S    
Cr5   O25   S    
C87   F11   S    
C13   C17   A    
Cr8   O32   S    
C38   C54   D    
Cr12  O16   S    
C19   C20   A    
Cr1   O17   S    
C25   C26   A    
C35   H27   S    
C37   C53   D    
Cr6   O50   S    
Cr10  O10   S    
C17   O61   S    
C4    O24   A    
Cr6   O18   S    
Cr11  O35   S    
Cr3   O47   S    
Cr4   O20   S    
Cr2   O18   S    
C53   F1    S    
C11   C28   A    
C1    C88   S    
Cr5   O29   S    
C50   H30   S    
C31   C35   A    
Cr9   O13   S    
C42   C71   S    
C20   O64   S    
C33   C34   A    
C54   F2    S    
C51   C55   S    
C16   H20   S    
O53   H33   S    
C77   O41   A    
C68   O4    A    
C58   C78   S    
C63   C64   S    
C43   H7    S    
C48   C84   S    
C79   O43   A    
C2    O22   A    
C76   O12   A    
C8    C84   D    
C40   C76   S    
C89   H1    S    
C27   C28   A    
C44   C69   S    
C66   O38   A    
C41   H5    S    
Cr2   O46   S    
C70   O50   A    
C92   H4    S    
C45   O29   A    
C48   O32   A    
C5    C89   S    
C52   C56   S    
C69   O45   A    
C71   O47   A    
