data_mof_unit_25998.cif
_audit_creation_date              2012-10-26T18:26:34-0400
_audit_creation_method            fapswitch 2.2
_symmetry_space_group_name_H-M    P1
_symmetry_Int_Tables_number       1
_space_group_crystal_system       triclinic
_cell_length_a                    15.861228
_cell_length_b                    8.671304
_cell_length_c                    7.556569
_cell_angle_alpha                 103.244435
_cell_angle_beta                  95.78541
_cell_angle_gamma                 93.364932
_cell_volume                      1002.91870896

loop_
_atom_site_label
_atom_site_type_symbol
_atom_type_description
_atom_site_fract_x
_atom_site_fract_y
_atom_site_fract_z
_atom_type_partial_charge
C1    C     C_R   0.497339 0.199894 0.453076 0.542415
C2    C     C_3   0.982132 0.637639 0.602062 -0.041897
C3    C     C_1   0.250759 0.499586 0.497797 0.095941
C4    C     C_1   0.749223 0.499706 0.501815 0.108446
C5    C     C_3   0.038942 0.517889 0.667615 -0.047763
C6    C     C_3   0.960957 0.480113 0.327897 -0.045143
C7    C     C_3   0.083622 0.499221 0.493012 0.046736
C8    C     C_3   0.916188 0.498864 0.502746 0.048488
C9    C     C_1   0.175248 0.499501 0.494660 0.118256
C10   C     C_1   0.824672 0.499196 0.503610 0.134159
C11   C     C_2   0.034924 0.204213 0.275011 0.238350
C12   C     C_R   0.502662 0.800106 0.546925 0.540903
C13   C     C_2   0.965056 0.794146 0.720270 0.213360
C14   C     C_2   0.945152 0.243363 0.647472 0.242847
C15   C     C_2   0.054830 0.754601 0.348442 0.219522
C16   C     C_2   0.919057 0.457281 0.135711 0.249438
C17   C     C_2   0.084517 0.540815 0.856437 0.214990
C18   C     C_2   0.402069 0.370889 0.934801 0.473764
C19   C     C_2   0.597860 0.629469 0.065203 0.475728
C20   C     C_R   0.340236 0.499462 0.499583 0.551004
C21   C     C_R   0.659767 0.500392 0.500382 0.551843
C22   C     C_2   0.496050 0.031414 0.427375 -0.126340
C23   C     C_2   0.503955 0.968587 0.572625 -0.125943
C24   C     C_3   0.972746 0.379100 0.568464 -0.014582
C25   C     C_3   0.027175 0.618830 0.427258 -0.029861
C26   C     C_3   0.017809 0.360461 0.393661 -0.023807
Cu1   Cu    Cu3+1 0.509330 0.517380 0.684380 1.049605
Cu2   Cu    Cu3+1 0.490670 0.482620 0.315620 1.050534
H1    H     H_    0.488574 0.958852 0.287928 0.132402
H2    H     H_    0.594436 0.726223 0.181949 0.091828
H3    H     H_    0.511432 0.041148 0.712073 0.133817
H4    H     H_    0.982286 0.116808 0.212676 0.122482
H5    H     H_    0.017700 0.881713 0.782034 0.121399
H6    H     H_    0.991968 0.168044 0.688269 0.140101
H7    H     H_    0.007785 0.827747 0.303740 0.121807
H8    H     H_    0.957204 0.436066 0.023257 0.136394
H9    H     H_    0.082283 0.651440 0.956938 0.140948
H10   H     H_    0.405500 0.272918 0.819264 0.093012
N1    N     N_2   0.476600 0.456420 0.038510 -0.188442
N2    N     N_2   0.523400 0.543580 0.961490 -0.188012
O1    O     O_R   0.506070 0.286130 0.619780 -0.538107
O2    O     O_2   0.892613 0.823882 0.747686 -0.457135
O3    O     O_2   0.870606 0.216841 0.666261 -0.454728
O4    O     O_2   0.129716 0.783758 0.334505 -0.468412
O5    O     O_2   0.842340 0.460975 0.104548 -0.425772
O6    O     O_2   0.125048 0.436098 0.897060 -0.443887
O7    O     O_2   0.332308 0.403116 0.979804 -0.435520
O8    O     O_2   0.667597 0.599158 0.018717 -0.429543
O9    O     O_R   0.493930 0.713870 0.380220 -0.540391
O10   O     O_R   0.490300 0.256770 0.308360 -0.503478
O11   O     O_R   0.509700 0.743230 0.691640 -0.504272
O12   O     O_R   0.386960 0.514660 0.655680 -0.519663
O13   O     O_R   0.613040 0.485340 0.344320 -0.514317
O14   O     O_R   0.371190 0.485310 0.344260 -0.442346
O15   O     O_R   0.628810 0.514690 0.655740 -0.442420
O16   O     O_2   0.107398 0.174565 0.247777 -0.448740

loop_
_geom_bond_atom_site_label_1
_geom_bond_atom_site_label_2
_ccdc_geom_bond_type
C16   O5    D    
C14   H6    S    
C18   N1    S    
C13   H5    S    
C3    C9    T    
C22   H1    S    
C1    O10   A    
Cu1   O1    S    
C7    C25   S    
Cu1   N2    S    
Cu2   O13   S    
C18   O7    D    
C12   O9    A    
C18   H10   S    
C1    C22   S    
C20   O12   A    
C17   H9    S    
C16   H8    S    
C21   O13   A    
C4    C21   S    
C5    C24   S    
C12   C23   S    
C6    C26   S    
C7    C26   S    
Cu2   O10   S    
C15   H7    S    
C13   O2    D    
C8    C24   S    
Cu1   O11   S    
C11   H4    S    
C2    C25   S    
C5    C7    S    
C15   O4    D    
Cu1   O15   S    
C15   C25   S    
C2    C5    S    
C5    C17   S    
C19   N2    S    
C6    C16   S    
C6    C25   S    
C11   C26   S    
C7    C9    S    
C3    C20   S    
C12   O11   A    
C17   O6    D    
Cu1   O12   S    
C20   O14   A    
Cu2   O9    S    
C14   C24   S    
N1    N2    D    
C21   O15   A    
C2    C13   S    
Cu2   O14   S    
C22   C23   D    
C6    C8    S    
Cu2   N1    S    
C19   O8    D    
C19   H2    S    
C4    C10   T    
C8    C10   S    
C2    C8    S    
C11   O16   D    
C1    O1    A    
C24   C26   S    
C14   O3    D    
Cu1   Cu2   S    
C23   H3    S    
