data_mof_unit_34931.cif
_audit_creation_date              2012-12-11T15:18:38-0500
_audit_creation_method            fapswitch 2.2
_symmetry_space_group_name_H-M    P1
_symmetry_Int_Tables_number       1
_space_group_crystal_system       triclinic
_cell_length_a                    6.9447
_cell_length_b                    19.902232
_cell_length_c                    23.768799
_cell_angle_alpha                 93.60789
_cell_angle_beta                  91.379949
_cell_angle_gamma                 88.457587
_cell_volume                      3276.68089983

loop_
_atom_site_label
_atom_site_type_symbol
_atom_type_description
_atom_site_fract_x
_atom_site_fract_y
_atom_site_fract_z
_atom_type_partial_charge
O1    O     O_R   0.620100 0.812200 0.810870 -0.541217
O2    O     O_R   0.379900 0.187800 0.189130 -0.541236
O3    O     O_R   0.296960 0.671650 0.794750 -0.539207
O4    O     O_R   0.703040 0.328350 0.205250 -0.537281
O5    O     O_R   0.120160 0.687800 0.689130 -0.540302
O6    O     O_R   0.879840 0.312200 0.310870 -0.539967
C1    C     C_R   0.469094 0.647057 0.804691 0.709053
C2    C     C_R   0.530897 0.352934 0.195300 0.707835
O7    O     O_R   0.290810 0.810670 0.817290 -0.537485
O8    O     O_R   0.709190 0.189330 0.182710 -0.537592
O9    O     O_R   0.113980 0.827820 0.711840 -0.535327
O10   O     O_R   0.886020 0.172180 0.288160 -0.535607
C3    C     C_R   0.459206 0.832216 0.833591 0.710752
C4    C     C_R   0.540793 0.167806 0.166395 0.710837
O11   O     O_R   0.626290 0.672180 0.788160 -0.536050
O12   O     O_R   0.373710 0.327820 0.211840 -0.536347
O13   O     O_3   0.451520 0.755460 0.715370 -0.370014
O14   O     O_3   0.548480 0.244540 0.284630 -0.370347
V1    V     V_3+5 0.179200 0.748980 0.756420 1.415434
V2    V     V_3+5 0.820800 0.251020 0.243580 1.418050
O15   O     O_R   0.783880 0.828350 0.705250 -0.540076
O16   O     O_R   0.216120 0.171650 0.294750 -0.540244
C5    C     C_R   0.949571 0.852777 0.694952 0.692458
C6    C     C_R   0.050428 0.147223 0.305048 0.691361
O17   O     O_R   0.790030 0.689320 0.682700 -0.543299
O18   O     O_R   0.209970 0.310680 0.317300 -0.543837
C7    C     C_R   0.958975 0.668210 0.665672 0.707461
C8    C     C_R   0.041025 0.331781 0.334335 0.709232
V3    V     V_3+5 0.678400 0.751010 0.743570 1.409364
V4    V     V_3+5 0.321600 0.248990 0.256430 1.410076
O19   O     O_3   0.955950 0.744540 0.784620 -0.365268
O20   O     O_3   0.044050 0.255460 0.215380 -0.365148
C9    C     C_R   0.181116 0.425847 0.396330 -0.216500
C10   C     C_R   0.818917 0.574113 0.603701 -0.223585
C11   C     C_R   0.030889 0.380783 0.383949 -0.082973
C12   C     C_R   0.969122 0.619190 0.616070 -0.082709
C13   C     C_R   0.868709 0.383609 0.418554 -0.222875
C14   C     C_R   0.131311 0.616357 0.581470 -0.222801
C15   C     C_R   0.856534 0.430337 0.465220 0.090876
C16   C     C_R   0.143507 0.569616 0.534813 0.089138
C17   C     C_R   0.006373 0.476028 0.476824 0.052694
C18   C     C_R   0.993673 0.523922 0.523213 0.053502
C19   C     C_R   0.168735 0.473978 0.442065 0.090340
C20   C     C_R   0.831313 0.525972 0.557973 0.091729
C21   C     C_R   0.697036 0.432244 0.500513 -0.192501
C22   C     C_R   0.303017 0.567704 0.499525 -0.191081
C23   C     C_R   0.684722 0.479545 0.546520 -0.185216
C24   C     C_R   0.315337 0.520401 0.453521 -0.178092
H1    H     H_    0.305842 0.424387 0.369653 0.122690
H2    H     H_    0.694194 0.575575 0.630379 0.121047
H3    H     H_    0.752691 0.348891 0.409503 0.125960
H4    H     H_    0.247320 0.651081 0.590515 0.126467
H5    H     H_    0.580950 0.397396 0.492326 0.132939
H6    H     H_    0.419102 0.602552 0.507712 0.134256
H7    H     H_    0.559619 0.480100 0.572944 0.134128
H8    H     H_    0.440445 0.519844 0.427100 0.137553
C25   C     C_R   0.947328 0.914254 0.663305 -0.040033
C26   C     C_R   0.052666 0.085747 0.336696 -0.039645
C27   C     C_R   0.864116 0.032646 0.659718 -0.160253
C28   C     C_R   0.135836 0.967347 0.340279 -0.160332
C29   C     C_R   0.881511 0.974881 0.689684 -0.178503
C30   C     C_R   0.118438 0.025113 0.310312 -0.178518
C31   C     C_R   0.994838 0.911633 0.605947 -0.212974
C32   C     C_R   0.005183 0.088371 0.394058 -0.213117
C33   C     C_R   0.974159 0.969754 0.573835 0.085676
C34   C     C_R   0.025849 0.030249 0.426167 0.085645
C35   C     C_R   0.908148 0.030596 0.602286 0.139153
C36   C     C_R   0.091837 0.969402 0.397714 0.138879
C37   C     C_R   0.013590 0.969633 0.514662 0.057490
C38   C     C_R   0.986423 0.030369 0.485340 0.057797
C39   C     C_R   0.921521 0.089185 0.516222 -0.187112
C40   C     C_R   0.078486 0.910816 0.483780 -0.186632
C41   C     C_R   0.883792 0.089104 0.573307 -0.200977
C42   C     C_R   0.116198 0.910894 0.426693 -0.200361
H9    H     H_    0.833456 0.135600 0.595031 0.124545
H10   H     H_    0.166520 0.864396 0.404967 0.125627
H11   H     H_    0.957975 0.136718 0.412392 0.093745
H12   H     H_    0.042076 0.863291 0.587615 0.094131
H13   H     H_    0.157168 0.022594 0.266339 0.102794
H14   H     H_    0.842752 0.977395 0.733655 0.103004
H15   H     H_    0.812992 0.079038 0.681397 0.115351
H16   H     H_    0.186933 0.920952 0.318597 0.114827
H17   H     H_    0.897511 0.136615 0.497469 0.123248
H18   H     H_    0.102492 0.863385 0.502532 0.123864
C43   C     C_R   0.492017 0.585252 0.835590 -0.070774
C44   C     C_R   0.507947 0.414900 0.164616 -0.107897
C45   C     C_R   0.624217 0.471395 0.837610 0.233157
C46   C     C_R   0.376317 0.528777 0.163485 0.218419
C47   C     C_R   0.575491 0.528328 0.808369 -0.248578
C48   C     C_R   0.426118 0.471789 0.192185 -0.154189
C49   C     C_R   0.453758 0.585407 0.893133 -0.207428
C50   C     C_R   0.544255 0.414935 0.107035 -0.207415
C51   C     C_R   0.502721 0.528828 0.925205 -0.000220
C52   C     C_R   0.495407 0.471741 0.075244 0.023384
C53   C     C_R   0.592634 0.471285 0.896669 0.123550
C54   C     C_R   0.405993 0.529416 0.104033 0.077041
C55   C     C_R   0.469445 0.528549 0.984826 0.038445
C56   C     C_R   0.528748 0.471961 0.015608 0.045519
C57   C     C_R   0.621126 0.417250 0.985883 -0.263767
C58   C     C_R   0.377688 0.583262 0.014524 -0.226747
C59   C     C_R   0.652052 0.416067 0.928093 0.196901
C60   C     C_R   0.346876 0.584656 0.072336 0.174020
H19   H     H_    0.602124 0.368356 0.088251 0.105746
H20   H     H_    0.394310 0.631900 0.911662 0.103046
H21   H     H_    0.396780 0.471482 0.236796 0.128304
H22   H     H_    0.606409 0.528413 0.763852 0.111315
H23   H     H_    0.675328 0.373669 0.006267 0.127136
H24   H     H_    0.324236 0.626876 0.994038 0.126307
C61   C     C_R   0.522602 0.046986 0.127239 0.104183
C62   C     C_R   0.477508 0.953050 0.872731 0.104102
C63   C     C_R   0.530828 0.116586 0.118695 -0.095607
C64   C     C_R   0.469225 0.883452 0.881280 -0.095522
C65   C     C_R   0.526713 0.138780 0.064189 -0.255688
C66   C     C_R   0.473571 0.861265 0.935784 -0.255789
C67   C     C_R   0.511836 0.093517 0.016382 0.091844
C68   C     C_R   0.488610 0.906528 0.983583 0.091684
C69   C     C_R   0.506331 0.023415 0.023910 -0.009640
C70   C     C_R   0.494063 0.976629 0.976054 -0.009672
C71   C     C_R   0.513486 0.000002 0.079255 0.062622
C72   C     C_R   0.486872 0.000037 0.920710 0.062714
C73   C     C_R   0.502464 0.116656 0.961147 0.147776
C74   C     C_R   0.498242 0.883385 0.038814 0.148869
C75   C     C_R   0.489333 0.069953 0.914690 -0.228749
C76   C     C_R   0.511311 0.930082 0.085272 -0.229521
H25   H     H_    0.533166 0.192448 0.060108 0.121231
H26   H     H_    0.467159 0.807599 0.939868 0.121288
H27   H     H_    0.478627 0.089792 0.873499 0.138149
H28   H     H_    0.522242 0.910236 0.126460 0.137381
N1    N     N_3   0.749391 0.358081 0.902164 -0.617743
H29   H     H_    0.883636 0.352111 0.922387 0.227372
H30   H     H_    0.668669 0.315758 0.908451 0.225862
N2    N     N_3   0.250250 0.643051 0.097669 -0.706456
H31   H     H_    0.331670 0.685127 0.091139 0.230594
H32   H     H_    0.116160 0.649034 0.077360 0.234638
N3    N     N_3   0.708540 0.414376 0.806527 -0.617556
H33   H     H_    0.612110 0.398969 0.774069 0.223233
H34   H     H_    0.834298 0.429626 0.788181 0.227903
N4    N     N_3   0.294011 0.584263 0.196876 -0.669190
H35   H     H_    0.151725 0.593182 0.183488 0.266138
H36   H     H_    0.377787 0.626718 0.194100 0.260342
C77   C     C_3   0.525037 0.023980 0.187342 -0.372823
C78   C     C_3   0.728458 0.003138 0.206273 -0.739042
H37   H     H_    0.787288 0.961401 0.178023 0.222594
H38   H     H_    0.825302 0.046684 0.206059 0.224948
H39   H     H_    0.725566 0.986038 0.249839 0.223749
H40   H     H_    0.471398 0.064223 0.217842 0.176320
H41   H     H_    0.423617 0.982573 0.191483 0.164641
C79   C     C_3   0.474797 0.976042 0.812633 -0.373061
C80   C     C_3   0.271378 0.997036 0.793830 -0.738770
H42   H     H_    0.174086 0.953730 0.794499 0.224901
H43   H     H_    0.213502 0.039139 0.821835 0.223021
H44   H     H_    0.273801 0.013660 0.750147 0.223999
H45   H     H_    0.576426 0.017368 0.808417 0.165151
H46   H     H_    0.527938 0.935744 0.782110 0.176335
C81   C     C_3   0.505764 0.190825 0.949503 -0.368265
C82   C     C_3   0.309547 0.225550 0.959460 -0.751811
H47   H     H_    0.199090 0.202019 0.930530 0.230714
H48   H     H_    0.264144 0.221940 0.003571 0.225544
H49   H     H_    0.317670 0.279637 0.950997 0.219114
H50   H     H_    0.620144 0.216853 0.975230 0.165287
H51   H     H_    0.543590 0.196993 0.904962 0.176877
C83   C     C_3   0.495264 0.809217 0.050451 -0.368280
C84   C     C_3   0.691488 0.774552 0.040377 -0.756213
H52   H     H_    0.736898 0.778380 0.996304 0.226891
H53   H     H_    0.801911 0.797943 0.069384 0.229926
H54   H     H_    0.683401 0.720419 0.048648 0.217786
H55   H     H_    0.457780 0.803027 0.095013 0.173615
H56   H     H_    0.380796 0.783167 0.024779 0.166419

loop_
_geom_bond_atom_site_label_1
_geom_bond_atom_site_label_2
_ccdc_geom_bond_type
C26   C30   A    
C34   C36   A    
C46   C54   A    
C67   C73   A    
C54   C60   A    
O13   V3    S    
C17   C18   A    
C50   C52   A    
C84   H52   S    
C49   H20   S    
O4    C2    A    
V1    O19   S    
C2    C44   S    
C70   C72   A    
C31   C33   A    
C55   C56   A    
C43   C49   A    
N3    H33   S    
C15   C17   A    
C34   C38   A    
C71   C76   A    
C81   H51   S    
C16   C22   A    
O9    V1    S    
C68   C74   A    
C82   H47   S    
C11   C13   A    
C60   N2    S    
C83   C84   S    
C3    C64   S    
O3    C1    A    
C69   C71   A    
C13   H3    S    
C14   H4    S    
C52   C56   A    
C29   H14   S    
C36   C42   A    
C66   H26   S    
C79   H46   S    
C28   C30   A    
C32   H11   S    
C27   C29   A    
O7    C3    A    
C50   H19   S    
C27   C35   A    
O5    C7    A    
C28   H16   S    
C82   H48   S    
O7    V1    S    
O6    C8    A    
C8    C11   S    
O8    V2    S    
N2    H31   S    
C33   C35   A    
C45   C53   A    
C47   H22   S    
O3    V1    S    
C38   C39   A    
C35   C41   A    
V4    O20   S    
O16   V4    S    
C19   C24   A    
C17   C19   A    
C10   C12   A    
C20   C23   A    
C15   C21   A    
C16   C18   A    
C21   H5    S    
C2    O12   A    
N3    H34   S    
C26   C32   A    
C41   H9    S    
C78   H39   S    
C22   H6    S    
C77   C78   S    
C18   C20   A    
C62   C79   S    
C64   C66   A    
O11   V3    S    
C39   H17   S    
C21   C23   A    
O17   V3    S    
C4    C63   S    
C22   C24   A    
C58   H24   S    
C10   H2    S    
C77   H41   S    
C9    C19   A    
C45   N3    S    
C30   H13   S    
C84   H54   S    
C10   C20   A    
C79   C80   S    
C48   H21   S    
C40   C42   A    
C44   C48   A    
C80   H44   S    
C62   C72   A    
C39   C41   A    
C43   C47   A    
C1    O11   A    
C67   C69   A    
O15   V3    S    
C32   C34   A    
C37   C40   A    
C49   C51   A    
C75   H27   S    
V3    O19   S    
O10   V2    S    
C58   C60   A    
C63   C65   A    
C52   C54   A    
C46   N4    S    
C40   H18   S    
N4    H36   S    
C77   H40   S    
N2    H32   S    
C5    C25   S    
C6    C26   S    
C57   C59   A    
C46   C48   A    
O18   V4    S    
O15   C5    A    
O8    C4    A    
O14   V4    S    
O16   C6    A    
O1    C3    A    
C79   H45   S    
C42   H10   S    
O12   V4    S    
C74   C76   A    
C12   C14   A    
C51   C55   A    
C55   C58   A    
C57   H23   S    
C61   C71   A    
C23   H7    S    
N1    H29   S    
V2    O20   S    
C24   H8    S    
C73   C81   S    
C84   H53   S    
C81   H50   S    
C82   H49   S    
C27   H15   S    
C25   C31   A    
C66   C68   A    
C72   C75   A    
C25   C29   A    
O5    V1    S    
C7    C12   S    
O17   C7    A    
O6    V2    S    
O10   C6    A    
O18   C8    A    
C74   C83   S    
C76   H28   S    
O2    V4    S    
C80   H43   S    
C13   C15   A    
C44   C50   A    
C80   H42   S    
C14   C16   A    
C9    C11   A    
O1    V3    S    
C1    C43   S    
C33   C37   A    
C61   C63   A    
O9    C5    A    
O13   V1    S    
C68   C70   A    
O14   V2    S    
C37   C38   A    
O2    C4    A    
C62   C64   A    
C73   C75   A    
N4    H35   S    
C83   H56   S    
C83   H55   S    
O4    V2    S    
C65   H25   S    
C28   C36   A    
C51   C53   A    
C56   C57   A    
C81   C82   S    
C45   C47   A    
C78   H37   S    
C61   C77   S    
C65   C67   A    
C69   C70   A    
C9    H1    S    
C78   H38   S    
C53   C59   A    
N1    H30   S    
C31   H12   S    
C59   N1    S    
