data_mof_unit_42223.cif
_audit_creation_date              2012-12-11T14:41:10-0500
_audit_creation_method            fapswitch 2.2
_symmetry_space_group_name_H-M    P1
_symmetry_Int_Tables_number       1
_space_group_crystal_system       triclinic
_cell_length_a                    6.935726
_cell_length_b                    17.769805
_cell_length_c                    18.99683
_cell_angle_alpha                 90.054519
_cell_angle_beta                  91.101102
_cell_angle_gamma                 88.623673
_cell_volume                      2340.18482289

loop_
_atom_site_label
_atom_site_type_symbol
_atom_type_description
_atom_site_fract_x
_atom_site_fract_y
_atom_site_fract_z
_atom_type_partial_charge
O1    O     O_R   0.377350 0.828520 0.186660 -0.541869
O2    O     O_R   0.622650 0.171480 0.813340 -0.541869
O3    O     O_R   0.122650 0.171480 0.686660 -0.539628
O4    O     O_R   0.877350 0.828520 0.313340 -0.539628
O5    O     O_R   0.877350 0.671480 0.313340 -0.540087
O6    O     O_R   0.122650 0.328520 0.686660 -0.540087
O7    O     O_R   0.622650 0.328520 0.813340 -0.539156
O8    O     O_R   0.377350 0.671480 0.186660 -0.539156
O9    O     O_R   0.707090 0.671930 0.178410 -0.540321
O10   O     O_R   0.292910 0.328070 0.821590 -0.540321
O11   O     O_R   0.792910 0.328070 0.678410 -0.539548
O12   O     O_R   0.207090 0.671930 0.321590 -0.539548
O13   O     O_R   0.207090 0.828070 0.321590 -0.539873
O14   O     O_R   0.792910 0.171930 0.678410 -0.539873
O15   O     O_R   0.292910 0.171930 0.821590 -0.539079
O16   O     O_R   0.707090 0.828070 0.178410 -0.539079
C1    C     C_R   0.540184 0.645621 0.161503 0.709164
C2    C     C_R   0.459815 0.354379 0.838497 0.709163
C3    C     C_R   0.958184 0.354083 0.660949 0.708929
C4    C     C_R   0.041815 0.645917 0.339051 0.708929
C5    C     C_R   0.039241 0.854453 0.338477 0.709459
C6    C     C_R   0.960759 0.145547 0.661523 0.709459
C7    C     C_R   0.465753 0.145581 0.838279 0.710099
C8    C     C_R   0.534247 0.854419 0.161721 0.710099
O17   O     O_3   0.543850 0.750000 0.294270 -0.367744
O18   O     O_3   0.456150 0.250000 0.705730 -0.367744
O19   O     O_3   0.956150 0.250000 0.794270 -0.367434
O20   O     O_3   0.043850 0.750000 0.205730 -0.367434
V1    V     V_3+5 0.818700 0.750000 0.241790 1.435191
V2    V     V_3+5 0.181300 0.250000 0.758210 1.435191
V3    V     V_3+5 0.681300 0.250000 0.741790 1.439382
V4    V     V_3+5 0.318700 0.750000 0.258210 1.439382
C9    C     C_R   0.952953 0.415081 0.606967 -0.075970
C10   C     C_R   0.047047 0.584919 0.393033 -0.075969
C11   C     C_R   0.543409 0.583938 0.108379 -0.077383
C12   C     C_R   0.456591 0.416062 0.891620 -0.077383
C13   C     C_R   0.494737 0.084163 0.890920 -0.078805
C14   C     C_R   0.505262 0.915837 0.109080 -0.078805
C15   C     C_R   0.040767 0.916207 0.391484 -0.075244
C16   C     C_R   0.959233 0.083793 0.608516 -0.075244
C17   C     C_R   0.225564 0.480626 0.450322 -0.026377
C18   C     C_R   0.774436 0.519374 0.549678 -0.026377
C19   C     C_R   0.273649 0.518601 0.947498 -0.026196
C20   C     C_R   0.726350 0.481399 0.052502 -0.026196
C21   C     C_R   0.289624 0.013687 0.058822 -0.027378
C22   C     C_R   0.710376 0.986313 0.941178 -0.027378
C23   C     C_R   0.782060 0.981409 0.552831 -0.026213
C24   C     C_R   0.217940 0.018591 0.447169 -0.026213
C25   C     C_R   0.207847 0.535432 0.397430 -0.171913
C26   C     C_R   0.792153 0.464568 0.602570 -0.171913
C27   C     C_R   0.294160 0.464774 0.894151 -0.174014
C28   C     C_R   0.705840 0.535226 0.105848 -0.174014
C29   C     C_R   0.336201 0.961050 0.111488 -0.179171
C30   C     C_R   0.663799 0.038949 0.888512 -0.179171
C31   C     C_R   0.802436 0.035119 0.606222 -0.174316
C32   C     C_R   0.197564 0.964881 0.393778 -0.174316
C33   C     C_R   0.901403 0.578520 0.442824 -0.211081
C34   C     C_R   0.098597 0.421479 0.557176 -0.211081
C35   C     C_R   0.601992 0.422706 0.943355 -0.210968
C36   C     C_R   0.398008 0.577294 0.056645 -0.210968
C37   C     C_R   0.631399 0.925370 0.053282 -0.204267
C38   C     C_R   0.368601 0.074630 0.946717 -0.204267
C39   C     C_R   0.099344 0.077183 0.556560 -0.210058
C40   C     C_R   0.900656 0.922817 0.443440 -0.210058
C41   C     C_R   0.917800 0.524753 0.498008 0.112720
C42   C     C_R   0.082200 0.475247 0.501992 0.112720
C43   C     C_R   0.583321 0.475794 0.998829 0.114531
C44   C     C_R   0.416679 0.524206 0.001171 0.114531
C45   C     C_R   0.586768 0.977740 0.998727 0.116803
C46   C     C_R   0.413231 0.022260 0.001273 0.116803
C47   C     C_R   0.080553 0.024170 0.501069 0.115091
C48   C     C_R   0.919446 0.975830 0.498931 0.115091
H1    H     H_    0.221608 0.382868 0.560583 0.134268
H2    H     H_    0.778392 0.617132 0.439417 0.134268
H3    H     H_    0.274114 0.615454 0.058592 0.134518
H4    H     H_    0.725885 0.384546 0.941408 0.134518
H5    H     H_    0.239487 0.110018 0.948529 0.135305
H6    H     H_    0.760513 0.889982 0.051471 0.135305
H7    H     H_    0.781238 0.884659 0.441670 0.133213
H8    H     H_    0.218762 0.115341 0.558330 0.133213
H9    H     H_    0.678942 0.460536 0.640907 0.124860
H10   H     H_    0.321057 0.539464 0.359093 0.124860
H11   H     H_    0.819151 0.539587 0.145715 0.125243
H12   H     H_    0.180849 0.460413 0.854285 0.125243
H13   H     H_    0.762456 0.045356 0.845407 0.125860
H14   H     H_    0.237544 0.954644 0.154593 0.125860
H15   H     H_    0.306709 0.960519 0.353724 0.123543
H16   H     H_    0.693291 0.039481 0.646276 0.123544
C49   C     C_1   0.393627 0.430875 0.450144 0.280120
N1    N     N_1   0.528135 0.391051 0.449938 -0.331292
C50   C     C_1   0.606373 0.569125 0.549856 0.280120
N2    N     N_1   0.471865 0.608949 0.550062 -0.331292
C51   C     C_1   0.102362 0.566657 0.945991 0.282913
N3    N     N_1   0.965209 0.605078 0.944751 -0.335610
C52   C     C_1   0.897638 0.433343 0.054009 0.282913
N4    N     N_1   0.034791 0.394922 0.055249 -0.335610
C53   C     C_1   0.111833 0.057198 0.065007 0.284234
N5    N     N_1   0.969464 0.091951 0.069980 -0.335334
C54   C     C_1   0.888167 0.942802 0.934993 0.284234
N6    N     N_1   0.030536 0.908049 0.930020 -0.335334
C55   C     C_1   0.616577 0.933501 0.554492 0.281852
N7    N     N_1   0.484062 0.895203 0.555851 -0.330974
C56   C     C_1   0.383423 0.066499 0.445508 0.281852
N8    N     N_1   0.515938 0.104797 0.444149 -0.330974

loop_
_geom_bond_atom_site_label_1
_geom_bond_atom_site_label_2
_ccdc_geom_bond_type
C33   H2    S    
C17   C49   S    
C22   C54   S    
C51   N3    T    
C23   C55   S    
C28   H11   S    
C38   H5    S    
C52   N4    T    
O14   V3    S    
C12   C35   A    
C53   N5    T    
O5    C4    A    
C15   C40   A    
O11   C3    A    
C9    C34   A    
C16   C39   A    
O20   V1    S    
C38   C46   A    
C18   C50   S    
C31   H16   S    
C22   C45   A    
O13   V4    S    
C35   C43   A    
C34   C42   A    
C15   C32   A    
C19   C44   A    
C18   C41   A    
C8    C14   S    
C29   H14   S    
O4    V1    S    
O9    V1    S    
C14   C37   A    
C4    C10   S    
C20   C28   A    
O17   V4    S    
O15   C7    A    
O11   V3    S    
O18   V3    S    
O16   C8    A    
O12   V4    S    
O19   V2    S    
C22   C30   A    
C17   C25   A    
C13   C38   A    
O5    V1    S    
C39   H8    S    
O17   V1    S    
O7    V3    S    
O19   V3    S    
C43   C44   A    
O8    V4    S    
C55   N7    T    
O20   V4    S    
C3    C9    S    
C50   N2    T    
C32   H15   S    
C9    C26   A    
C7    C13   S    
C24   C56   S    
C34   H1    S    
O1    V4    S    
C11   C36   A    
C25   H10   S    
O3    V2    S    
O6    C3    A    
C10   C33   A    
O10   V2    S    
C54   N6    T    
C5    C15   S    
C37   H6    S    
O7    C2    A    
C6    C16   S    
O12   C4    A    
O13   C5    A    
C12   C27   A    
C18   C26   A    
C13   C30   A    
O9    C1    A    
O6    V2    S    
C39   C47   A    
O18   V2    S    
C40   H7    S    
C24   C47   A    
O2    C7    A    
O15   V2    S    
C23   C31   A    
C37   C45   A    
C24   C32   A    
C10   C25   A    
C21   C46   A    
C33   C41   A    
C20   C43   A    
C16   C31   A    
C30   H13   S    
C17   C42   A    
C36   H3    S    
O8    C1    A    
O14   C6    A    
O16   V1    S    
C47   C48   A    
C20   C52   S    
C21   C53   S    
O4    C5    A    
C11   C28   A    
C19   C27   A    
C14   C29   A    
O10   C2    A    
C35   H4    S    
C19   C51   S    
C40   C48   A    
C45   C46   A    
C23   C48   A    
C21   C29   A    
C36   C44   A    
O1    C8    A    
C41   C42   A    
C56   N8    T    
O2    V3    S    
O3    C6    A    
C1    C11   S    
C49   N1    T    
C2    C12   S    
C27   H12   S    
C26   H9    S    
