data_mof_unit_12409.cif
_audit_creation_date              2012-12-11T14:31:07-0500
_audit_creation_method            fapswitch 2.2
_symmetry_space_group_name_H-M    P1
_symmetry_Int_Tables_number       1
_space_group_crystal_system       triclinic
_cell_length_a                    6.869891
_cell_length_b                    14.30194
_cell_length_c                    16.287535
_cell_angle_alpha                 90.000189
_cell_angle_beta                  90.000282
_cell_angle_gamma                 89.999809
_cell_volume                      1600.29541208

loop_
_atom_site_label
_atom_site_type_symbol
_atom_type_description
_atom_site_fract_x
_atom_site_fract_y
_atom_site_fract_z
_atom_type_partial_charge
O1    O     O_R   0.469910 0.836130 0.163900 -0.534715
O2    O     O_R   0.530090 0.163870 0.836100 -0.531582
O3    O     O_R   0.530090 0.163870 0.663900 -0.531589
O4    O     O_R   0.469910 0.836130 0.336100 -0.534706
O5    O     O_R   0.969910 0.663870 0.336100 -0.531586
O6    O     O_R   0.030090 0.336130 0.663900 -0.534711
O7    O     O_R   0.030090 0.336130 0.836100 -0.534713
O8    O     O_R   0.969910 0.663870 0.163900 -0.531583
O9    O     O_R   0.140100 0.847470 0.335520 -0.548123
O10   O     O_R   0.859900 0.152530 0.664480 -0.546675
O11   O     O_R   0.859900 0.152530 0.835520 -0.546675
O12   O     O_R   0.140100 0.847470 0.164480 -0.548113
O13   O     O_R   0.640100 0.652530 0.164480 -0.546677
O14   O     O_R   0.359900 0.347470 0.835520 -0.548112
O15   O     O_R   0.359900 0.347470 0.664480 -0.548115
O16   O     O_R   0.640100 0.652530 0.335520 -0.546676
C1    C     C_R   0.311834 0.872721 0.361887 0.754735
C2    C     C_R   0.689117 0.133102 0.633667 0.764312
C3    C     C_R   0.689119 0.133098 0.866329 0.764317
C4    C     C_R   0.311837 0.872724 0.138115 0.754730
C5    C     C_R   0.810880 0.633099 0.133671 0.764306
C6    C     C_R   0.188163 0.372725 0.861885 0.754736
C7    C     C_R   0.188163 0.372726 0.638116 0.754720
C8    C     C_R   0.810881 0.633099 0.366329 0.764320
O17   O     O_3   0.303300 0.689750 0.250000 -0.370273
O18   O     O_3   0.696700 0.310250 0.750000 -0.377007
O19   O     O_3   0.803300 0.810250 0.250000 -0.377005
O20   O     O_3   0.196700 0.189750 0.750000 -0.370276
V1    V     V_3+5 0.028490 0.761170 0.250000 1.379390
V2    V     V_3+5 0.971510 0.238830 0.750000 1.383525
V3    V     V_3+5 0.528490 0.738830 0.250000 1.383552
V4    V     V_3+5 0.471510 0.261170 0.750000 1.379367
C9    C     C_2   0.830661 0.566729 0.436244 -0.348649
C10   C     C_2   0.167655 0.445006 0.572743 -0.349605
C11   C     C_2   0.167653 0.445004 0.927259 -0.349601
C12   C     C_2   0.830658 0.566728 0.063756 -0.348650
C13   C     C_2   0.332345 0.945002 0.072740 -0.349599
C14   C     C_2   0.669341 0.066727 0.936242 -0.348653
C15   C     C_2   0.669333 0.066750 0.563736 -0.348694
C16   C     C_2   0.332327 0.944977 0.427278 -0.349555
C17   C     C_2   0.991154 0.561424 0.486413 0.171634
C18   C     C_2   0.997762 0.491643 0.554977 0.160517
C19   C     C_2   0.997758 0.491639 0.945025 0.160511
C20   C     C_2   0.991150 0.561423 0.013587 0.171635
C21   C     C_2   0.502239 0.991636 0.054973 0.160506
C22   C     C_2   0.508846 0.061420 0.986411 0.171635
C23   C     C_2   0.508780 0.061414 0.513602 0.171596
C24   C     C_2   0.502176 0.991661 0.445015 0.160548
H1    H     H_    0.297045 0.459470 0.536566 0.112265
H2    H     H_    0.708798 0.519846 0.446779 0.110635
H3    H     H_    0.708795 0.519845 0.053223 0.110635
H4    H     H_    0.297044 0.459470 0.963436 0.112263
H5    H     H_    0.791206 0.019844 0.946776 0.110635
H6    H     H_    0.202953 0.959468 0.036564 0.112263
H7    H     H_    0.202973 0.959375 0.463496 0.112240
H8    H     H_    0.791252 0.019914 0.553151 0.110653
C25   C     C_3   0.814956 0.480627 0.606315 -0.686411
H9    H     H_    0.705221 0.535071 0.591539 0.174239
H10   H     H_    0.747327 0.411368 0.594759 0.212605
H11   H     H_    0.849606 0.489145 0.672454 0.197304
C26   C     C_3   0.159977 0.629379 0.479598 -0.711522
H12   H     H_    0.257814 0.624904 0.533702 0.179320
H13   H     H_    0.247933 0.613724 0.424105 0.218499
H14   H     H_    0.105493 0.702462 0.477561 0.193389
C27   C     C_3   0.159974 0.629380 0.020400 -0.711510
H15   H     H_    0.257808 0.624903 0.966294 0.179317
H16   H     H_    0.105488 0.702464 0.022435 0.193386
H17   H     H_    0.247936 0.613725 0.075893 0.218498
C28   C     C_3   0.814946 0.480615 0.893691 -0.686406
H18   H     H_    0.705207 0.535057 0.908467 0.174235
H19   H     H_    0.849584 0.489133 0.827551 0.197308
H20   H     H_    0.747328 0.411355 0.905249 0.212603
C29   C     C_3   0.340017 0.129374 0.979595 -0.711504
H21   H     H_    0.242176 0.124895 0.033699 0.179315
H22   H     H_    0.394495 0.202459 0.977562 0.193387
H23   H     H_    0.252063 0.113718 0.924100 0.218500
C30   C     C_3   0.685055 0.980611 0.106304 -0.686396
H24   H     H_    0.794794 0.035051 0.091527 0.174234
H25   H     H_    0.650421 0.989128 0.172444 0.197311
H26   H     H_    0.752671 0.911350 0.094744 0.212598
C31   C     C_3   0.684899 0.980743 0.393614 -0.686573
H27   H     H_    0.794532 0.035242 0.408361 0.174290
H28   H     H_    0.752701 0.911518 0.405135 0.212653
H29   H     H_    0.650100 0.989251 0.327489 0.197266
C32   C     C_3   0.339844 0.129299 0.520484 -0.711377
H30   H     H_    0.241914 0.124798 0.466408 0.179276
H31   H     H_    0.252012 0.113590 0.576002 0.218502
H32   H     H_    0.394197 0.202405 0.522514 0.193400

loop_
_geom_bond_atom_site_label_1
_geom_bond_atom_site_label_2
_ccdc_geom_bond_type
O17   V3    S    
O18   V4    S    
O12   V1    S    
O19   V1    S    
C17   C18   S    
C10   C18   D    
C17   C26   S    
C19   C20   S    
C31   H27   S    
O15   V4    S    
C5    C12   S    
C30   H24   S    
O16   V3    S    
C6    C11   S    
C14   H5    S    
O11   C3    A    
O8    V1    S    
C23   C32   S    
C28   H18   S    
C32   H32   S    
O1    V3    S    
C24   C31   S    
O3    C2    A    
O2    V4    S    
C29   H21   S    
C26   H13   S    
C15   H8    S    
O11   V2    S    
C10   H1    S    
C11   C19   D    
O9    V1    S    
C7    C10   S    
O15   C7    A    
C19   C28   S    
O7    V2    S    
C29   H22   S    
C20   C27   S    
C26   H12   S    
C18   C25   S    
C31   H28   S    
O5    V1    S    
C30   H25   S    
O17   V1    S    
C28   H19   S    
C32   H31   S    
O19   V3    S    
O20   V4    S    
C27   H17   S    
C25   H11   S    
C27   H16   S    
C9    H2    S    
C32   H30   S    
C1    C16   S    
C28   H20   S    
C2    C15   S    
C3    C14   S    
O10   V2    S    
C23   C24   S    
C16   H7    S    
O12   C4    A    
O8    C5    A    
O13   C5    A    
C12   H3    S    
C13   H6    S    
O9    C1    A    
O6    V2    S    
O18   V2    S    
C29   H23   S    
C12   C20   D    
O4    C1    A    
C13   C21   D    
C31   H29   S    
C15   C23   D    
C30   H26   S    
C16   C24   D    
O1    C4    A    
O2    C3    A    
O13   V3    S    
O14   V4    S    
O7    C6    A    
C8    C9    S    
C9    C17   D    
O14   C6    A    
O20   V2    S    
C26   H14   S    
C4    C13   S    
C25   H9    S    
O5    C8    A    
O10   C2    A    
O6    C7    A    
O3    V4    S    
C14   C22   D    
O4    V3    S    
C25   H10   S    
C21   C22   S    
O16   C8    A    
C27   H15   S    
C11   H4    S    
C21   C30   S    
C22   C29   S    
