data_mof_unit_31950.cif
_audit_creation_date              2012-10-26T20:34:03-0400
_audit_creation_method            fapswitch 2.2
_symmetry_space_group_name_H-M    P1
_symmetry_Int_Tables_number       1
_space_group_crystal_system       triclinic
_cell_length_a                    15.925455
_cell_length_b                    9.093602
_cell_length_c                    7.786317
_cell_angle_alpha                 89.994428
_cell_angle_beta                  90.115821
_cell_angle_gamma                 89.997799
_cell_volume                      1127.61016694

loop_
_atom_site_label
_atom_site_type_symbol
_atom_type_description
_atom_site_fract_x
_atom_site_fract_y
_atom_site_fract_z
_atom_type_partial_charge
C1    C     C_R   0.499999 0.220025 0.500005 0.548496
C2    C     C_3   0.048232 0.383327 0.351722 -0.053817
C3    C     C_3   0.951847 0.449059 0.690081 -0.054071
C4    C     C_3   0.949966 0.370830 0.366524 -0.052748
C5    C     C_1   0.749506 0.495923 0.501012 -0.039329
C6    C     C_1   0.250495 0.495765 0.499501 -0.039085
C7    C     C_3   0.083167 0.482027 0.501476 0.082564
C8    C     C_3   0.916843 0.482604 0.505219 0.082650
C9    C     C_3   0.951399 0.636914 0.454822 -0.265982
C10   C     C_3   0.048451 0.639746 0.468927 -0.266439
C11   C     C_3   0.904344 0.330041 0.793479 -0.412252
C12   C     C_1   0.824765 0.490654 0.502763 -0.074028
C13   C     C_3   0.916106 0.212430 0.385470 -0.402356
C14   C     C_3   0.084180 0.282814 0.746093 -0.401886
C15   C     C_3   0.095928 0.237863 0.318772 -0.412962
C16   C     C_1   0.175239 0.490287 0.499804 -0.073774
C17   C     C_R   0.339840 0.499929 0.499831 0.543060
C18   C     C_R   0.660160 0.499933 0.500201 0.543190
C19   C     C_1   0.499999 0.934635 0.499993 -0.051948
C20   C     C_1   0.499999 0.065377 0.500007 -0.052408
C21   C     C_R   0.499999 0.779984 0.499995 0.549499
C22   C     C_3   0.050121 0.432541 0.683046 -0.052475
Cu1   Cu    Cu3+1 0.500000 0.500010 0.669080 1.019620
Cu2   Cu    Cu3+1 0.500000 0.500010 0.330920 1.020144
H1    H     H_    0.067475 0.714481 0.575395 0.112402
H2    H     H_    0.931040 0.322038 0.924981 0.113858
H3    H     H_    0.837322 0.360806 0.808591 0.142303
H4    H     H_    0.950909 0.148493 0.482735 0.132701
H5    H     H_    0.848437 0.211960 0.418886 0.139163
H6    H     H_    0.922293 0.153436 0.261245 0.114892
H7    H     H_    0.049503 0.189050 0.690740 0.131996
H8    H     H_    0.151870 0.270162 0.716294 0.141583
H9    H     H_    0.077989 0.275704 0.887880 0.114010
H10   H     H_    0.093564 0.160909 0.427963 0.138321
H11   H     H_    0.069278 0.181774 0.204372 0.115670
H12   H     H_    0.075147 0.686702 0.348747 0.115149
H13   H     H_    0.162901 0.260212 0.289454 0.138609
H14   H     H_    0.924630 0.723757 0.539405 0.113733
H15   H     H_    0.932324 0.664785 0.321052 0.114188
H16   H     H_    0.060131 0.445938 0.230871 0.110262
H17   H     H_    0.076166 0.513009 0.777327 0.108338
H18   H     H_    0.923801 0.408496 0.240985 0.107405
H19   H     H_    0.939825 0.550248 0.767328 0.109848
H20   H     H_    0.906877 0.220177 0.734042 0.138193
N1    N     N_1   0.500000 0.499970 0.076820 -0.079980
N2    N     N_1   0.500000 0.499970 0.923180 -0.080015
O1    O     O_R   0.500000 0.288400 0.642760 -0.496041
O2    O     O_R   0.500000 0.288400 0.357240 -0.496024
O3    O     O_R   0.379440 0.500020 0.642850 -0.497964
O4    O     O_R   0.379440 0.500020 0.357150 -0.498479
O5    O     O_R   0.620560 0.500020 0.642850 -0.499210
O6    O     O_R   0.620560 0.500020 0.357150 -0.497680
O7    O     O_R   0.500000 0.711620 0.642810 -0.495442
O8    O     O_R   0.500000 0.711620 0.357190 -0.495454

loop_
_geom_bond_atom_site_label_1
_geom_bond_atom_site_label_2
_ccdc_geom_bond_type
C17   O4    A    
Cu2   O6    S    
C7    C10   S    
C2    C4    S    
Cu1   Cu2   S    
C1    O2    A    
C7    C22   S    
C9    C10   S    
C15   H10   S    
Cu1   O5    S    
C19   C20   T    
C11   H3    S    
C14   H7    S    
C8    C12   S    
C14   C22   S    
C14   H9    S    
C18   O6    A    
C11   H20   S    
C13   H4    S    
Cu1   N2    S    
C15   H13   S    
N1    N2    T    
C21   O7    A    
C2    C15   S    
C3    H19   S    
C4    C13   S    
C4    H18   S    
Cu2   N1    S    
C10   H1    S    
C15   H11   S    
C7    C16   S    
C19   C21   S    
C18   O5    A    
Cu1   O7    S    
Cu2   O4    S    
C21   O8    A    
Cu1   O3    S    
C22   H17   S    
Cu1   O1    S    
C6    C16   T    
Cu2   O2    S    
C2    H16   S    
C13   H6    S    
C9    H15   S    
C3    C11   S    
C5    C12   T    
C1    O1    A    
C3    C8    S    
C13   H5    S    
C4    C8    S    
C6    C17   S    
C9    H14   S    
C3    C22   S    
C10   H12   S    
C5    C18   S    
C11   H2    S    
Cu2   O8    S    
C17   O3    A    
C2    C7    S    
C14   H8    S    
C8    C9    S    
C1    C20   S    
