data_mof_unit_37394.cif
_audit_creation_date              2013-03-05T15:50:50-0500
_audit_creation_method            fapswitch 2.2
_symmetry_space_group_name_H-M    P1
_symmetry_Int_Tables_number       1
_space_group_crystal_system       triclinic
_cell_length_a                    9.605717
_cell_length_b                    10.843705
_cell_length_c                    15.696908
_cell_angle_alpha                 85.863619
_cell_angle_beta                  73.685116
_cell_angle_gamma                 89.291161
_cell_volume                      1565.0356549

loop_
_atom_site_label
_atom_site_type_symbol
_atom_site_description
_atom_site_fract_x
_atom_site_fract_y
_atom_site_fract_z
_atom_type_partial_charge
O1    O     O_R   0.118810 0.319640 0.500010 -0.607279
O2    O     O_R   0.881240 0.319660 0.500000 -0.602175
C1    C     C_R   0.003730 0.262185 0.496522 0.770633
O3    O     O_R   0.055570 0.499980 0.629840 -0.535214
O4    O     O_R   0.818000 0.500010 0.629830 -0.577575
C2    C     C_R   0.917434 0.498668 0.671411 0.827289
Cu1   Cu    Cu3+1 0.140660 0.499990 0.500010 1.018611
Cu2   Cu    Cu3+1 0.859340 0.500010 0.499990 1.014697
O5    O     O_R   0.118760 0.680340 0.500000 -0.584689
O6    O     O_R   0.881190 0.680360 0.499990 -0.536269
O7    O     O_R   0.182000 0.499990 0.370170 -0.571898
O8    O     O_R   0.944430 0.500020 0.370160 -0.511593
C3    C     C_R   0.995873 0.736150 0.508092 0.884676
C4    C     C_R   0.083408 0.494454 0.328366 0.856468
C5    C     C_R   0.869318 0.497897 0.768413 -0.108141
C6    C     C_R   0.133035 0.468021 0.232990 -0.147920
C7    C     C_R   0.912831 0.532491 0.908590 -0.111404
C8    C     C_R   0.962001 0.535050 0.816393 -0.058426
C9    C     C_R   0.726153 0.462172 0.812939 -0.162869
C10   C     C_R   0.668933 0.472206 0.904724 0.127670
C11   C     C_R   0.769326 0.497469 0.952909 0.121072
C12   C     C_R   0.518302 0.451981 0.951508 -0.124536
C13   C     C_R   0.478720 0.445620 0.046124 0.028988
C14   C     C_R   0.589087 0.439546 0.088958 -0.067026
C15   C     C_R   0.728786 0.477297 0.044761 -0.190893
C16   C     C_R   0.405238 0.437187 0.909897 0.225422
C17   C     C_R   0.266410 0.398678 0.961971 0.528353
C18   C     C_R   0.226276 0.406362 0.054307 -0.060486
C19   C     C_R   0.330082 0.442372 0.095904 -0.086170
C20   C     C_R   0.081254 0.388221 0.104431 -0.131975
C21   C     C_R   0.035531 0.417338 0.193046 -0.247898
C22   C     C_R   0.281004 0.482775 0.183560 0.335439
H1    H     H_    0.806702 0.484820 0.082297 0.145930
H2    H     H_    0.922854 0.401911 0.229963 0.178170
H3    H     H_    0.987395 0.556214 0.945523 0.177542
H4    H     H_    0.072832 0.563285 0.782964 0.228557
H5    H     H_    0.663820 0.421288 0.774961 0.192242
H6    H     H_    0.569002 0.402923 0.156673 0.186088
H7    H     H_    0.002227 0.353435 0.074568 0.189038
H8    H     H_    0.796108 0.115063 0.476023 0.156709
C23   C     C_R   0.270618 0.106980 0.499385 -0.172851
H9    H     H_    0.307864 0.193443 0.462212 0.184225
C24   C     C_R   0.372344 0.041129 0.532252 -0.268707
H10   H     H_    0.478066 0.081276 0.525043 0.159509
C25   C     C_R   0.336144 0.925748 0.576983 -0.169998
H11   H     H_    0.411375 0.878079 0.607691 0.178540
C26   C     C_R   0.204328 0.870427 0.580515 0.624489
C27   C     C_R   0.107810 0.930554 0.537338 -0.040575
C28   C     C_R   0.130142 0.057254 0.510067 0.046243
C29   C     C_R   0.010818 0.126929 0.494960 -0.070298
C30   C     C_R   0.887149 0.064966 0.489031 -0.207489
H12   H     H_    0.788379 0.892480 0.484805 0.169289
C31   C     C_R   0.880479 0.937415 0.496818 -0.171537
C32   C     C_R   0.991489 0.868993 0.518745 -0.096816
H13   H     H_    0.589758 0.343642 0.589973 0.144541
C33   C     C_R   0.686033 0.687616 0.390879 0.617231
C34   C     C_R   0.627320 0.784639 0.349948 -0.240793
H14   H     H_    0.697100 0.857225 0.309477 0.188876
C35   C     C_R   0.483740 0.782925 0.352463 -0.260317
H15   H     H_    0.441436 0.853496 0.314265 0.197537
C36   C     C_R   0.397696 0.684168 0.396439 -0.026984
H16   H     H_    0.298034 0.679232 0.380086 0.219479
C37   C     C_R   0.446333 0.591639 0.449402 0.182979
C38   C     C_R   0.596739 0.591832 0.447891 0.065671
N1    N     N_R   0.648320 0.501210 0.499140 -0.197088
C39   C     C_R   0.552437 0.414078 0.549339 0.000180
H17   H     H_    0.332111 0.343491 0.589654 0.155616
C40   C     C_R   0.404801 0.414002 0.549159 0.008382
N2    N     N_R   0.352470 0.501290 0.499110 -0.187918
F1    F     F_    0.167497 0.762924 0.631635 -0.659686
F2    F     F_    0.830915 0.688577 0.362976 -0.652540
N3    N     N_R   0.374313 0.558256 0.215630 0.098707
O9    O     O_R   0.442137 0.510143 0.270875 -0.418011
O10   O     O_R   0.408750 0.669267 0.179008 -0.356341
F3    F     F_    0.164810 0.369963 0.921219 -0.650913
N4    N     N_R   0.421450 0.475560 0.818196 0.121667
O11   O     O_R   0.463491 0.588044 0.788323 -0.345336
O12   O     O_R   0.373975 0.405575 0.768270 -0.338120

loop_
_geom_bond_atom_site_label_1
_geom_bond_atom_site_label_2
_geom_bond_distance
_ccdc_geom_bond_type
C5    C8    1.396965 A    
C39   C40   1.418962 A    
C23   H9    1.076861 S    
C9    C10   1.402116 A    
Cu1   Cu2   2.702365 S    
C22   N3    1.434500 S    
C31   C32   1.398494 A    
C6    C21   1.401705 A    
C27   C32   1.417408 A    
C16   C17   1.404625 A    
C13   C19   1.421560 A    
C18   C19   1.409001 A    
N4    O12   1.301230 A    
C19   C22   1.422952 A    
C20   C21   1.394312 A    
O7    C4    1.298974 A    
C34   C35   1.368944 A    
C33   C34   1.388935 A    
C36   C37   1.415081 A    
O5    C3    1.298055 A    
C9    H5    1.075020 S    
C2    C5    1.461151 S    
C5    C9    1.401372 A    
C37   N2    1.377644 A    
C40   N2    1.366973 A    
C14   H6    1.072624 S    
C13   C14   1.404516 A    
C33   C38   1.439464 A    
C35   H15   1.083165 S    
C23   C24   1.394167 A    
O3    Cu1   1.971127 S    
C17   F3    1.358525 S    
C23   C28   1.420394 A    
C1    C29   1.469065 S    
C29   C30   1.400783 A    
C25   C26   1.393097 A    
C35   C36   1.378818 A    
H17   C40   1.081628 S    
C14   C15   1.378108 A    
O3    C2    1.303582 A    
C25   H11   1.082711 S    
C7    C11   1.401579 A    
C30   C31   1.380393 A    
Cu1   O7    1.963869 S    
C24   H10   1.083010 S    
C26   F1    1.357846 S    
C16   N4    1.434780 S    
C26   C27   1.420680 A    
Cu2   O8    1.971127 S    
C33   F2    1.336414 S    
C7    C8    1.388797 A    
C21   H2    1.083212 S    
N4    O11   1.301543 A    
C24   C25   1.387865 A    
N3    O10   1.300820 A    
C27   C28   1.409861 A    
C10   C12   1.438267 A    
N1    C39   1.366845 A    
C4    C6    1.486021 S    
H13   C39   1.081725 S    
H12   C31   1.083191 S    
C3    C32   1.460853 S    
Cu1   O5    1.964348 S    
C11   C15   1.385432 A    
O1    Cu1   1.969473 S    
O2    Cu2   1.964348 S    
O8    C4    1.314491 A    
N3    O9    1.300907 A    
O6    C3    1.304615 A    
Cu1   N2    2.030880 S    
O4    Cu2   1.963869 S    
C6    C22   1.419849 A    
H8    C30   1.083581 S    
C38   N1    1.398621 A    
C18   C20   1.402481 A    
O2    C1    1.313957 A    
C34   H14   1.083547 S    
O4    C2    1.298861 A    
C20   H7    1.082037 S    
C36   H16   1.061386 S    
C37   C38   1.438296 A    
Cu2   N1    2.030662 S    
C10   C11   1.422420 A    
Cu2   O6    1.969473 S    
C28   C29   1.430469 A    
C12   C16   1.431730 A    
C17   C18   1.399643 A    
C12   C13   1.422570 A    
C7    H3    1.083805 S    
O1    C1    1.291936 A    
C8    H4    1.083290 S    
C15   H1    1.081746 S    
