data_mof_unit_25505.cif
_audit_creation_date              2012-12-10T16:46:46-0500
_audit_creation_method            fapswitch 2.2
_symmetry_space_group_name_H-M    P1
_symmetry_Int_Tables_number       1
_space_group_crystal_system       triclinic
_cell_length_a                    15.853804
_cell_length_b                    8.687559
_cell_length_c                    7.45038
_cell_angle_alpha                 103.011131
_cell_angle_beta                  94.105543
_cell_angle_gamma                 92.198005
_cell_volume                      995.66890381

loop_
_atom_site_label
_atom_site_type_symbol
_atom_type_description
_atom_site_fract_x
_atom_site_fract_y
_atom_site_fract_z
_atom_type_partial_charge
C1    C     C_R   0.497454 0.199717 0.453249 0.886713
C2    C     C_3   0.958039 0.562951 0.692169 -0.365230
C3    C     C_3   0.916823 0.495114 0.493667 0.230165
C4    C     C_3   0.950075 0.596013 0.363747 -0.362922
C5    C     C_3   0.048002 0.600435 0.372700 -0.339102
C6    C     C_1   0.824669 0.497389 0.491829 -0.078621
C7    C     C_1   0.175087 0.495317 0.504062 -0.017337
C8    C     C_1   0.250802 0.498040 0.506409 -0.101047
C9    C     C_2   0.496213 0.031805 0.426977 -0.356913
C10   C     C_2   0.503673 0.968190 0.573025 -0.361688
C11   C     C_R   0.340328 0.499685 0.502438 0.827264
C12   C     C_R   0.502495 0.800280 0.546752 0.877518
C13   C     C_R   0.659678 0.500168 0.497507 0.818178
C14   C     C_3   0.055667 0.558830 0.695022 -0.448362
C15   C     C_3   0.041665 0.319903 0.428023 0.282963
C16   C     C_3   0.943547 0.323295 0.427194 -0.401504
C17   C     C_1   0.749134 0.498812 0.492551 -0.159349
C18   C     C_3   0.082634 0.492228 0.497350 0.178057
Cu1   Cu    Cu3+1 0.509300 0.517380 0.684380 0.964480
Cu2   Cu    Cu3+1 0.490700 0.482620 0.315620 0.976488
H1    H     H_    0.934514 0.492943 0.788356 0.190561
H2    H     H_    0.084637 0.680518 0.751347 0.209440
H3    H     H_    0.940226 0.687049 0.742548 0.197550
H4    H     H_    0.923642 0.545489 0.219005 0.189512
H5    H     H_    0.489179 0.960182 0.286242 0.181642
H6    H     H_    0.510699 0.039814 0.713760 0.181162
H7    H     H_    0.434907 0.376708 0.948633 0.234811
H8    H     H_    0.565086 0.623300 0.051372 0.226181
H9    H     H_    0.078808 0.484276 0.789778 0.209022
H10   H     H_    0.063952 0.249600 0.528273 0.087367
H11   H     H_    0.920759 0.249096 0.519770 0.151045
H12   H     H_    0.912103 0.271533 0.286994 0.217342
H13   H     H_    0.073539 0.724361 0.429877 0.162140
H14   H     H_    0.069492 0.565030 0.231413 0.218897
H15   H     H_    0.928933 0.718855 0.404329 0.173799
N1    N     N_2   0.476670 0.456430 0.038530 -0.211223
N2    N     N_2   0.523330 0.543570 0.961470 -0.215942
O1    O     O_R   0.506050 0.286130 0.619770 -0.586362
O2    O     O_R   0.490330 0.256780 0.308370 -0.581133
O3    O     O_R   0.387300 0.514690 0.655770 -0.586942
O4    O     O_R   0.371580 0.485340 0.344370 -0.556565
O5    O     O_R   0.509670 0.743220 0.691630 -0.585128
O6    O     O_R   0.493950 0.713870 0.380230 -0.586625
O7    O     O_R   0.628420 0.514660 0.655630 -0.575103
O8    O     O_R   0.612700 0.485310 0.344230 -0.585960
S1    S     S_3+6 0.071318 0.214313 0.205340 -0.023678
O9    O     O_2   0.035503 0.287721 0.054108 -0.304629
O10   O     O_2   0.165954 0.213597 0.201782 -0.290842
O11   O     O_3   0.031585 0.026262 0.164754 -0.522939
H16   H     H_    0.058209 0.983029 0.265908 0.332851

loop_
_geom_bond_atom_site_label_1
_geom_bond_atom_site_label_2
_ccdc_geom_bond_type
C15   C18   S    
Cu1   O1    S    
H7    N1    S    
C16   H12   S    
C9    C10   D    
C14   C18   S    
Cu1   Cu2   S    
Cu1   O5    S    
C13   C17   S    
C3    C6    S    
C5    H14   S    
C10   H6    S    
C2    H1    S    
C2    C3    S    
C4    H15   S    
C9    H5    S    
C7    C8    T    
C7    C18   S    
C16   H11   S    
C13   O8    A    
S1    O11   S    
C14   H2    S    
C10   C12   S    
C1    O1    A    
C8    C11   S    
Cu2   O4    S    
C15   C16   S    
H8    N2    S    
N1    N2    D    
C11   O4    A    
C12   O6    A    
C11   O3    A    
C4    H4    S    
S1    O10   D    
Cu1   O3    S    
C1    O2    A    
C14   H9    S    
C3    C4    S    
Cu2   N1    S    
Cu2   O6    S    
C1    C9    S    
Cu1   O7    S    
C15   H10   S    
O11   H16   S    
C2    C14   S    
C2    H3    S    
C6    C17   T    
Cu2   O2    S    
S1    O9    D    
C12   O5    A    
C5    C18   S    
Cu1   N2    S    
C15   S1    S    
C13   O7    A    
C3    C16   S    
Cu2   O8    S    
C4    C5    S    
C5    H13   S    
