data_mof_unit_38540.cif
_audit_creation_date              2012-12-10T18:11:39-0500
_audit_creation_method            fapswitch 2.2
_symmetry_space_group_name_H-M    P1
_symmetry_Int_Tables_number       1
_space_group_crystal_system       triclinic
_cell_length_a                    10.495931
_cell_length_b                    12.630599
_cell_length_c                    13.157717
_cell_angle_alpha                 82.459667
_cell_angle_beta                  90.338832
_cell_angle_gamma                 102.237015
_cell_volume                      1689.51215316

loop_
_atom_site_label
_atom_site_type_symbol
_atom_type_description
_atom_site_fract_x
_atom_site_fract_y
_atom_site_fract_z
_atom_type_partial_charge
C1    C     C_R   0.483010 0.439028 0.691004 0.879173
C2    C     C_3   0.066639 0.598260 0.519695 -0.131881
C3    C     C_3   0.964021 0.519740 0.592936 -0.138132
C4    C     C_3   0.877629 0.500124 0.500606 0.011215
C5    C     C_R   0.442165 0.711747 0.059826 -0.177136
C6    C     C_R   0.515421 0.598361 0.200009 -0.066633
C7    C     C_R   0.548303 0.316826 0.830493 -0.264441
C8    C     C_R   0.614715 0.314909 0.921630 -0.169200
C9    C     C_R   0.616164 0.396479 0.983515 0.386021
C10   C     C_R   0.530314 0.470599 0.963076 -0.024879
C11   C     C_R   0.460216 0.470770 0.870613 0.026344
C12   C     C_R   0.742188 0.500242 0.500374 0.889968
C13   C     C_R   0.512928 0.545798 0.029697 0.099250
C14   C     C_R   0.451424 0.633280 0.995526 0.129527
C15   C     C_R   0.384518 0.632758 0.904172 -0.202812
C16   C     C_R   0.376352 0.546000 0.847745 0.132634
C17   C     C_R   0.537160 0.526864 0.133601 -0.173533
C18   C     C_R   0.476264 0.695056 0.162192 -0.193826
C19   C     C_R   0.483753 0.401586 0.800252 -0.104541
C20   C     C_R   0.319080 0.088485 0.346849 -0.295629
C21   C     C_R   0.654783 0.802354 0.629606 0.529552
C22   C     C_R   0.683923 0.906743 0.657463 -0.271271
C23   C     C_R   0.514458 0.561004 0.308993 0.857638
C24   C     C_R   0.624107 0.986379 0.608877 -0.277328
C25   C     C_R   0.534253 0.962373 0.530741 0.027570
C26   C     C_R   0.506447 0.854307 0.504689 0.161166
C27   C     C_R   0.471595 0.041526 0.477636 0.011090
C28   C     C_R   0.381731 0.011446 0.399990 0.190249
C29   C     C_R   0.355850 0.905095 0.375782 -0.286045
C30   C     C_R   0.417791 0.827955 0.427150 -0.197953
C31   C     C_R   0.494953 0.150382 0.497968 -0.048455
C32   C     C_R   0.346432 0.194558 0.370722 0.026650
C33   C     C_R   0.257837 0.499695 0.499944 0.832275
C34   C     C_3   0.933575 0.401782 0.481275 -0.126629
C35   C     C_3   0.022652 0.421620 0.573620 -0.201583
C36   C     C_3   0.122505 0.499887 0.500305 0.013078
C37   C     C_3   0.036128 0.480315 0.408026 -0.156822
C38   C     C_3   0.977562 0.578446 0.427350 -0.168915
H1    H     H_    0.045776 0.357885 0.632988 0.145456
H2    H     H_    0.557941 0.449547 0.165958 0.201473
H3    H     H_    0.563766 0.261745 0.777416 0.168916
H4    H     H_    0.677238 0.256980 0.938147 0.179600
H5    H     H_    0.299200 0.255413 0.330307 0.137297
H6    H     H_    0.287800 0.881430 0.316326 0.153180
H7    H     H_    0.250153 0.066969 0.287411 0.150272
H8    H     H_    0.561610 0.181350 0.554811 0.123545
H9    H     H_    0.875636 0.321453 0.465653 0.157685
H10   H     H_    0.650847 0.065568 0.634300 0.154588
H11   H     H_    0.753431 0.926406 0.716925 0.186904
H12   H     H_    0.394897 0.748350 0.404041 0.209338
H13   H     H_    0.070177 0.464200 0.332946 0.152697
H14   H     H_    0.954593 0.642286 0.368020 0.149675
H15   H     H_    0.124731 0.678535 0.535341 0.161325
H16   H     H_    0.930107 0.535799 0.668076 0.188316
H17   H     H_    0.459459 0.751569 0.213242 0.153196
H18   H     H_    0.326017 0.693040 0.882611 0.154031
H19   H     H_    0.398939 0.780831 0.033368 0.141285
N1    N     N_R   0.432930 0.222190 0.444670 -0.104302
N2    N     N_R   0.566370 0.776980 0.554790 -0.166220
O1    O     O_R   0.467970 0.366730 0.627150 -0.628563
O2    O     O_R   0.510820 0.544830 0.662520 -0.562518
O3    O     O_R   0.664630 0.410960 0.482340 -0.628497
O4    O     O_R   0.707470 0.589060 0.517710 -0.562855
O5    O     O_R   0.489180 0.455170 0.337480 -0.615331
O6    O     O_R   0.532030 0.633270 0.372850 -0.636153
O7    O     O_R   0.292530 0.410940 0.482290 -0.614883
O8    O     O_R   0.335370 0.589040 0.517660 -0.663508
Zn1   Zn    Zn3+2 0.471390 0.381080 0.476380 0.946297
Zn2   Zn    Zn3+2 0.528610 0.618920 0.523620 0.969248
Cl1   Cl    Cl    0.747271 0.413901 0.069140 -0.647761
N3    N     N_3   0.273442 0.531241 0.774925 -0.451408
H20   H     H_    0.255590 0.453324 0.752339 0.160005
H21   H     H_    0.298403 0.590638 0.711151 0.220836
Cl2   Cl    Cl    0.736906 0.706753 0.693828 -0.608928

loop_
_geom_bond_atom_site_label_1
_geom_bond_atom_site_label_2
_ccdc_geom_bond_type
O7    Zn1   S    
C34   C37   S    
C35   C36   S    
C32   N1    A    
C7    C8    A    
C11   C19   A    
C29   C30   A    
O5    Zn1   S    
C31   N1    A    
C28   C29   A    
C8    H4    S    
C21   N2    A    
C37   H13   S    
C3    H16   S    
C38   H14   S    
O2    Zn2   S    
C15   C16   A    
C33   C36   S    
C34   C35   S    
O4    Zn2   S    
C8    C9    A    
C31   H8    S    
C4    C12   S    
C9    C10   A    
C20   H7    S    
C30   H12   S    
C21   C22   A    
C16   N3    S    
C33   O7    A    
C6    C18   A    
C4    C34   S    
C1    C19   S    
C27   C31   A    
C24   H10   S    
C24   C25   A    
C1    O1    A    
N3    H21   S    
C12   O4    A    
C5    C18   A    
C20   C28   A    
C25   C26   A    
C21   Cl2   S    
C2    H15   S    
O8    Zn2   S    
C17   H2    S    
C35   H1    S    
C37   C38   S    
C12   O3    A    
C11   C16   A    
C2    C38   S    
C3    C35   S    
C9    Cl1   S    
C5    C14   A    
C18   H17   S    
N2    Zn2   S    
C22   H11   S    
N1    Zn1   S    
C23   O5    A    
C4    C38   S    
C26   C30   A    
C7    C19   A    
C29   H6    S    
C22   C24   A    
C3    C4    S    
C33   O8    A    
C20   C32   A    
C2    C36   S    
C6    C17   A    
C36   C37   S    
C10   C13   A    
C1    O2    A    
C5    H19   S    
C25   C27   A    
C13   C17   A    
C15   H18   S    
C23   O6    A    
C2    C3    S    
N3    H20   S    
O6    Zn2   S    
C6    C23   S    
C32   H5    S    
O3    Zn1   S    
C7    H3    S    
C10   C11   A    
O1    Zn1   S    
C27   C28   A    
C14   C15   A    
C26   N2    A    
C34   H9    S    
C13   C14   A    
