data_mof_unit_61218.cif
_audit_creation_date              2012-12-10T18:12:35-0500
_audit_creation_method            fapswitch 2.2
_symmetry_space_group_name_H-M    P1
_symmetry_Int_Tables_number       1
_space_group_crystal_system       triclinic
_cell_length_a                    39.260024
_cell_length_b                    32.235688
_cell_length_c                    21.991275
_cell_angle_alpha                 91.025555
_cell_angle_beta                  124.816082
_cell_angle_gamma                 89.526069
_cell_volume                      22845.6988912

loop_
_atom_site_label
_atom_site_type_symbol
_atom_type_description
_atom_site_fract_x
_atom_site_fract_y
_atom_site_fract_z
_atom_type_partial_charge
C1    C     C_R   0.420409 0.499962 0.420441 0.812907
C2    C     C_R   0.579593 0.500032 0.579543 0.814347
C3    C     C_R   0.920409 0.999965 0.420444 0.815522
C4    C     C_R   0.079592 0.000034 0.579548 0.813857
C5    C     C_R   0.272190 0.522550 0.319132 0.513756
C6    C     C_R   0.727927 0.522028 0.681429 0.514125
C7    C     C_R   0.772239 0.994694 0.328716 0.514386
C8    C     C_R   0.227738 0.991583 0.671737 0.513414
C9    C     C_R   0.293552 0.499763 0.295570 0.042948
C10   C     C_R   0.706467 0.499941 0.704471 0.044258
C11   C     C_R   0.793551 0.000234 0.295272 0.044745
C12   C     C_R   0.206459 0.000286 0.704709 0.044843
C13   C     C_R   0.271165 0.476580 0.229280 -0.257792
C14   C     C_R   0.728724 0.477359 0.770179 -0.259428
C15   C     C_R   0.771125 0.006443 0.218756 -0.258528
C16   C     C_R   0.228915 0.009535 0.780742 -0.258357
C17   C     C_1   0.161544 0.499828 0.163241 -0.031486
C18   C     C_1   0.838461 0.499837 0.836823 -0.031748
C19   C     C_1   0.661543 0.000224 0.163111 -0.031412
C20   C     C_1   0.338461 0.000160 0.836922 -0.031673
C21   C     C_1   0.338354 0.499821 0.339361 0.002962
C22   C     C_1   0.661657 0.500025 0.660610 0.005756
C23   C     C_1   0.838353 0.999989 0.339226 0.004680
C24   C     C_1   0.161652 0.000152 0.660743 0.004587
C25   C     C_1   0.375810 0.499880 0.376263 -0.168488
C26   C     C_1   0.624197 0.500070 0.623704 -0.167316
C27   C     C_1   0.875809 0.999915 0.376212 -0.168252
C28   C     C_1   0.124194 0.000099 0.623765 -0.168978
C29   C     C_1   0.124063 0.499929 0.125200 -0.167606
C30   C     C_1   0.875942 0.499920 0.874829 -0.167791
C31   C     C_1   0.624062 0.000099 0.125171 -0.167460
C32   C     C_1   0.375941 0.000052 0.874847 -0.167590
C33   C     C_R   0.499963 0.420397 0.999991 0.832107
C34   C     C_R   0.999963 0.920397 0.999990 0.833180
C35   C     C_R   0.499592 0.497629 0.882080 0.833656
C36   C     C_R   0.500408 0.502380 0.117920 0.833189
C37   C     C_R   0.999592 0.997627 0.882080 0.832841
C38   C     C_R   0.000407 0.002375 0.117920 0.833535
C39   C     C_R   0.500039 0.579609 0.000010 0.832804
C40   C     C_R   0.000039 0.079609 0.000010 0.831488
C41   C     C_R   0.499945 0.500553 0.617493 0.731635
C42   C     C_R   0.500011 0.499432 0.382454 0.733568
C43   C     C_R   0.999949 0.000553 0.617498 0.734627
C44   C     C_R   0.000025 0.999433 0.382471 0.732219
C45   C     C_R   1.000000 0.420608 0.999531 0.818633
C46   C     C_R   0.500000 0.920608 0.999531 0.820900
C47   C     C_R   0.079427 0.500000 0.079740 0.818169
C48   C     C_R   0.920575 0.499984 0.920265 0.818167
C49   C     C_R   0.579426 0.000007 0.079738 0.818517
C50   C     C_R   0.420575 0.999985 0.920265 0.818447
C51   C     C_R   0.000003 0.579478 0.000473 0.821339
C52   C     C_R   0.500003 0.079478 0.000473 0.819620
C53   C     C_R   0.972694 0.728719 0.011555 -0.169825
C54   C     C_R   0.027479 0.727747 0.991898 -0.169505
C55   C     C_R   0.473971 0.228751 0.014733 -0.173502
C56   C     C_R   0.526201 0.227714 0.988676 -0.173062
C57   C     C_R   0.000112 0.706369 0.001903 0.150148
C58   C     C_R   0.500112 0.206368 0.001880 0.151915
C59   C     C_R   0.526138 0.271147 0.988284 -0.175203
C60   C     C_R   0.473909 0.272193 0.014344 -0.170165
C61   C     C_R   0.027417 0.771180 0.991505 -0.171532
C62   C     C_R   0.972632 0.772161 0.011163 -0.166672
C63   C     C_R   0.499980 0.293534 0.001080 0.151949
C64   C     C_R   0.999981 0.793534 0.001097 0.150292
C65   C     C_1   0.000047 0.661593 0.001854 -0.061088
C66   C     C_1   0.500047 0.161593 0.001845 -0.065171
C67   C     C_1   0.499904 0.338303 0.000598 -0.063954
C68   C     C_1   0.999905 0.838303 0.000605 -0.059990
C69   C     C_1   0.499897 0.375774 0.000247 -0.165908
C70   C     C_1   0.999897 0.875774 0.000250 -0.162428
C71   C     C_2   0.530455 0.484398 0.813002 -0.121623
C72   C     C_2   0.469570 0.515802 0.187006 -0.121511
C73   C     C_2   0.030455 0.984385 0.813004 -0.122507
C74   C     C_2   0.969551 0.015702 0.186993 -0.121718
C75   C     C_1   0.000017 0.624113 0.001467 -0.160991
C76   C     C_1   0.500018 0.124113 0.001466 -0.164489
C77   C     C_R   0.976633 0.271107 0.931726 -0.173695
C78   C     C_R   0.023933 0.272526 0.065618 -0.172772
C79   C     C_R   0.479253 0.771071 0.931594 -0.169963
C80   C     C_R   0.521299 0.772563 0.065819 -0.169078
C81   C     C_R   0.000279 0.293688 0.998530 0.151813
C82   C     C_R   0.500271 0.793689 0.998564 0.149529
C83   C     C_R   0.521291 0.729125 0.066114 -0.171790
C84   C     C_R   0.479246 0.727624 0.931889 -0.167136
C85   C     C_R   0.023923 0.229088 0.065917 -0.174966
C86   C     C_R   0.976623 0.227660 0.932025 -0.170468
C87   C     C_R   0.500250 0.706504 0.999154 0.150352
C88   C     C_R   0.000253 0.206504 0.999129 0.152485
C89   C     C_1   0.000149 0.338475 0.998362 -0.065229
C90   C     C_1   0.500145 0.838475 0.998374 -0.060947
C91   C     C_1   0.500182 0.661722 0.999489 -0.060264
C92   C     C_1   0.000183 0.161722 0.999477 -0.063892
C93   C     C_1   0.500123 0.624244 0.999771 -0.163047
C94   C     C_1   0.000123 0.124245 0.999767 -0.165965
C95   C     C_1   0.000066 0.375961 0.998622 -0.164427
C96   C     C_1   0.500064 0.875961 0.998623 -0.160471
C97   C     C_2   0.497256 0.491666 0.814206 -0.246706
C98   C     C_2   0.502742 0.508334 0.185798 -0.245893
C99   C     C_2   0.997257 0.991663 0.814207 -0.244176
C100  C     C_2   0.002739 0.008330 0.185794 -0.246583
C101  C     C_2   0.526050 0.480002 0.742021 -0.255574
C102  C     C_2   0.473990 0.520175 0.258007 -0.255118
C103  C     C_2   0.026050 0.979990 0.742023 -0.254353
C104  C     C_2   0.973959 0.020083 0.257980 -0.255724
C105  C     C_2   0.499298 0.503276 0.683166 0.366172
C106  C     C_2   0.500540 0.496669 0.316648 0.366669
C107  C     C_2   0.999308 0.003276 0.683178 0.366891
C108  C     C_2   0.000597 0.996679 0.316716 0.362413
C109  C     C_R   0.227763 0.476447 0.186016 -0.171361
C110  C     C_R   0.772123 0.477150 0.813447 -0.170889
C111  C     C_R   0.727725 0.006621 0.175418 -0.170565
C112  C     C_R   0.272316 0.009657 0.824097 -0.170803
C113  C     C_R   0.206329 0.499640 0.208469 0.080695
C114  C     C_R   0.793674 0.499695 0.791601 0.082495
C115  C     C_R   0.706325 0.000419 0.208132 0.080797
C116  C     C_R   0.293680 0.000354 0.791891 0.081216
C117  C     C_R   0.228570 0.522826 0.274756 -0.257427
C118  C     C_R   0.771570 0.522283 0.725925 -0.259938
C119  C     C_R   0.728604 0.994218 0.284625 -0.258011
C120  C     C_R   0.271376 0.991078 0.715900 -0.258373
Cu1   Cu    Cu3+1 0.500000 0.541020 0.500000 0.981018
Cu2   Cu    Cu3+1 0.000000 0.041020 0.500000 0.958241
Cu3   Cu    Cu3+1 0.500000 0.458980 0.500000 0.958243
Cu4   Cu    Cu3+1 0.000000 0.958980 0.500000 0.976620
Cu5   Cu    Cu3+1 0.541020 0.500000 0.040980 0.960407
Cu6   Cu    Cu3+1 0.458980 0.500000 0.959020 0.959926
Cu7   Cu    Cu3+1 0.041020 0.000000 0.040980 0.960814
Cu8   Cu    Cu3+1 0.958980 1.000000 0.959020 0.961887
Cu9   Cu    Cu3+1 0.000010 0.500040 0.061000 0.966791
Cu10  Cu    Cu3+1 0.999990 0.500040 0.939000 0.966568
Cu11  Cu    Cu3+1 0.500010 0.000040 0.061000 0.966717
Cu12  Cu    Cu3+1 0.499990 0.000040 0.939000 0.966603
H1    H     H_    0.560948 0.480432 0.864131 0.159826
H2    H     H_    0.439110 0.519952 0.135889 0.160428
H3    H     H_    0.060947 0.980413 0.864133 0.159783
H4    H     H_    0.939077 0.019768 0.135867 0.159595
H5    H     H_    0.951367 0.712583 0.019290 0.141229
H6    H     H_    0.048805 0.710854 0.984328 0.140211
H7    H     H_    0.453641 0.212640 0.024961 0.139042
H8    H     H_    0.546531 0.210796 0.978616 0.138051
H9    H     H_    0.462859 0.710524 0.879742 0.142460
H10   H     H_    0.537644 0.713201 0.118486 0.139313
H11   H     H_    0.958190 0.210590 0.880011 0.139838
H12   H     H_    0.042321 0.213136 0.118164 0.136928
H13   H     H_    0.958194 0.287065 0.879493 0.138680
H14   H     H_    0.042327 0.289592 0.117645 0.138261
H15   H     H_    0.462861 0.787002 0.879228 0.141431
H16   H     H_    0.537648 0.789657 0.117971 0.140918
H17   H     H_    0.466366 0.491328 0.763046 0.180064
H18   H     H_    0.533622 0.508504 0.236979 0.180674
H19   H     H_    0.966367 0.991330 0.763046 0.182184
H20   H     H_    0.033622 0.008576 0.236968 0.179509
H21   H     H_    0.546991 0.458881 0.739613 0.119555
H22   H     H_    0.453246 0.541494 0.260610 0.123015
H23   H     H_    0.046982 0.958860 0.739605 0.121292
H24   H     H_    0.953129 0.041316 0.260495 0.119865
H25   H     H_    0.287285 0.458685 0.210907 0.162177
H26   H     H_    0.712493 0.459974 0.788084 0.160176
H27   H     H_    0.787213 0.011057 0.192545 0.160571
H28   H     H_    0.212844 0.016567 0.806571 0.161240
H29   H     H_    0.210922 0.458418 0.134863 0.151986
H30   H     H_    0.788856 0.459583 0.864127 0.151237
H31   H     H_    0.710853 0.011418 0.116336 0.152271
H32   H     H_    0.289208 0.016832 0.882801 0.152288
H33   H     H_    0.212185 0.541141 0.292129 0.157226
H34   H     H_    0.788093 0.540165 0.709169 0.155867
H35   H     H_    0.712241 0.988983 0.310170 0.156826
H36   H     H_    0.287728 0.983422 0.690802 0.156287
H37   H     H_    0.453549 0.289118 0.024322 0.140921
H38   H     H_    0.546436 0.287251 0.977970 0.137200
H39   H     H_    0.951276 0.789059 0.018647 0.142749
H40   H     H_    0.048711 0.787309 0.983679 0.139267
O1    O     O_R   0.440150 0.534640 0.440170 -0.575899
O2    O     O_R   0.559850 0.534640 0.559830 -0.565176
O3    O     O_R   0.940150 0.034640 0.440170 -0.588085
O4    O     O_R   0.059850 0.034640 0.559830 -0.578097
O5    O     O_R   0.059850 0.500040 0.111340 -0.578994
O6    O     O_R   0.940150 0.500040 0.888660 -0.579126
O7    O     O_R   0.559850 0.000040 0.111340 -0.578699
O8    O     O_R   0.440150 0.000040 0.888660 -0.578789
O9    O     O_R   0.059840 0.499970 0.008270 -0.577633
O10   O     O_R   0.940160 0.499970 0.991730 -0.577598
O11   O     O_R   0.559840 0.999970 0.008270 -0.578285
O12   O     O_R   0.440160 0.999970 0.991730 -0.578243
O13   O     O_R   0.000010 0.559880 0.051460 -0.578074
O14   O     O_R   0.999990 0.559880 0.948540 -0.577647
O15   O     O_R   0.500010 0.059880 0.051460 -0.579284
O16   O     O_R   0.499990 0.059880 0.948540 -0.578751
O17   O     O_R   0.440150 0.465360 0.440130 -0.578972
O18   O     O_R   0.559850 0.465360 0.559870 -0.588795
O19   O     O_R   0.940150 0.965360 0.440130 -0.567889
O20   O     O_R   0.059850 0.965360 0.559870 -0.578606
O21   O     O_R   0.500010 0.534640 0.589030 -0.558710
O22   O     O_R   0.499990 0.534640 0.410970 -0.603872
O23   O     O_R   0.000010 0.034640 0.589030 -0.561883
O24   O     O_R   0.999990 0.034640 0.410970 -0.607587
O25   O     O_R   0.500010 0.465360 0.588990 -0.607769
O26   O     O_R   0.499990 0.465360 0.411010 -0.561615
O27   O     O_R   0.000010 0.965360 0.588990 -0.603609
O28   O     O_R   0.999990 0.965360 0.411010 -0.559308
O29   O     O_R   0.534640 0.440150 0.034560 -0.581905
O30   O     O_R   0.465360 0.440150 0.965440 -0.580316
O31   O     O_R   0.034640 0.940150 0.034560 -0.580917
O32   O     O_R   0.965360 0.940150 0.965440 -0.578973
O33   O     O_R   0.534630 0.500000 0.945560 -0.582359
O34   O     O_R   0.465370 0.500000 0.054440 -0.582542
O35   O     O_R   0.034630 0.000000 0.945560 -0.582866
O36   O     O_R   0.965370 0.000000 0.054440 -0.582676
O37   O     O_R   0.465350 0.500000 0.876310 -0.590509
O38   O     O_R   0.534650 0.500000 0.123690 -0.590307
O39   O     O_R   0.965350 1.000000 0.876310 -0.589327
O40   O     O_R   0.034650 0.000000 0.123690 -0.590066
O41   O     O_R   0.534640 0.559850 0.034640 -0.579005
O42   O     O_R   0.465360 0.559850 0.965360 -0.580987
O43   O     O_R   0.034640 0.059850 0.034640 -0.580179
O44   O     O_R   0.965360 0.059850 0.965360 -0.581860
O45   O     O_R   1.000000 0.440190 0.051560 -0.578611
O46   O     O_R   1.000000 0.440190 0.948440 -0.579103
O47   O     O_R   0.500000 0.940190 0.051560 -0.577484
O48   O     O_R   0.500000 0.940190 0.948440 -0.577994
O49   O     O_3   0.478824 0.536213 0.690972 -0.556542
C121  C     C_3   0.436726 0.536804 0.630172 -0.324101
H41   H     H_    0.422152 0.505467 0.617201 0.127404
H42   H     H_    0.433194 0.549846 0.580465 0.191266
H43   H     H_    0.419481 0.557346 0.644681 0.193876
O50   O     O_3   0.520686 0.463540 0.308486 -0.556216
C122  C     C_3   0.562833 0.462699 0.369034 -0.336516
H44   H     H_    0.566429 0.449672 0.418803 0.184962
H45   H     H_    0.577602 0.493940 0.382043 0.134688
H46   H     H_    0.579835 0.442019 0.354187 0.192521
O51   O     O_3   0.978850 0.036222 0.691002 -0.557911
C123  C     C_3   0.936746 0.036811 0.630230 -0.334161
H47   H     H_    0.922168 0.005477 0.617296 0.143152
H48   H     H_    0.933198 0.049834 0.580497 0.184745
H49   H     H_    0.919517 0.057368 0.644752 0.190033
O52   O     O_3   0.020890 0.963636 0.308715 -0.559821
C124  C     C_3   0.063022 0.962931 0.369349 -0.307149
H50   H     H_    0.066610 0.949925 0.419126 0.189721
H51   H     H_    0.077693 0.994219 0.382280 0.129240
H52   H     H_    0.080125 0.942300 0.354656 0.197309
O53   O     O_3   0.293808 0.546677 0.383030 -0.569717
C125  C     C_3   0.297891 0.524087 0.441141 -0.337472
H53   H     H_    0.315089 0.494585 0.450504 0.155056
H54   H     H_    0.267101 0.517707 0.430563 0.161789
H55   H     H_    0.316076 0.542982 0.492901 0.193408
O54   O     O_3   0.706308 0.545513 0.618054 -0.568104
C126  C     C_3   0.704825 0.523555 0.560560 -0.331635
H56   H     H_    0.689638 0.492721 0.549992 0.151847
H57   H     H_    0.736352 0.519838 0.572697 0.160229
H58   H     H_    0.685972 0.541545 0.508900 0.195925
O55   O     O_3   0.793977 0.987057 0.403649 -0.570745
C127  C     C_3   0.796773 0.024364 0.440673 -0.340247
H59   H     H_    0.765611 0.035204 0.423993 0.162257
H60   H     H_    0.812840 0.049009 0.431050 0.156436
H61   H     H_    0.815461 0.018642 0.501081 0.193157
O56   O     O_3   0.205936 0.980954 0.597379 -0.573612
C128  C     C_3   0.204023 0.016004 0.558134 -0.339552
H62   H     H_    0.235423 0.025218 0.574144 0.162405
H63   H     H_    0.188618 0.042572 0.566272 0.158866
H64   H     H_    0.185141 0.008013 0.498141 0.192697

loop_
_geom_bond_atom_site_label_1
_geom_bond_atom_site_label_2
_ccdc_geom_bond_type
C83   C87   A    
Cu9   O10   S    
C108  O52   S    
C107  O51   S    
C105  O49   S    
C16   H28   S    
C2    O18   A    
C45   O45   A    
C9    C21   S    
C4    O20   A    
Cu3   O26   S    
Cu9   O45   S    
C84   C87   A    
C104  C108  D    
Cu2   O23   S    
C47   O9    A    
C19   C31   T    
C54   C57   A    
Cu12  O16   S    
C48   O6    A    
C110  H30   S    
C17   C113  S    
O55   C127  S    
C72   C98   D    
C10   C22   S    
C7    C11   A    
C62   H39   S    
C71   C97   D    
Cu4   O27   S    
Cu5   O29   S    
C41   C105  S    
Cu2   O24   S    
C29   C47   S    
C60   C63   A    
C53   H5    S    
C60   H37   S    
C64   C68   S    
C37   C99   S    
C30   C48   S    
C51   C75   S    
O53   C125  S    
Cu9   O13   S    
Cu8   O39   S    
C20   C32   T    
C79   C84   A    
C56   H8    S    
C9    C13   A    
C86   C88   A    
C126  H58   S    
C43   O27   A    
Cu2   O3    S    
C73   C99   D    
C33   O30   A    
C55   H7    S    
O52   C124  S    
C128  H63   S    
Cu11  O47   S    
C128  H62   S    
Cu8   O32   S    
Cu1   O21   S    
C42   O22   A    
C122  H44   S    
Cu7   O35   S    
C37   O39   A    
C13   C109  A    
Cu10  O6    S    
C36   C98   S    
C49   O11   A    
C83   H10   S    
C11   C15   A    
C35   O33   A    
Cu1   O1    S    
C103  C107  D    
C88   C92   S    
C43   O23   A    
C117  H33   S    
C74   H4    S    
C73   C103  S    
C41   O21   A    
C106  O50   S    
C6    O54   S    
C18   C30   T    
C52   O15   A    
C23   C27   T    
Cu3   O17   S    
C59   H38   S    
Cu6   O42   S    
C110  C114  A    
C62   C64   A    
Cu11  O15   S    
C33   C69   S    
C81   C89   S    
Cu4   O20   S    
C44   C108  S    
C71   C101  S    
C66   C76   T    
C55   C60   A    
C1    C25   S    
C45   O46   A    
C37   O35   A    
Cu10  O46   S    
Cu5   O41   S    
C31   C49   S    
C80   C83   A    
C39   C93   S    
C85   H12   S    
C13   H25   S    
C4    C28   S    
Cu5   O33   S    
C58   C66   S    
C86   H11   S    
O50   C122  S    
C126  H57   S    
C101  C105  D    
C12   C16   A    
C112  H32   S    
C63   C67   S    
C44   O24   A    
C125  H55   S    
C46   O48   A    
C87   C91   S    
C39   O41   A    
C7    C119  A    
C42   O26   A    
C111  H31   S    
C80   C82   A    
C21   C25   T    
C10   C14   A    
C34   O32   A    
C125  H54   S    
C20   C116  S    
Cu11  O7    S    
C74   C100  D    
C121  H43   S    
C101  H21   S    
Cu9   O5    S    
Cu10  O9    S    
C123  H49   S    
C100  H20   S    
C116  C120  A    
C7    O55   S    
Cu12  O48   S    
C89   C95   T    
C61   C64   A    
C50   O8    A    
C5    C9    A    
O49   C121  S    
C51   O13   A    
C73   H3    S    
C3    O19   A    
C99   H19   S    
C91   C93   T    
Cu11  O12   S    
Cu7   O40   S    
C127  H60   S    
C72   H2    S    
Cu1   O2    S    
C16   C112  A    
C19   C115  S    
C34   O31   A    
C8    C12   A    
C1    O1    A    
O56   C128  S    
C40   O44   A    
C92   C94   T    
C125  H53   S    
C2    C26   S    
C61   H40   S    
C43   C107  S    
C104  H24   S    
Cu3   O18   S    
C121  H42   S    
C42   C106  S    
C32   C50   S    
C114  C118  A    
C38   O36   A    
Cu8   O44   S    
C127  H61   S    
C113  C117  A    
C78   C85   A    
C41   O25   A    
C122  H45   S    
Cu12  O8    S    
C77   C86   A    
C44   O28   A    
C115  C119  A    
C124  H51   S    
C4    O4    A    
Cu5   Cu6   S    
C124  H52   S    
Cu2   Cu4   S    
Cu7   Cu8   S    
C45   C95   S    
C77   H13   S    
Cu1   O22   S    
C112  C116  A    
C18   C114  S    
C120  H36   S    
C74   C104  S    
Cu9   Cu10  S    
C98   H18   S    
C85   C88   A    
C103  H23   S    
C14   C110  A    
C8    C120  A    
C34   C70   S    
O54   C126  S    
C53   C57   A    
C46   O47   A    
C39   O42   A    
C123  H48   S    
C38   C100  S    
Cu3   O25   S    
C50   O12   A    
C24   C28   T    
C40   C94   S    
C52   C76   S    
Cu6   O37   S    
C82   C90   S    
C15   H27   S    
C71   H1    S    
C79   C82   A    
C79   H15   S    
Cu5   O38   S    
Cu10  O14   S    
C90   C96   T    
C54   C61   A    
C109  C113  A    
C52   O16   A    
Cu4   O28   S    
C59   C63   A    
C65   C75   T    
C56   C59   A    
C128  H64   S    
C38   O40   A    
C3    C27   S    
C35   O37   A    
Cu12  O11   S    
C51   O14   A    
C109  H29   S    
C102  H22   S    
C2    O2    A    
C48   O10   A    
C33   O29   A    
C78   C81   A    
Cu7   O43   S    
C54   H6    S    
C36   O34   A    
C72   C102  S    
C84   H9    S    
Cu6   O34   S    
Cu2   O4    S    
C40   O43   A    
C11   C23   S    
C123  H47   S    
C56   C58   A    
C102  C106  D    
C119  H35   S    
C57   C65   S    
C121  H41   S    
C124  H50   S    
C14   H26   S    
Cu1   Cu3   S    
C6    C10   A    
C78   H14   S    
C67   C69   T    
C3    O3    A    
Cu6   O30   S    
C17   C29   T    
C80   H16   S    
C122  H46   S    
C46   C96   S    
C53   C62   A    
C47   O5    A    
C77   C81   A    
C22   C26   T    
C55   C58   A    
C5    C117  A    
O51   C123  S    
C68   C70   T    
C97   H17   S    
C111  C115  A    
C12   C24   S    
Cu8   O36   S    
C8    O56   S    
C5    O53   S    
C35   C97   S    
Cu7   O31   S    
C6    C118  A    
Cu4   O19   S    
C118  H34   S    
Cu11  Cu12  S    
C126  H56   S    
C36   O38   A    
C127  H59   S    
C49   O7    A    
C15   C111  A    
C1    O17   A    
