data_mof_unit_21683.cif
_audit_creation_date              2013-03-05T15:45:31-0500
_audit_creation_method            fapswitch 2.2
_symmetry_space_group_name_H-M    P1
_symmetry_Int_Tables_number       1
_space_group_crystal_system       triclinic
_cell_length_a                    10.900506
_cell_length_b                    10.894593
_cell_length_c                    18.745062
_cell_angle_alpha                 90.172527
_cell_angle_beta                  89.60982
_cell_angle_gamma                 60.373949
_cell_volume                      1934.98503364

loop_
_atom_site_label
_atom_site_type_symbol
_atom_site_description
_atom_site_fract_x
_atom_site_fract_y
_atom_site_fract_z
_atom_type_partial_charge
O1    O     O_R   0.507430 0.255570 0.581420 -0.431543
O2    O     O_R   0.280190 0.527390 0.578910 -0.488501
C1    C     C_R   0.236750 0.647140 0.609772 0.551273
O3    O     O_R   0.260310 0.739740 0.584580 -0.513853
O4    O     O_R   0.532250 0.695150 0.573830 -0.496210
C2    C     C_R   0.654935 0.622457 0.600401 0.564860
O5    O     O_R   0.744930 0.503430 0.576380 -0.457903
O6    O     O_R   0.699250 0.276390 0.571950 -0.501752
C3    C     C_R   0.622537 0.236889 0.605744 0.599919
O7    O     O_R   0.499020 0.256400 0.419850 -0.492363
O8    O     O_R   0.272400 0.528160 0.429140 -0.533030
C4    C     C_R   0.219506 0.650573 0.401319 0.557365
O9    O     O_R   0.251910 0.740570 0.423020 -0.445922
O10   O     O_R   0.524460 0.695920 0.424060 -0.486984
C5    C     C_R   0.645271 0.625877 0.393625 0.535055
O11   O     O_R   0.736530 0.504260 0.414810 -0.527317
O12   O     O_R   0.691460 0.277160 0.422180 -0.459367
C6    C     C_R   0.578520 0.297623 0.388352 0.560184
Cr1   Cr    Cr6+3 0.392930 0.397900 0.502230 1.100314
Cr2   Cr    Cr6+3 0.398240 0.708600 0.501260 1.107059
Cr3   Cr    Cr6+3 0.708800 0.393470 0.496460 1.114369
O13   O     O_3   0.499990 0.499990 0.499980 -0.326471
C7    C     C_3   0.594825 0.821483 0.778317 -0.213001
H1    H     H_    0.629813 0.899920 0.789147 0.185201
H2    H     H_    0.488885 0.863438 0.803836 0.126737
C8    C     C_3   0.582374 0.804720 0.697130 0.058958
H3    H     H_    0.469332 0.839500 0.686614 0.137700
H4    H     H_    0.877670 0.700785 0.776747 0.116554
H5    H     H_    0.871622 0.648958 0.660488 0.167463
C9    C     C_3   0.843621 0.620209 0.772209 -0.213858
C10   C     C_3   0.643449 0.572246 0.800752 -0.246876
C11   C     C_3   0.700029 0.675554 0.811667 -0.022585
H6    H     H_    0.720515 0.465809 0.821020 0.186779
H7    H     H_    0.542975 0.609183 0.831093 0.144550
C12   C     C_3   0.673522 0.645642 0.675706 0.024631
C13   C     C_3   0.832905 0.590212 0.693343 0.091244
C14   C     C_3   0.617908 0.562706 0.720893 -0.254721
H8    H     H_    0.503111 0.606428 0.712024 0.103412
H9    H     H_    0.668486 0.450443 0.704144 0.177724
H10   H     H_    0.924972 0.522101 0.797657 0.187307
C15   C     C_R   0.780644 0.155236 0.710825 -0.108887
H11   H     H_    0.871384 0.126309 0.676514 0.188398
C16   C     C_R   0.799421 0.136148 0.784151 -0.143888
H12   H     H_    0.905588 0.083378 0.805083 0.163712
C17   C     C_R   0.682250 0.175828 0.829162 -0.027317
C18   C     C_R   0.545408 0.243450 0.801239 0.035520
C19   C     C_R   0.529039 0.240826 0.727777 0.126117
C20   C     C_R   0.646387 0.204023 0.681820 0.034738
C21   C     C_R   0.166940 0.571636 0.719382 -0.132079
H13   H     H_    0.152791 0.494851 0.689670 0.206158
C22   C     C_R   0.157326 0.574514 0.793071 -0.124702
H14   H     H_    0.131225 0.502244 0.819028 0.181848
C23   C     C_R   0.171736 0.675724 0.832626 0.041755
C24   C     C_R   0.203141 0.770147 0.797783 -0.144117
H15   H     H_    0.213749 0.850555 0.826769 0.147058
C25   C     C_R   0.212319 0.767644 0.724397 -0.142920
H16   H     H_    0.236695 0.842519 0.699281 0.152238
C26   C     C_R   0.196051 0.666747 0.684596 0.024624
C27   C     C_R   0.804092 0.587401 0.291948 -0.116729
H17   H     H_    0.889231 0.498342 0.318732 0.160892
C28   C     C_R   0.821823 0.606343 0.220769 -0.098777
H18   H     H_    0.919498 0.531451 0.194933 0.166352
C29   C     C_R   0.712213 0.714006 0.182149 0.025739
C30   C     C_R   0.588152 0.811639 0.217846 -0.104438
H19   H     H_    0.504430 0.899433 0.189759 0.154772
C31   C     C_R   0.568716 0.790596 0.289654 -0.115830
H20   H     H_    0.469464 0.860974 0.315590 0.189907
C32   C     C_R   0.674276 0.673712 0.325908 0.017286
C33   C     C_R   0.493307 0.250340 0.275921 -0.142327
H21   H     H_    0.405384 0.251785 0.303927 0.158553
C34   C     C_R   0.512559 0.212792 0.204890 -0.171214
H22   H     H_    0.440441 0.183249 0.181139 0.148356
C35   C     C_R   0.630300 0.199868 0.167463 0.021060
C36   C     C_R   0.716607 0.247873 0.199326 0.214241
C37   C     C_R   0.698015 0.282201 0.272164 -0.087434
H23   H     H_    0.766807 0.313250 0.298371 0.181290
C38   C     C_R   0.591465 0.275413 0.311262 -0.017837
C39   C     C_R   0.155021 0.786525 0.290675 0.179395
C40   C     C_R   0.187129 0.767261 0.218215 0.037125
C41   C     C_R   0.164693 0.666527 0.181377 -0.015146
C42   C     C_R   0.159194 0.558860 0.219143 -0.181898
H24   H     H_    0.150539 0.476194 0.191487 0.146381
C43   C     C_R   0.163528 0.558818 0.293162 -0.187009
H25   H     H_    0.169397 0.469971 0.321854 0.149599
C44   C     C_R   0.162040 0.672399 0.329524 0.000188
O14   O     O_R   0.089490 0.825610 0.930610 -0.510937
O15   O     O_R   0.818370 0.054540 0.929880 -0.495787
C45   C     C_R   0.701003 0.106276 0.897680 0.573802
O16   O     O_R   0.605870 0.077310 0.915530 -0.490807
O17   O     O_R   0.646440 0.806700 0.917570 -0.498773
C46   C     C_R   0.723546 0.688260 0.888052 0.559129
O18   O     O_R   0.837200 0.593290 0.915250 -0.502812
O19   O     O_R   0.065330 0.635370 0.931590 -0.520015
C47   C     C_R   0.117071 0.707323 0.905140 0.550891
O20   O     O_R   0.068300 0.828790 0.091860 -0.474487
O21   O     O_R   0.798730 0.057480 0.079370 -0.449410
C48   C     C_R   0.671375 0.114641 0.101954 0.568451
O22   O     O_R   0.584680 0.080480 0.076790 -0.542010
O23   O     O_R   0.626790 0.809640 0.067050 -0.473630
C49   C     C_R   0.733078 0.719045 0.105252 0.570832
O24   O     O_R   0.816010 0.596460 0.076500 -0.456703
O25   O     O_R   0.045680 0.638310 0.081070 -0.535551
C50   C     C_R   0.099594 0.706267 0.111207 0.554001
Cr4   Cr    Cr6+3 0.937620 0.938540 0.007640 1.112720
Cr5   Cr    Cr6+3 0.625150 0.937450 0.994520 1.068415
Cr6   Cr    Cr6+3 0.937990 0.625080 0.001190 1.059923
O26   O     O_3   0.833590 0.833690 0.001120 -0.309773
N1    N     N_R   0.926033 0.438653 0.677399 0.076099
O27   O     O_R   0.926670 0.341324 0.717747 -0.369641
O28   O     O_R   0.016666 0.400494 0.624917 -0.316769
C51   C     C_2   0.421831 0.307514 0.850638 0.592465
O29   O     O_2   0.332043 0.271514 0.848298 -0.499238
O30   O     O_R   0.418231 0.396767 0.905342 -0.703768
H26   H     H_    0.336973 0.423448 0.939955 0.344142
N2    N     N_R   0.393324 0.277647 0.699938 -0.171227
O31   O     O_R   0.343098 0.191839 0.706089 -0.000010
O32   O     O_R   0.343102 0.191842 0.706088 -0.000010
N3    N     N_R   0.820003 0.264559 0.158833 0.096740
O33   O     O_R   0.795152 0.306167 0.092877 -0.300506
O34   O     O_R   0.926075 0.263463 0.190837 -0.319537
N4    N     N_R   0.115580 0.919373 0.325039 0.125686
O35   O     O_R   0.996503 0.984374 0.359998 -0.302779
O36   O     O_R   0.207010 0.962176 0.332507 -0.309872
C52   C     C_2   0.241724 0.851046 0.180440 0.613087
O37   O     O_2   0.335938 0.792555 0.135885 -0.510489
O38   O     O_R   0.182995 0.995828 0.192967 -0.594587
H27   H     H_    0.229060 0.039566 0.163046 0.336243
N5    N     N_R   0.620655 0.894683 0.655199 0.063299
O39   O     O_R   0.734835 0.900198 0.668493 -0.400663
O40   O     O_R   0.542264 0.966139 0.601903 -0.283291

loop_
_geom_bond_atom_site_label_1
_geom_bond_atom_site_label_2
_geom_bond_distance
_ccdc_geom_bond_type
C31   C32   1.405207 A    
O15   C45   1.272168 A    
O19   C47   1.270461 A    
C13   N1    1.477132 S    
C35   C36   1.416892 A    
C33   C38   1.398526 A    
C51   O29   1.222158 D    
C16   H12   1.083280 S    
O14   Cr4   2.069359 S    
N5    O39   1.301092 A    
C42   H24   1.081958 S    
O4    Cr2   1.955115 S    
C23   C24   1.396836 A    
C2    C12   1.466215 S    
C35   C48   1.464630 S    
Cr5   O26   1.980134 S    
H5    C13   1.110365 S    
O8    Cr1   1.951934 S    
C8    H3    1.114869 S    
O38   H27   1.013947 S    
O22   Cr5   2.073077 S    
C4    C44   1.458178 S    
C12   C14   1.562235 S    
C33   H21   1.082847 S    
O4    C2    1.275956 A    
C27   C32   1.400141 A    
C11   C46   1.474433 S    
Cr6   O26   1.975673 S    
C5    O11   1.268171 A    
N1    O27   1.301559 A    
C33   C34   1.375593 A    
C15   H11   1.083167 S    
C7    C8    1.547063 S    
C28   C29   1.399560 A    
C39   N4    1.438720 S    
N3    O33   1.301514 A    
O14   C47   1.261086 A    
C24   H15   1.083559 S    
C43   H25   1.082892 S    
N1    O28   1.301904 A    
O6    C3    1.279044 A    
C21   C22   1.383657 A    
C7    H1    1.113173 S    
C10   H6    1.112927 S    
O15   Cr4   1.955560 S    
C31   H20   1.079453 S    
O2    Cr1   1.953497 S    
C27   H17   1.083415 S    
Cr3   O13   1.979358 S    
C15   C16   1.392074 A    
O25   C50   1.282511 A    
C36   N3    1.439180 S    
C42   C43   1.388606 A    
O20   C50   1.258614 A    
C48   O22   1.267604 A    
O23   Cr5   1.942880 S    
C24   C25   1.377788 A    
O1    Cr1   2.071567 S    
C27   C28   1.377604 A    
C36   C37   1.401199 A    
C41   C50   1.460656 S    
C22   H14   1.076802 S    
O10   Cr2   1.946791 S    
Cr1   O13   1.970692 S    
O1    C3    1.256794 A    
C46   O18   1.268761 A    
C34   C35   1.402749 A    
C39   C40   1.389483 A    
C29   C49   1.463159 S    
N2    O32   1.300992 A    
C17   C18   1.402924 A    
O12   Cr3   1.951891 S    
C21   C26   1.387771 A    
C10   C14   1.537054 S    
N5    O40   1.301121 A    
C22   C23   1.399330 A    
C12   C13   1.569756 S    
C30   C31   1.398302 A    
C19   N2    1.430668 S    
C37   H23   1.082976 S    
C14   H8    1.111036 S    
O19   Cr6   1.942035 S    
C16   C17   1.402596 A    
C19   C20   1.419498 A    
O7    Cr1   2.072974 S    
O21   C48   1.276675 A    
C17   C45   1.456673 S    
O12   C6    1.306730 A    
C10   H7    1.113240 S    
C9    H10   1.108182 S    
C51   O30   1.397963 S    
C8    N5    1.468701 S    
C45   O16   1.267418 A    
C37   C38   1.401860 A    
N4    O35   1.300984 A    
C39   C44   1.412180 A    
O18   Cr6   2.078250 S    
C43   C44   1.403911 A    
Cr2   O13   1.975633 S    
O21   Cr4   1.949694 S    
C25   H16   1.082859 S    
C1    O3    1.250627 A    
O20   Cr4   2.075856 S    
C52   O38   1.396546 S    
O30   H26   1.013163 S    
O24   Cr6   2.060344 S    
C18   C19   1.391784 A    
O9    Cr2   2.074169 S    
C23   C47   1.450718 S    
C10   C11   1.541304 S    
O17   Cr5   1.954432 S    
C41   C42   1.398065 A    
O6    Cr3   1.944324 S    
O8    C4    1.277122 A    
O11   Cr3   2.063084 S    
C2    O5    1.256750 A    
C40   C52   1.491304 S    
O23   C49   1.309305 A    
C9    C13   1.530739 S    
C30   H19   1.082349 S    
H4    C9    1.112520 S    
O2    C1    1.281368 A    
C34   H22   1.083442 S    
C14   H9    1.107731 S    
O5    Cr3   2.073222 S    
C7    C11   1.564189 S    
C9    C11   1.552102 S    
O17   C46   1.262823 A    
O7    C6    1.296422 A    
C6    C38   1.458759 S    
C5    C32   1.464326 S    
C29   C30   1.403280 A    
C49   O24   1.298727 A    
C15   C20   1.401204 A    
C25   C26   1.409242 A    
O25   Cr6   1.957230 S    
C7    H2    1.113818 S    
C28   H18   1.079615 S    
N3    O34   1.301069 A    
N4    O36   1.300509 A    
C40   C41   1.415672 A    
O3    Cr2   2.067729 S    
C1    C26   1.451116 S    
C8    C12   1.562049 S    
C4    O9    1.262358 A    
C3    C20   1.464755 S    
C21   H13   1.076895 S    
O16   Cr5   2.063856 S    
O10   C5    1.278916 A    
C18   C51   1.486175 S    
Cr4   O26   1.971650 S    
N2    O31   1.301066 A    
C52   O37   1.223258 D    
