data_mof_unit_6310.cif
_audit_creation_date              2012-12-10T20:57:46-0500
_audit_creation_method            fapswitch 2.2
_symmetry_space_group_name_H-M    P1
_symmetry_Int_Tables_number       1
_space_group_crystal_system       triclinic
_cell_length_a                    18.194855
_cell_length_b                    18.295317
_cell_length_c                    18.436784
_cell_angle_alpha                 120.204789
_cell_angle_beta                  89.820101
_cell_angle_gamma                 119.949308
_cell_volume                      4336.3532907

loop_
_atom_site_label
_atom_site_type_symbol
_atom_type_description
_atom_site_fract_x
_atom_site_fract_y
_atom_site_fract_z
_atom_type_partial_charge
C1    C     C_R   0.360627 0.220085 0.361073 0.814078
C2    C     C_3   0.801874 0.942705 0.725735 -0.146282
C3    C     C_2   0.649602 0.583993 0.252680 0.328049
C4    C     C_2   0.783379 0.695399 0.381492 0.518466
C5    C     C_2   0.398700 0.229573 0.718401 0.355100
C6    C     C_2   0.212205 0.150165 0.625477 0.427934
C7    C     C_2   0.330508 0.883378 0.043326 0.425536
C8    C     C_2   0.167161 0.426482 0.364202 0.284500
C9    C     C_2   0.777859 0.410706 0.519596 0.410864
C10   C     C_2   0.638773 0.223405 0.699800 0.368301
C11   C     C_2   0.555185 0.420967 0.015230 0.475663
C12   C     C_2   0.680349 0.550822 0.956495 0.463076
C13   C     C_3   0.699282 0.897382 0.701090 0.035972
C14   C     C_2   0.412751 0.893780 0.746160 0.449109
C15   C     C_2   0.419900 0.767845 0.800466 0.330886
C16   C     C_2   0.116507 0.463209 0.572436 0.407315
C17   C     C_2   0.107782 0.595401 0.527971 0.461925
C18   C     C_2   0.432756 0.691378 0.380552 0.538808
C19   C     C_2   0.184362 0.208318 0.928309 0.420998
C20   C     C_2   0.334742 0.610128 0.172554 0.410520
C21   C     C_R   0.641081 0.780912 0.640668 0.774548
C22   C     C_3   0.798619 0.102480 0.805423 -0.009423
C23   C     C_3   0.736093 0.057592 0.853374 -0.052211
C24   C     C_3   0.859353 0.062096 0.784982 -0.430685
C25   C     C_3   0.644791 0.392944 0.206339 -0.190688
C26   C     C_3   0.705984 0.392291 0.148238 -0.433464
C27   C     C_3   0.729031 0.591087 0.290502 -0.088264
C28   C     C_3   0.782769 0.515311 0.342843 -0.411332
C29   C     C_3   0.357121 0.590405 0.295512 -0.244930
C30   C     C_3   0.697593 0.499774 0.300996 -0.032509
C31   C     C_3   0.799051 0.498074 0.199295 0.051235
C32   C     C_3   0.785165 0.583919 0.225363 -0.320788
C33   C     C_R   0.358732 0.500101 0.640217 0.810931
C34   C     C_3   0.843204 0.517210 0.284459 -0.339180
C35   C     C_R   0.426368 0.184440 0.575660 -0.198425
C36   C     C_R   0.399579 0.140371 0.484834 -0.048186
C37   C     C_R   0.311952 0.097922 0.439864 0.082497
C38   C     C_R   0.251086 0.099140 0.486299 -0.143680
C39   C     C_R   0.277073 0.143681 0.578026 0.031464
C40   C     C_3   0.296167 0.498029 0.304038 -0.105034
C41   C     C_R   0.365896 0.185585 0.623070 -0.030933
C42   C     C_R   0.227553 0.943829 0.287394 -0.202398
C43   C     C_R   0.197644 0.892212 0.195319 -0.034565
C44   C     C_R   0.225330 0.949009 0.157731 0.049495
C45   C     C_R   0.640552 0.499457 0.359403 0.717986
C46   C     C_R   0.278983 0.055957 0.213886 -0.168520
C47   C     C_R   0.307276 0.107651 0.306220 -0.060774
C48   C     C_R   0.282893 0.050644 0.343434 0.003449
C49   C     C_R   0.247878 0.869066 0.007288 0.037406
C50   C     C_R   0.216443 0.820422 0.915194 -0.197788
C51   C     C_3   0.197070 0.500783 0.201355 -0.110907
C52   C     C_R   0.138674 0.803240 0.876356 -0.085022
C53   C     C_R   0.091390 0.834962 0.928907 -0.099596
C54   C     C_R   0.121452 0.883671 0.020459 -0.156414
C55   C     C_R   0.199047 0.900680 0.060619 0.114567
C56   C     C_R   0.891866 0.572883 0.533618 -0.116037
C57   C     C_R   0.641852 0.498985 0.638999 0.786681
C58   C     C_R   0.836080 0.525310 0.571014 0.003607
C59   C     C_R   0.838384 0.588503 0.658302 0.037732
C60   C     C_R   0.896131 0.696582 0.705669 -0.084255
C61   C     C_R   0.949909 0.742203 0.666881 -0.060714
C62   C     C_3   0.152862 0.485636 0.271609 -0.258895
C63   C     C_R   0.947284 0.680480 0.580821 -0.119922
C64   C     C_R   0.840166 0.544964 0.762857 -0.232540
C65   C     C_R   0.799154 0.496951 0.804741 -0.007737
C66   C     C_R   0.705583 0.445742 0.788840 0.056577
C67   C     C_R   0.656458 0.448909 0.734845 -0.239744
C68   C     C_R   0.697729 0.497976 0.693593 -0.047597
C69   C     C_R   0.356209 0.498325 0.359822 0.848108
C70   C     C_R   0.790365 0.544206 0.705849 -0.034478
C71   C     C_R   0.625008 0.282862 0.783792 0.034954
C72   C     C_R   0.579971 0.231187 0.822086 -0.171384
C73   C     C_3   0.297801 0.601923 0.244939 -0.118200
C74   C     C_R   0.561449 0.279224 0.898872 -0.172378
C75   C     C_R   0.588009 0.381035 0.940617 -0.000077
C76   C     C_R   0.639538 0.438207 0.907128 -0.064494
C77   C     C_R   0.655824 0.387879 0.826871 -0.017367
C78   C     C_R   0.336530 0.784790 0.706369 -0.041859
C79   C     C_R   0.342413 0.722739 0.727249 -0.046531
C80   C     C_R   0.270431 0.616668 0.681317 0.003500
C81   C     C_3   0.250034 0.396149 0.205372 -0.205604
C82   C     C_R   0.192232 0.573666 0.616508 -0.077326
C83   C     C_R   0.185896 0.637305 0.598444 -0.062108
C84   C     C_3   0.681719 0.939350 0.652980 -0.350228
C85   C     C_R   0.257733 0.741846 0.644291 -0.110508
C86   C     C_R   0.213524 0.557096 0.773511 -0.224557
C87   C     C_R   0.196693 0.499274 0.807212 -0.051563
C88   C     C_R   0.234603 0.442715 0.787026 0.012048
C89   C     C_R   0.287840 0.445642 0.733012 -0.228388
C90   C     C_R   0.303050 0.502041 0.697411 -0.079747
C91   C     C_R   0.264872 0.558459 0.718052 -0.020906
C92   C     C_R   0.290049 0.421146 0.893749 -0.137748
C93   C     C_3   0.200965 0.404812 0.144189 -0.393045
C94   C     C_R   0.277557 0.364236 0.927904 -0.218080
C95   C     C_3   0.738936 0.059689 0.713912 -0.197648
C96   C     C_R   0.196780 0.266648 0.890453 0.049153
C97   C     C_R   0.128924 0.226191 0.817523 -0.075640
C98   C     C_R   0.141649 0.282851 0.783032 -0.122161
C99   C     C_R   0.221908 0.381186 0.821663 0.092118
C100  C     C_R   0.857014 0.498444 0.142508 0.817955
C101  C     C_R   0.139257 0.500081 0.862433 0.801459
C102  C     C_R   0.856804 0.219200 0.862848 0.830257
C103  C     C_R   0.138876 0.779879 0.141015 0.804399
C104  C     C_R   0.855781 0.499758 0.862162 0.809208
C105  C     C_3   0.220525 0.506878 0.344411 -0.041331
C106  C     C_3   0.674466 0.936098 0.787385 -0.551635
C107  C     C_R   0.138518 0.498991 0.142767 0.777052
C108  C     C_2   0.191257 0.296834 0.199422 0.446381
C109  C     C_2   0.302901 0.701141 0.304205 0.473094
C110  C     C_2   0.262519 0.611276 0.434402 0.297927
C111  C     C_2   0.098275 0.529574 0.307681 0.471697
C112  C     C_2   0.792751 0.107112 0.668231 0.425145
C113  C     C_2   0.675123 0.094921 0.877275 0.485270
C114  C     C_2   0.827164 0.905108 0.771243 0.466794
C115  C     C_2   0.792944 0.090103 0.938593 0.481972
C116  C     C_2   0.606488 0.300276 0.210003 0.481000
H1    H     H_    0.854980 0.456883 0.266135 0.216254
H2    H     H_    0.609270 0.908752 0.634802 0.169630
H3    H     H_    0.695629 0.909391 0.589124 0.220958
H4    H     H_    0.801894 0.176438 0.681162 0.072288
H5    H     H_    0.691561 0.082478 0.726184 0.081985
H6    H     H_    0.602418 0.906510 0.768161 0.185887
H7    H     H_    0.625477 0.073867 0.825180 0.025305
H8    H     H_    0.816503 0.920249 0.833755 0.044184
H9    H     H_    0.303454 0.390523 0.178824 0.131796
H10   H     H_    0.818332 0.917509 0.662849 0.204014
H11   H     H_    0.903660 0.090983 0.750731 0.216556
H12   H     H_    0.494372 0.216143 0.608824 0.159196
H13   H     H_    0.906374 0.094708 0.848117 0.194034
H14   H     H_    0.676906 0.898330 0.818398 0.145906
H15   H     H_    0.782878 0.033131 0.949345 0.063864
H16   H     H_    0.586977 0.383564 0.172787 0.160861
H17   H     H_    0.650725 0.288681 0.234996 0.095913
H18   H     H_    0.715626 0.329851 0.127484 0.220954
H19   H     H_    0.672679 0.375529 0.086106 0.185742
H20   H     H_    0.581083 0.525127 0.239779 0.083881
H21   H     H_    0.236937 0.411280 0.096690 0.145462
H22   H     H_    0.750442 0.565857 0.163047 0.193511
H23   H     H_    0.132159 0.333225 0.101110 0.247270
H24   H     H_    0.822023 0.588990 0.410383 0.216591
H25   H     H_    0.763662 0.452995 0.351483 0.180249
H26   H     H_    0.909675 0.593576 0.323613 0.223988
H27   H     H_    0.748683 0.718144 0.426861 0.068601
H28   H     H_    0.851505 0.658572 0.253752 0.213540
H29   H     H_    0.469303 0.289923 0.756361 0.072419
H30   H     H_    0.447159 0.139548 0.449513 0.154932
H31   H     H_    0.183741 0.067024 0.450744 0.186504
H32   H     H_    0.234572 0.200792 0.697221 0.116330
H33   H     H_    0.208200 0.900946 0.316586 0.184166
H34   H     H_    0.031137 0.821531 0.898650 0.132011
H35   H     H_    0.298315 0.098738 0.184613 0.183414
H36   H     H_    0.362275 0.853636 0.998153 0.109239
H37   H     H_    0.252198 0.795395 0.872981 0.142201
H38   H     H_    0.115084 0.765306 0.805322 0.146758
H39   H     H_    0.083513 0.907129 0.060204 0.142602
H40   H     H_    0.988997 0.716123 0.550889 0.199655
H41   H     H_    0.094176 0.379619 0.341045 0.145411
H42   H     H_    0.893400 0.526904 0.467996 0.194477
H43   H     H_    0.735996 0.372863 0.548197 0.107006
H44   H     H_    0.900035 0.745516 0.773233 0.152905
H45   H     H_    0.184315 0.600132 0.788336 0.177239
H46   H     H_    0.994310 0.825604 0.703913 0.192299
H47   H     H_    0.911440 0.581155 0.772373 0.177115
H48   H     H_    0.585282 0.412663 0.725391 0.148898
H49   H     H_    0.616126 0.144718 0.672901 0.065579
H50   H     H_    0.556907 0.151700 0.791090 0.163653
H51   H     H_    0.523453 0.235112 0.924428 0.166236
H52   H     H_    0.536772 0.387050 0.052149 0.006650
H53   H     H_    0.098628 0.400925 0.230756 0.207262
H54   H     H_    0.687904 0.585162 0.920789 0.048519
H55   H     H_    0.253702 0.789751 0.628697 0.248661
H56   H     H_    0.221795 0.277208 0.230562 0.102072
H57   H     H_    0.479436 0.923777 0.780626 0.088434
H58   H     H_    0.442483 0.721433 0.796096 0.091839
H59   H     H_    0.130639 0.406503 0.555267 0.120464
H60   H     H_    0.058087 0.512956 0.481043 0.135552
H61   H     H_    0.317055 0.402666 0.718460 0.162412
H62   H     H_    0.352456 0.496742 0.923963 0.166737
H63   H     H_    0.330785 0.396724 0.983999 0.161609
H64   H     H_    0.419154 0.736880 0.436943 0.115876
H65   H     H_    0.237807 0.240742 0.984356 0.055081
H66   H     H_    0.066263 0.150829 0.787103 0.174876
H67   H     H_    0.244332 0.699316 0.316343 0.100583
H68   H     H_    0.088681 0.250794 0.726958 0.172713
H69   H     H_    0.394171 0.565305 0.251831 0.194751
H70   H     H_    0.290434 0.565419 0.105574 0.049490
H71   H     H_    0.293717 0.624050 0.493313 0.151685
H72   H     H_    0.126448 0.610689 0.341411 0.157034
O1    O     O_3   0.500000 0.500000 0.500000 -0.485946
O2    O     O_R   0.113800 0.731630 0.056520 -0.645165
O3    O     O_R   0.819390 0.439310 0.886160 -0.645291
O4    O     O_R   0.383400 0.268380 0.323710 -0.629132
O5    O     O_R   0.115110 0.560720 0.179280 -0.672860
O6    O     O_R   0.941380 0.560750 0.885620 -0.649071
O7    O     O_R   0.115110 0.439270 0.057830 -0.633359
O8    O     O_R   0.942690 0.268390 0.886930 -0.630085
O9    O     O_R   0.114340 0.731630 0.178520 -0.649309
O10   O     O_R   0.820160 0.439310 0.057830 -0.625216
O11   O     O_R   0.113800 0.560730 0.885620 -0.647576
O12   O     O_R   0.383400 0.560740 0.616060 -0.645623
O13   O     O_R   0.555060 0.731630 0.615290 -0.656030
O14   O     O_R   0.383950 0.439280 0.616600 -0.645701
O15   O     O_R   0.677590 0.560710 0.444390 -0.645455
O16   O     O_R   0.556370 0.439260 0.616600 -0.654750
O17   O     O_R   0.382640 0.439290 0.322940 -0.668350
O18   O     O_R   0.678360 0.560700 0.616060 -0.625692
O19   O     O_R   0.382640 0.560750 0.444390 -0.643157
O20   O     O_2   0.110284 0.237601 0.160247 -0.560181
O21   O     O_2   0.373496 0.786121 0.337495 -0.506760
O22   O     O_2   0.262508 0.682280 0.444207 -0.619499
O23   O     O_R   0.555060 0.439270 0.322940 -0.625802
O24   O     O_2   0.019621 0.472512 0.298060 -0.586576
O25   O     O_2   0.828517 0.071218 0.619463 -0.534869
O26   O     O_2   0.679485 0.147417 0.954210 -0.533652
O27   O     O_2   0.861262 0.858480 0.738468 -0.562674
O28   O     O_2   0.849465 0.181306 0.997641 -0.543256
O29   O     O_2   0.525307 0.236544 0.183339 -0.534845
O30   O     O_2   0.661953 0.646477 0.237727 -0.438899
O31   O     O_2   0.865184 0.753966 0.405944 -0.549174
O32   O     O_2   0.349014 0.195853 0.754393 -0.558856
O33   O     O_2   0.132580 0.099946 0.584627 -0.547413
O34   O     O_R   0.383950 0.268380 0.445700 -0.642240
O35   O     O_2   0.364529 0.928161 0.122704 -0.532628
O36   O     O_2   0.204444 0.416439 0.410019 -0.608219
O37   O     O_2   0.775707 0.356733 0.444137 -0.544195
O38   O     O_2   0.674282 0.259610 0.659107 -0.565252
O39   O     O_2   0.542951 0.487063 0.032895 -0.496945
O40   O     O_2   0.710133 0.607370 0.037654 -0.503661
O41   O     O_2   0.402178 0.951447 0.739764 -0.577080
O42   O     O_2   0.456245 0.855054 0.868248 -0.585612
O43   O     O_2   0.038565 0.435691 0.559951 -0.564441
O44   O     O_2   0.099281 0.653111 0.519575 -0.582466
O45   O     O_R   0.677590 0.731610 0.615290 -0.618864
O46   O     O_2   0.511112 0.723175 0.386418 -0.545339
O47   O     O_2   0.114444 0.123786 0.897816 -0.549259
O48   O     O_2   0.415029 0.670358 0.189618 -0.456892
O49   O     O_3   0.997750 0.500010 0.002220 -0.489780
O50   O     O_R   0.942690 0.560750 0.179280 -0.636544
O51   O     O_R   0.114340 0.439270 0.886160 -0.646523
O52   O     O_R   0.820160 0.268410 0.886930 -0.644899
Zn1   Zn    Zn3+2 0.456040 0.586770 0.543190 0.985869
Zn2   Zn    Zn3+2 0.456820 0.413240 0.543960 0.978296
Zn3   Zn    Zn3+2 0.631110 0.586750 0.543190 1.004919
Zn4   Zn    Zn3+2 0.456040 0.413240 0.369660 1.009449
Zn5   Zn    Zn3+2 0.041710 0.413240 0.959030 1.004133
Zn6   Zn    Zn3+2 0.866640 0.413270 0.959030 1.016849
Zn7   Zn    Zn3+2 0.040930 0.586780 0.958260 0.978509
Zn8   Zn    Zn3+2 0.041710 0.586770 0.132560 1.000936

loop_
_geom_bond_atom_site_label_1
_geom_bond_atom_site_label_2
_ccdc_geom_bond_type
C87   C88   A    
O4    Zn4   S    
O8    Zn5   S    
C101  O51   A    
C72   C74   A    
C22   C95   S    
C30   C45   S    
O18   Zn3   S    
C28   H24   S    
C107  O5    A    
C105  C110  S    
C8    C105  S    
C19   H65   S    
C4    H27   S    
C107  O7    A    
C97   C98   A    
O34   Zn2   S    
C97   H66   S    
C39   C41   A    
C62   C105  S    
C115  H15   S    
C53   C54   A    
O7    Zn5   S    
C13   C84   S    
O2    Zn7   S    
C85   H55   S    
C112  O25   D    
C26   H18   S    
C36   C37   A    
O10   Zn6   S    
C63   H40   S    
C9    C58   S    
C14   H57   S    
C104  O3    A    
C95   C112  S    
C3    O30   D    
C38   C39   A    
C98   C99   A    
C12   O40   D    
C5    O32   D    
O15   Zn3   S    
C9    H43   S    
C50   H37   S    
C52   H38   S    
O14   Zn2   S    
C33   O14   A    
O13   Zn1   S    
O49   Zn7   S    
C3    H20   S    
C103  O9    A    
C61   C63   A    
C42   H33   S    
C111  O24   D    
C14   O41   D    
C56   H42   S    
C26   H19   S    
C51   C73   S    
C87   C101  S    
C20   H70   S    
C67   H48   S    
O45   Zn3   S    
C15   C79   S    
C62   C111  S    
C31   C32   S    
C29   H69   S    
C20   O48   D    
O1    Zn3   S    
C24   H11   S    
C50   C52   A    
C51   C107  S    
C100  O50   A    
C64   C70   A    
O17   Zn4   S    
C8    O36   D    
C17   H60   S    
C108  O20   D    
C6    O33   D    
C114  H8    S    
C10   C71   S    
C109  H67   S    
C34   H1    S    
C14   C78   S    
C46   H35   S    
C81   C108  S    
C18   H64   S    
C59   C60   A    
C27   C30   S    
O52   Zn6   S    
C110  O22   D    
C51   C62   S    
C113  O26   D    
C64   H47   S    
C109  O21   D    
C8    H41   S    
C114  O27   D    
C16   C82   S    
C74   H51   S    
C17   O44   D    
C44   C46   A    
C3    C27   S    
C21   O45   A    
C110  H71   S    
C31   C34   S    
C5    H29   S    
C74   C75   A    
O49   Zn5   S    
C67   C68   A    
C88   C99   S    
C21   O13   A    
C76   C77   A    
C7    C49   S    
C20   C73   S    
C80   C82   A    
C40   C69   S    
C25   C116  S    
C54   H39   S    
C18   C29   S    
C84   H3    S    
C78   C79   A    
C1    C47   S    
C12   H54   S    
C116  H17   S    
C33   O12   A    
C25   C26   S    
C49   C55   A    
C23   C106  S    
C23   C115  S    
C57   O18   A    
C61   H46   S    
O49   Zn8   S    
C102  O8    A    
C1    O34   A    
C17   C83   S    
C84   C95   S    
C75   C76   A    
C32   H22   S    
C37   C38   A    
C93   H23   S    
C23   C113  S    
C6    H32   S    
C81   C93   S    
C47   C48   A    
C113  H7    S    
C45   O15   A    
C4    O31   D    
C6    C39   S    
C96   C97   A    
C106  H6    S    
O1    Zn4   S    
C92   C94   A    
C111  H72   S    
C56   C63   A    
C13   C21   S    
C86   H45   S    
C42   C48   A    
C31   C100  S    
C37   C48   S    
C94   C96   A    
C2    C13   S    
C7    O35   D    
C51   C93   S    
C92   H62   S    
C78   C85   A    
C68   C70   A    
C83   C85   A    
C65   C66   A    
C89   H61   S    
O6    Zn7   S    
C108  H56   S    
C84   H2    S    
O1    Zn1   S    
C53   H34   S    
C49   C50   A    
C22   C24   S    
C79   C80   A    
C42   C43   A    
C57   C68   S    
C2    H10   S    
C12   C76   S    
C71   C77   A    
C4    C27   S    
C52   C53   A    
C16   H59   S    
C112  H4    S    
C36   H30   S    
C25   C30   S    
C106  H14   S    
C62   H53   S    
C5    C41   S    
C54   C55   A    
C34   H26   S    
C16   O43   D    
C15   H58   S    
C81   H9    S    
C27   C32   S    
C86   C87   A    
C72   H50   S    
C40   C81   S    
C101  O11   A    
C60   H44   S    
C13   C106  S    
C19   O47   D    
O16   Zn2   S    
C18   O46   D    
C73   C109  S    
C28   H25   S    
O11   Zn7   S    
O9    Zn8   S    
C102  O52   A    
C22   C102  S    
O51   Zn5   S    
C64   C65   A    
C80   C91   S    
O19   Zn1   S    
C58   C59   A    
C24   H13   S    
C71   C72   A    
C15   O42   D    
C11   C75   S    
C33   C90   S    
O23   Zn4   S    
C2    C24   S    
C2    C114  S    
C44   C55   S    
C95   H5    S    
C90   C91   A    
C11   H52   S    
C69   O19   A    
C43   C44   A    
C10   H49   S    
C57   O16   A    
C28   C30   S    
O5    Zn8   S    
C56   C58   A    
O49   Zn6   S    
C66   C67   A    
C103  O2    A    
C94   H63   S    
C66   C77   S    
C115  O28   D    
C98   H68   S    
C35   H12   S    
C35   C41   A    
C43   C103  S    
C38   H31   S    
C32   H28   S    
C46   C47   A    
C93   H21   S    
C59   C70   S    
C28   C34   S    
C7    H36   S    
C116  O29   D    
C1    O4    A    
C69   O17   A    
C26   C31   S    
C29   C73   S    
C88   C89   A    
C11   O39   D    
C82   C83   A    
O50   Zn8   S    
O1    Zn2   S    
C10   O38   D    
O3    Zn6   S    
C104  O6    A    
C22   C23   S    
C60   C61   A    
C9    O37   D    
C35   C36   A    
C65   C104  S    
C29   C40   S    
C89   C90   A    
C25   H16   S    
O12   Zn1   S    
C45   O23   A    
C19   C96   S    
C92   C99   A    
C40   C105  S    
C86   C91   A    
C100  O10   A    
