data_mof_unit_60051.cif
_audit_creation_date              2012-12-10T19:03:53-0500
_audit_creation_method            fapswitch 2.2
_symmetry_space_group_name_H-M    P1
_symmetry_Int_Tables_number       1
_space_group_crystal_system       triclinic
_cell_length_a                    19.456533
_cell_length_b                    19.176071
_cell_length_c                    13.057765
_cell_angle_alpha                 90.000014
_cell_angle_beta                  96.003388
_cell_angle_gamma                 90.0
_cell_volume                      4845.13164352

loop_
_atom_site_label
_atom_site_type_symbol
_atom_type_description
_atom_site_fract_x
_atom_site_fract_y
_atom_site_fract_z
_atom_type_partial_charge
C1    C     C_R   0.408044 0.093003 0.481309 0.896514
C2    C     C_1   0.519714 1.000000 0.147326 0.142525
C3    C     C_1   0.980286 0.500000 0.852674 0.142525
C4    C     C_1   0.019714 0.500000 0.147326 0.142525
C5    C     C_1   0.642927 0.144864 0.533594 -0.175975
C6    C     C_1   0.357066 0.855144 0.466404 -0.175975
C7    C     C_1   0.357072 0.144863 0.466406 -0.175976
C8    C     C_1   0.642928 0.855137 0.533594 -0.175975
C9    C     C_1   0.142934 0.644857 0.533596 -0.175976
C10   C     C_1   0.857073 0.355136 0.466406 -0.175975
C11   C     C_1   0.857072 0.644863 0.466406 -0.175975
C12   C     C_R   0.591956 0.906997 0.518691 0.896518
C13   C     C_1   0.142927 0.355137 0.533594 -0.175976
C14   C     C_2   0.738161 0.240786 0.544406 0.108564
C15   C     C_2   0.261820 0.759234 0.455588 0.108564
C16   C     C_2   0.261837 0.240784 0.455593 0.108564
C17   C     C_2   0.738164 0.759218 0.544408 0.108565
C18   C     C_2   0.238179 0.740767 0.544412 0.108566
C19   C     C_2   0.761839 0.259214 0.455594 0.108564
C20   C     C_2   0.761836 0.740783 0.455592 0.108565
C21   C     C_2   0.238163 0.259216 0.544407 0.108565
C22   C     C_1   0.313748 0.811296 0.457552 -0.014815
C23   C     C_R   0.591956 0.093003 0.518691 0.896515
C24   C     C_1   0.686239 0.188717 0.542444 -0.014814
C25   C     C_1   0.686241 0.811285 0.542445 -0.014815
C26   C     C_1   0.313760 0.188716 0.457555 -0.014816
C27   C     C_1   0.813761 0.311283 0.457556 -0.014814
C28   C     C_1   0.186252 0.688704 0.542448 -0.014815
C29   C     C_1   0.186240 0.311284 0.542444 -0.014816
C30   C     C_1   0.813759 0.688715 0.457555 -0.014815
C31   C     C_2   0.527285 1.000000 0.036518 -0.242506
C32   C     C_2   0.472715 1.000000 0.963482 -0.242506
C33   C     C_2   0.027285 0.500000 0.036518 -0.242506
C34   C     C_R   0.408043 0.906998 0.481309 0.896516
C35   C     C_2   0.972715 0.500000 0.963482 -0.242506
C36   C     C_R   0.908043 0.593003 0.481309 0.896518
C37   C     C_R   0.091956 0.406997 0.518691 0.896513
C38   C     C_R   0.091957 0.593002 0.518691 0.896516
C39   C     C_R   0.908043 0.406997 0.481309 0.896516
C40   C     C_1   0.480286 0.000000 0.852674 0.142525
H1    H     H_    0.420702 1.000000 0.986602 0.164668
H2    H     H_    0.283809 0.267270 0.690133 0.185724
H3    H     H_    0.777750 0.794801 0.327383 0.186001
H4    H     H_    0.716185 0.732724 0.309869 0.185724
H5    H     H_    0.277679 0.705264 0.327313 0.186003
H6    H     H_    0.216118 0.767351 0.309902 0.185722
H7    H     H_    0.722235 0.294815 0.672598 0.186001
H8    H     H_    0.783799 0.232740 0.690136 0.185725
H9    H     H_    0.722250 0.705198 0.672616 0.186001
H10   H     H_    0.783814 0.767276 0.690132 0.185724
H11   H     H_    0.277756 0.294806 0.327390 0.186001
H12   H     H_    0.579298 1.000000 0.013398 0.164669
H13   H     H_    0.216191 0.232730 0.309867 0.185724
H14   H     H_    0.920702 0.500000 0.986602 0.164669
H15   H     H_    0.079298 0.500000 0.013398 0.164668
H16   H     H_    0.777765 0.205185 0.327402 0.186001
H17   H     H_    0.716200 0.267259 0.309864 0.185725
H18   H     H_    0.222322 0.794734 0.672690 0.186003
H19   H     H_    0.283884 0.732648 0.690096 0.185721
H20   H     H_    0.222244 0.205194 0.672610 0.186001
N1    N     N_1   0.515180 1.000000 0.235860 -0.090776
N2    N     N_3   0.764030 0.272373 0.640522 -0.453489
N3    N     N_3   0.764042 0.727638 0.640527 -0.453487
N4    N     N_3   0.235963 0.272366 0.359474 -0.453488
N5    N     N_1   0.484820 1.000000 0.764140 -0.090776
N6    N     N_1   0.015180 0.500000 0.235860 -0.090776
N7    N     N_1   0.984820 0.500000 0.764140 -0.090776
N8    N     N_3   0.735970 0.227627 0.359478 -0.453490
N9    N     N_3   0.264096 0.772307 0.640542 -0.453487
N10   N     N_3   0.264037 0.227634 0.640526 -0.453487
N11   N     N_3   0.735958 0.772361 0.359473 -0.453487
N12   N     N_3   0.235904 0.727693 0.359458 -0.453488
O1    O     O_R   0.435400 0.070190 0.403000 -0.611273
O2    O     O_R   0.574340 0.929830 0.427410 -0.597998
O3    O     O_R   0.574340 0.070170 0.427410 -0.597999
O4    O     O_R   0.425660 0.929830 0.572590 -0.597999
O5    O     O_R   0.925660 0.570170 0.572590 -0.597998
O6    O     O_R   0.074340 0.429830 0.427410 -0.597999
O7    O     O_R   0.074340 0.570170 0.427410 -0.597999
O8    O     O_R   0.925660 0.429830 0.572590 -0.597999
O9    O     O_R   0.564600 0.929810 0.597000 -0.611272
O10   O     O_R   0.564600 0.070190 0.597000 -0.611273
O11   O     O_R   0.435400 0.929810 0.403000 -0.611272
O12   O     O_R   0.935400 0.570190 0.403000 -0.611272
O13   O     O_R   0.064600 0.429810 0.597000 -0.611273
O14   O     O_R   0.064600 0.570190 0.597000 -0.611272
O15   O     O_R   0.935400 0.429810 0.403000 -0.611272
O16   O     O_R   0.425660 0.070170 0.572590 -0.597999
Zn1   Zn    Zn3+2 0.506520 1.000000 0.386760 0.979576
Zn2   Zn    Zn3+2 0.493480 1.000000 0.613240 0.979576
Zn3   Zn    Zn3+2 0.006520 0.500000 0.386760 0.979576
Zn4   Zn    Zn3+2 0.993480 0.500000 0.613240 0.979576

loop_
_geom_bond_atom_site_label_1
_geom_bond_atom_site_label_2
_ccdc_geom_bond_type
C10   C27   T    
C33   H15   S    
C15   C18   D    
O5    Zn4   S    
C16   C21   D    
H9    N3    S    
C23   O10   A    
C12   O2    A    
C39   O15   A    
C31   H12   S    
H7    N2    S    
C20   C30   S    
C15   N12   S    
C7    C26   T    
C38   O14   A    
O2    Zn1   S    
C37   O13   A    
C11   C36   S    
C36   O12   A    
O15   Zn3   S    
C36   O5    A    
H13   N4    S    
C38   O7    A    
C14   N2    S    
H2    N10   S    
C17   C20   D    
H4    N11   S    
C14   C24   S    
C9    C38   S    
C15   C22   S    
C11   C30   T    
C32   H1    S    
C20   N11   S    
O12   Zn3   S    
H20   N10   S    
C19   C27   S    
H6    N12   S    
C2    N1    T    
C1    O16   A    
H5    N12   S    
C8    C25   T    
O13   Zn4   S    
N1    Zn1   S    
H10   N3    S    
C16   C26   S    
N5    Zn2   S    
O11   Zn1   S    
O7    Zn3   S    
C18   C28   S    
H16   N8    S    
C21   C29   S    
C6    C34   S    
C2    C31   S    
O8    Zn4   S    
H8    N2    S    
C31   C32   D    
C5    C23   S    
C3    C35   S    
C8    C12   S    
C19   N8    S    
H19   N9    S    
O9    Zn2   S    
O16   Zn2   S    
C40   N5    T    
C34   O11   A    
H17   N8    S    
C13   C29   T    
C4    C33   S    
H3    N11   S    
C1    C7    S    
C13   C37   S    
C14   C19   D    
C3    N7    T    
H11   N4    S    
C23   O3    A    
H18   N9    S    
N6    Zn3   S    
O6    Zn3   S    
C37   O6    A    
O10   Zn2   S    
C21   N10   S    
C17   C25   S    
C39   O8    A    
C1    O1    A    
O14   Zn4   S    
C17   N3    S    
C4    N6    T    
C5    C24   T    
C18   N9    S    
N7    Zn4   S    
C33   C35   D    
C12   O9    A    
C32   C40   S    
O3    Zn1   S    
O1    Zn1   S    
O4    Zn2   S    
C10   C39   S    
C16   N4    S    
C9    C28   T    
C34   O4    A    
C35   H14   S    
C6    C22   T    
