data_mof_unit_6705.cif
_audit_creation_date              2012-12-11T14:13:08-0500
_audit_creation_method            fapswitch 2.2
_symmetry_space_group_name_H-M    P1
_symmetry_Int_Tables_number       1
_space_group_crystal_system       triclinic
_cell_length_a                    11.478686
_cell_length_b                    18.868456
_cell_length_c                    10.060441
_cell_angle_alpha                 89.750559
_cell_angle_beta                  109.725408
_cell_angle_gamma                 90.199664
_cell_volume                      2051.05911934

loop_
_atom_site_label
_atom_site_type_symbol
_atom_type_description
_atom_site_fract_x
_atom_site_fract_y
_atom_site_fract_z
_atom_type_partial_charge
C1    C     C_R   0.079412 0.643616 0.142281 0.533900
C2    C     C_R   0.919367 0.355672 0.856544 0.633026
C3    C     C_R   0.863048 0.140171 0.842093 0.626494
C4    C     C_R   0.076746 0.855827 0.140663 0.585422
C5    C     C_R   0.431656 0.471310 0.583115 -0.028178
C6    C     C_R   0.548005 0.524592 0.397056 0.001638
C7    C     C_R   0.558133 0.972978 0.410197 -0.040307
C8    C     C_R   0.432460 0.028200 0.585550 -0.004251
C9    C     C_2   0.357384 0.936537 0.029856 0.260475
C10   C     C_2   0.598067 0.069704 0.054769 0.265473
C11   C     C_2   0.633379 0.437818 0.008648 0.166156
C12   C     C_2   0.387630 0.567648 0.968566 0.292747
C13   C     C_2   0.440360 0.971824 0.984643 0.160069
C14   C     C_2   0.479000 0.047555 0.026066 0.126858
C15   C     C_2   0.521555 0.463975 0.996947 0.239907
C16   C     C_2   0.487206 0.538609 0.950041 0.245069
C17   C     C_2   0.022415 0.928497 0.110845 0.310208
C18   C     C_2   0.871023 0.062685 0.859526 0.259283
C19   C     C_2   0.941658 0.430897 0.869100 0.241049
C20   C     C_2   0.035025 0.569276 0.118569 0.183080
C21   C     C_2   0.982421 0.954403 0.977270 0.319545
C22   C     C_2   0.971692 0.032336 0.955576 0.319261
C23   C     C_2   0.021500 0.458962 0.986750 0.305665
C24   C     C_2   0.028831 0.536552 0.996959 0.221824
C25   C     C_R   0.434967 0.638037 0.375799 0.529934
C26   C     C_R   0.561488 0.362417 0.619462 0.526050
C27   C     C_R   0.561341 0.137702 0.620093 0.556724
C28   C     C_R   0.436967 0.862092 0.378701 0.546992
C29   C     C_R   0.375348 0.644107 0.967840 0.584959
C30   C     C_R   0.647773 0.361454 0.992834 0.511742
C31   C     C_R   0.622995 0.144360 0.034274 0.654279
C32   C     C_R   0.348245 0.859221 0.016301 0.652926
C33   C     C_R   0.536142 0.435719 0.566853 -0.004008
C34   C     C_R   0.449650 0.562361 0.418640 -0.003398
C35   C     C_R   0.455869 0.936152 0.427260 0.011187
C36   C     C_R   0.536864 0.064247 0.569445 0.051499
C37   C     C_R   0.370720 0.446698 0.676609 -0.107103
C38   C     C_R   0.602560 0.548349 0.299167 -0.145015
C39   C     C_R   0.620842 0.947600 0.320698 -0.129272
C40   C     C_R   0.369349 0.053537 0.675901 -0.163843
C41   C     C_R   0.256756 0.472369 0.674064 0.076441
C42   C     C_R   0.725575 0.536055 0.319555 0.101514
C43   C     C_R   0.746421 0.958966 0.352771 0.090331
C44   C     C_R   0.253385 0.029199 0.668849 0.079676
C45   C     C_R   0.209769 0.532345 0.595324 0.221852
C46   C     C_R   0.785766 0.481884 0.410558 0.311123
C47   C     C_R   0.798529 0.017455 0.433813 0.255022
C48   C     C_R   0.210456 0.966536 0.598286 0.304173
C49   C     C_R   0.272850 0.560681 0.510718 -0.099528
C50   C     C_R   0.719442 0.443993 0.482681 -0.075122
C51   C     C_R   0.726319 0.055597 0.496855 -0.064413
C52   C     C_R   0.277020 0.936299 0.519681 -0.095697
C53   C     C_R   0.384439 0.532143 0.503065 -0.005647
C54   C     C_R   0.600938 0.466558 0.482421 -0.006759
C55   C     C_R   0.606671 0.032384 0.492160 0.017010
C56   C     C_R   0.387863 0.966180 0.509104 0.006901
Cr1   Cr    Cr6+3 0.187610 0.750000 0.979860 1.110048
Cr2   Cr    Cr6+3 0.812390 0.250000 0.020140 1.090671
Cr3   Cr    Cr6+3 0.245810 0.750000 0.341640 1.026838
Cr4   Cr    Cr6+3 0.754190 0.250000 0.658360 1.027197
Cr5   Cr    Cr6+3 0.485760 0.750000 0.219910 1.090917
Cr6   Cr    Cr6+3 0.514240 0.250000 0.780090 1.072196
H1    H     H_    0.410568 0.407632 0.755727 0.206555
H2    H     H_    0.556487 0.585414 0.219555 0.143810
H3    H     H_    0.577585 0.912102 0.235620 0.179823
H4    H     H_    0.409184 0.092073 0.756390 0.164846
H5    H     H_    0.226898 0.602466 0.446047 0.166480
H6    H     H_    0.768926 0.402463 0.548619 0.198736
H7    H     H_    0.771951 0.098403 0.559007 0.181017
H8    H     H_    0.231383 0.892501 0.460492 0.157497
O1    O     O_R   0.267710 0.668200 0.902110 -0.473485
O2    O     O_R   0.732290 0.331800 0.097890 -0.496542
O3    O     O_R   0.732290 0.168200 0.097890 -0.484491
O4    O     O_R   0.267710 0.831800 0.902110 -0.454364
O5    O     O_R   0.099480 0.674460 0.038850 -0.494232
O6    O     O_R   0.900520 0.325540 0.961150 -0.484947
O7    O     O_R   0.900520 0.174460 0.961150 -0.488161
O8    O     O_R   0.099480 0.825540 0.038850 -0.451422
O9    O     O_R   0.116720 0.669210 0.267660 -0.535801
O10   O     O_R   0.883280 0.330790 0.732340 -0.531209
O11   O     O_R   0.883280 0.169210 0.732340 -0.519450
O12   O     O_R   0.116720 0.830790 0.267660 -0.570364
O13   O     O_R   0.366710 0.675440 0.427590 -0.494140
O14   O     O_R   0.633290 0.324560 0.572410 -0.499944
O15   O     O_R   0.633290 0.175440 0.572410 -0.514770
O16   O     O_R   0.366710 0.824560 0.427590 -0.493224
O17   O     O_R   0.534870 0.669390 0.371760 -0.480066
O18   O     O_R   0.465130 0.330610 0.628240 -0.492682
O19   O     O_R   0.465130 0.169390 0.628240 -0.506917
O20   O     O_R   0.534870 0.830610 0.371760 -0.487179
O21   O     O_R   0.453080 0.674480 0.075160 -0.540286
O22   O     O_R   0.546920 0.325520 0.924840 -0.498215
O23   O     O_R   0.546920 0.174480 0.924840 -0.511665
O24   O     O_R   0.453080 0.825520 0.075160 -0.491294
O25   O     O_3   0.306390 0.750000 0.180470 -0.362236
O26   O     O_3   0.693610 0.250000 0.819530 -0.366833
C57   C     C_2   0.185271 0.435706 0.751205 0.345441
H9    H     H_    0.100356 0.458970 0.752633 0.202402
O27   O     O_2   0.217588 0.378485 0.808779 -0.452151
C58   C     C_2   0.790535 0.588740 0.261884 0.350926
H10   H     H_    0.754999 0.602973 0.150909 0.169509
O28   O     O_2   0.876365 0.622579 0.341416 -0.481106
C59   C     C_2   0.822153 0.907320 0.307604 0.309233
H11   H     H_    0.920864 0.906466 0.359377 0.164856
O29   O     O_2   0.774684 0.862743 0.217752 -0.502587
C60   C     C_2   0.178032 0.072660 0.730777 0.288666
H12   H     H_    0.208317 0.125729 0.768363 0.129175
O30   O     O_2   0.080492 0.050911 0.738145 -0.442104
O31   O     O_3   0.102445 0.562629 0.602164 -0.623560
H13   H     H_    0.089199 0.608989 0.552701 0.361870
O32   O     O_3   0.907046 0.466273 0.426036 -0.603827
H14   H     H_    0.935738 0.426586 0.494055 0.332348
O33   O     O_3   0.917104 0.037958 0.445578 -0.629096
H15   H     H_    0.933801 0.085400 0.489978 0.350923
O34   O     O_3   0.103761 0.935563 0.606449 -0.621962
H16   H     H_    0.094417 0.887396 0.565188 0.311296
O35   O     O_3   0.392398 0.098685 0.025036 -0.709713
H17   H     H_    0.309216 0.077192 0.991777 0.372401
O36   O     O_3   0.489740 0.935239 0.896785 -0.686173
H18   H     H_    0.536170 0.968777 0.857478 0.341437
O37   O     O_3   0.555924 0.579740 0.889202 -0.710660
H19   H     H_    0.592657 0.547976 0.836037 0.348757
O38   O     O_3   0.434258 0.420939 0.024888 -0.603973
H20   H     H_    0.477345 0.387427 0.102047 0.347489
O39   O     O_3   0.697237 0.024761 0.072421 -0.716800
H21   H     H_    0.672463 0.975254 0.078448 0.355475
O40   O     O_3   0.297273 0.966019 0.114387 -0.753413
H22   H     H_    0.348446 0.004473 0.171776 0.340460
O41   O     O_3   0.311590 0.527689 0.021033 -0.663886
H23   H     H_    0.269026 0.559910 0.067043 0.307640
O42   O     O_3   0.732201 0.482827 0.025454 -0.765198
H24   H     H_    0.807569 0.453653 0.045308 0.357443
O43   O     O_3   0.074538 0.072649 0.025052 -0.637910
H25   H     H_    0.059294 0.092677 0.108608 0.372375
O44   O     O_3   0.960625 0.909523 0.862716 -0.677637
H26   H     H_    0.944118 0.938582 0.776022 0.376819
O45   O     O_3   0.030222 0.572718 0.877517 -0.633603
H27   H     H_    0.963171 0.608543 0.855600 0.347970
O46   O     O_3   0.097068 0.415376 0.091392 -0.632506
H28   H     H_    0.162209 0.445031 0.157918 0.364593
O47   O     O_3   0.763678 0.025193 0.792328 -0.791513
H29   H     H_    0.763985 0.978803 0.838581 0.354738
O48   O     O_3   0.030159 0.975355 0.218597 -0.703942
H30   H     H_    0.075975 0.952728 0.308970 0.330067
O49   O     O_3   0.021180 0.527993 0.226088 -0.679236
H31   H     H_    0.043176 0.556315 0.312814 0.385076
O50   O     O_3   0.863927 0.472607 0.763274 -0.738584
H32   H     H_    0.823485 0.507376 0.807151 0.334094

loop_
_geom_bond_atom_site_label_1
_geom_bond_atom_site_label_2
_ccdc_geom_bond_type
C32   O24   A    
C5    C37   A    
C12   C29   S    
O32   H14   S    
Cr3   O12   S    
C7    C55   A    
C8    C56   A    
O49   H31   S    
Cr2   O6    S    
O38   H20   S    
C9    O40   S    
C15   O38   S    
C7    C39   A    
C23   O46   S    
Cr3   O13   S    
C38   C42   A    
Cr6   O26   S    
C32   O4    A    
C45   O31   S    
C31   O3    A    
C60   H12   S    
C15   C16   S    
Cr6   O19   S    
C25   O17   A    
C3    C18   S    
C8    C36   A    
C27   O15   A    
C9    C13   D    
Cr2   O26   S    
Cr5   O17   S    
Cr2   O7    S    
C37   H1    S    
C11   C15   D    
C10   C31   S    
O50   H32   S    
C11   C30   S    
Cr6   O22   S    
C3    O11   A    
C23   C24   S    
C6    C38   A    
C13   C14   S    
C10   O39   S    
C40   C44   A    
C9    C32   S    
C25   C34   S    
C35   C56   A    
C40   H4    S    
C46   O32   S    
C39   H3    S    
Cr3   O25   S    
C6    C54   A    
C12   C16   D    
C50   H6    S    
C57   O27   D    
C57   H9    S    
C38   H2    S    
C12   O41   S    
C22   O43   S    
C1    O5    A    
C20   C24   D    
O44   H26   S    
C2    O10   A    
C28   C35   S    
C30   O22   A    
C10   C14   D    
Cr3   O9    S    
Cr5   O24   S    
C39   C43   A    
C31   O23   A    
Cr6   O18   S    
C19   O50   S    
C6    C34   A    
C5    C33   A    
Cr1   O4    S    
C19   C23   D    
C16   O37   S    
C4    O8    A    
C42   C58   S    
Cr4   O11   S    
C26   C33   S    
C30   O2    A    
C45   C49   A    
Cr4   O15   S    
C14   O35   S    
C58   O28   D    
C59   O29   D    
C50   C54   A    
Cr1   O1    S    
O36   H18   S    
C44   C48   A    
O37   H19   S    
C48   O34   S    
C4    C17   S    
Cr4   O26   S    
C42   C46   A    
O39   H21   S    
C1    O9    A    
C41   C57   S    
O42   H24   S    
C3    O7    A    
C29   O21   A    
C2    O6    A    
Cr5   O20   S    
O33   H15   S    
C13   O36   S    
C5    C53   A    
C33   C54   A    
C47   O33   S    
Cr4   O10   S    
C1    C20   S    
C26   O14   A    
C49   H5    S    
C2    C19   S    
C18   C22   D    
C7    C35   A    
Cr1   O8    S    
C18   O47   S    
C11   O42   S    
C47   C51   A    
O46   H28   S    
Cr5   O25   S    
O40   H22   S    
C44   C60   S    
C24   O45   S    
C8    C40   A    
O45   H27   S    
C46   C50   A    
O35   H17   S    
C17   O48   S    
C27   C36   S    
Cr1   O5    S    
O48   H30   S    
O41   H23   S    
Cr3   O16   S    
C36   C55   A    
O47   H29   S    
C28   O16   A    
Cr4   O14   S    
Cr2   O2    S    
O34   H16   S    
O43   H25   S    
C60   O30   D    
C49   C53   A    
C58   H10   S    
C27   O19   A    
C51   C55   A    
C37   C41   A    
C43   C59   S    
C52   H8    S    
C52   C56   A    
C48   C52   A    
C4    O12   A    
C34   C53   A    
C26   O18   A    
Cr1   O25   S    
Cr6   O23   S    
O31   H13   S    
C59   H11   S    
C25   O13   A    
C41   C45   A    
C20   O49   S    
C28   O20   A    
C51   H7    S    
C21   C22   S    
C43   C47   A    
C21   O44   S    
Cr5   O21   S    
Cr2   O3    S    
C29   O1    A    
C17   C21   D    
