data_mof_unit_14740.cif
_audit_creation_date              2012-12-10T17:28:38-0500
_audit_creation_method            fapswitch 2.2
_symmetry_space_group_name_H-M    P1
_symmetry_Int_Tables_number       1
_space_group_crystal_system       triclinic
_cell_length_a                    10.654398
_cell_length_b                    11.997607
_cell_length_c                    12.833464
_cell_angle_alpha                 93.316153
_cell_angle_beta                  90.217208
_cell_angle_gamma                 86.520079
_cell_volume                      1634.70010903

loop_
_atom_site_label
_atom_site_type_symbol
_atom_type_description
_atom_site_fract_x
_atom_site_fract_y
_atom_site_fract_z
_atom_type_partial_charge
C1    C     C_R   0.490244 0.521760 0.700486 0.846027
C2    C     C_R   0.536678 0.546133 0.126010 -0.013901
C3    C     C_R   0.423820 0.463199 0.979257 0.075300
C4    C     C_R   0.485815 0.555242 0.025944 0.113169
C5    C     C_R   0.387137 0.954460 0.399077 -0.369456
C6    C     C_R   0.613033 0.045554 0.600823 -0.373242
C7    C     C_R   0.394947 0.837664 0.410215 0.703032
C8    C     C_R   0.605296 0.162317 0.589574 0.703185
C9    C     C_R   0.548098 0.858617 0.544024 -0.129205
C10   C     C_R   0.451769 0.141402 0.456089 -0.122725
C11   C     C_R   0.540707 0.975854 0.536794 0.024383
C12   C     C_R   0.504297 0.478094 0.299533 0.831892
C13   C     C_R   0.459239 0.024163 0.463277 0.022619
C14   C     C_R   0.739091 0.500312 0.500705 0.874614
C15   C     C_R   0.260825 0.499935 0.501400 0.868008
C16   C     C_R   0.871837 0.463374 0.309491 -0.169294
C17   C     C_R   0.128500 0.529978 0.694070 -0.170939
C18   C     C_R   0.937335 0.453107 0.215358 -0.085892
C19   C     C_R   0.062513 0.544339 0.787925 -0.084301
C20   C     C_R   0.066697 0.461801 0.214958 -0.138006
C21   C     C_R   0.932019 0.544464 0.787743 -0.117205
C22   C     C_R   0.131227 0.476905 0.308796 -0.185606
C23   C     C_R   0.491085 0.465477 0.188368 -0.139530
C24   C     C_R   0.867474 0.530443 0.693673 -0.171068
C25   C     C_R   0.066075 0.486578 0.405263 0.064105
C26   C     C_R   0.933366 0.515389 0.597552 0.055684
C27   C     C_R   0.935391 0.483209 0.405340 0.067142
C28   C     C_R   0.064516 0.514872 0.597785 0.063225
C29   C     C_R   0.128414 0.500044 0.501600 -0.183628
C30   C     C_R   0.871362 0.500047 0.501204 -0.186075
C31   C     C_2   0.649757 0.607208 0.159653 0.421197
C32   C     C_2   0.392749 0.341388 0.815848 0.563620
C33   C     C_2   0.510614 0.765234 0.017788 0.474460
C34   C     C_R   0.468473 0.536286 0.811924 -0.143831
C35   C     C_2   0.270293 0.312276 0.014026 0.398700
C36   C     C_3   0.802992 0.208847 0.638379 -0.272422
C37   C     C_3   0.197648 0.791401 0.359794 -0.268304
C38   C     C_R   0.499133 0.651007 0.968869 0.025200
C39   C     C_R   0.373408 0.385341 0.044596 0.025930
C40   C     C_R   0.493570 0.639244 0.861387 -0.315558
C41   C     C_R   0.409779 0.386839 0.148391 -0.309248
C42   C     C_R   0.423957 0.449459 0.869556 -0.092310
H1    H     H_    0.880603 0.555607 0.860585 0.173588
H2    H     H_    0.766014 0.531070 0.697126 0.146799
H3    H     H_    0.368742 0.330424 0.200043 0.152356
H4    H     H_    0.514044 0.709642 0.816243 0.165290
H5    H     H_    0.388786 0.180013 0.400395 0.151732
H6    H     H_    0.610996 0.820015 0.599780 0.152953
H7    H     H_    0.670618 0.625175 0.241248 0.096626
H8    H     H_    0.327761 0.340568 0.750511 0.063400
H9    H     H_    0.546292 0.830199 0.972584 0.058831
H10   H     H_    0.262151 0.234120 0.051368 0.085033
H11   H     H_    0.828297 0.202675 0.553961 0.149091
H12   H     H_    0.117126 0.456663 0.141857 0.172296
H13   H     H_    0.835658 0.131322 0.676197 0.153444
H14   H     H_    0.854296 0.278324 0.675714 0.208057
H15   H     H_    0.165769 0.869124 0.321986 0.152972
H16   H     H_    0.171220 0.797260 0.443950 0.147249
H17   H     H_    0.146562 0.722298 0.321624 0.205852
H18   H     H_    0.326309 0.990231 0.340328 0.162517
H19   H     H_    0.674139 0.009826 0.659413 0.160160
H20   H     H_    0.771429 0.455620 0.306440 0.104800
H21   H     H_    0.229586 0.531208 0.697648 0.106010
H22   H     H_    0.887486 0.439180 0.142570 0.170045
H23   H     H_    0.112833 0.555610 0.860861 0.167916
H24   H     H_    0.231896 0.482359 0.304989 0.151289
N1    N     N_R   0.523130 0.207800 0.519340 -0.147620
N2    N     N_R   0.476870 0.792200 0.480660 -0.146981
O1    O     O_R   0.506170 0.421700 0.658830 -0.584013
O2    O     O_2   0.443119 0.253151 0.841976 -0.560787
O3    O     O_2   0.474989 0.789374 0.107042 -0.552092
O4    O     O_2   0.188981 0.341904 0.952450 -0.612481
O5    O     O_3   0.672931 0.233022 0.654167 -0.563404
O6    O     O_3   0.327846 0.766904 0.345218 -0.557194
O7    O     O_R   0.493830 0.578300 0.341170 -0.575137
O8    O     O_R   0.491330 0.609310 0.646410 -0.629763
O9    O     O_R   0.508670 0.390690 0.353590 -0.622966
O10   O     O_R   0.690650 0.406190 0.506220 -0.591234
O11   O     O_R   0.309350 0.593810 0.493780 -0.591942
O12   O     O_R   0.675800 0.593810 0.493800 -0.628221
O13   O     O_R   0.324200 0.406190 0.506200 -0.633079
O14   O     O_2   0.725215 0.633769 0.095502 -0.599401
Zn1   Zn    Zn3+2 0.509910 0.374730 0.508290 0.978665
Zn2   Zn    Zn3+2 0.490090 0.625270 0.491710 0.979600

loop_
_geom_bond_atom_site_label_1
_geom_bond_atom_site_label_2
_ccdc_geom_bond_type
C37   O6    S    
C3    C42   A    
N1    Zn1   S    
C35   C39   S    
C34   C42   A    
O12   Zn2   S    
O8    Zn2   S    
C15   O13   A    
C10   N1    A    
C40   H4    S    
C12   C23   S    
C31   O14   D    
C36   H14   S    
C6    H19   S    
C28   C29   A    
C19   C21   A    
C31   H7    S    
O11   Zn2   S    
O7    Zn2   S    
O9    Zn1   S    
C22   H24   S    
C36   H11   S    
C7    N2    A    
C21   H1    S    
O10   Zn1   S    
C15   O11   A    
C22   C25   A    
C14   O12   A    
C5    C13   A    
C37   H16   S    
C16   C27   A    
C3    C39   A    
C27   C30   A    
C17   C28   A    
C16   H20   S    
C14   C30   S    
O13   Zn1   S    
C1    C34   S    
C15   C29   S    
C7    O6    S    
C25   C29   A    
N2    Zn2   S    
C20   H12   S    
C6    C11   A    
C5    C7    A    
C32   O2    D    
C1    O1    A    
C2    C31   S    
C2    C4    A    
O1    Zn1   S    
C12   O9    A    
C9    C11   A    
C32   H8    S    
C37   H17   S    
C8    N1    A    
C20   C22   A    
C35   O4    D    
C26   C30   A    
C24   H2    S    
C34   C40   A    
C12   O7    A    
C33   H9    S    
C3    C4    A    
C10   H5    S    
C35   H10   S    
C41   H3    S    
C5    H18   S    
C1    O8    A    
C24   C26   A    
C10   C13   A    
C6    C8    A    
C25   C27   A    
C26   C28   A    
C33   C38   S    
C23   C41   A    
C9    N2    A    
C36   H13   S    
C17   H21   S    
C38   C40   A    
C11   C13   A    
C18   H22   S    
C8    O5    S    
C17   C19   A    
C19   H23   S    
C18   C20   A    
C14   O10   A    
C36   O5    S    
C33   O3    D    
C39   C41   A    
C9    H6    S    
C16   C18   A    
C21   C24   A    
C2    C23   A    
C32   C42   S    
C4    C38   A    
C37   H15   S    
