data_mof_unit_38910.cif
_audit_creation_date              2012-12-11T14:52:48-0500
_audit_creation_method            fapswitch 2.2
_symmetry_space_group_name_H-M    P1
_symmetry_Int_Tables_number       1
_space_group_crystal_system       triclinic
_cell_length_a                    18.800608
_cell_length_b                    11.35545
_cell_length_c                    18.797589
_cell_angle_alpha                 89.949939
_cell_angle_beta                  91.123446
_cell_angle_gamma                 88.049023
_cell_volume                      4009.9832762

loop_
_atom_site_label
_atom_site_type_symbol
_atom_type_description
_atom_site_fract_x
_atom_site_fract_y
_atom_site_fract_z
_atom_type_partial_charge
C1    C     C_R   0.272738 0.036515 0.854188 0.606477
C2    C     C_R   0.711239 0.003933 0.138239 0.565548
C3    C     C_R   0.772738 0.536515 0.854188 0.606477
C4    C     C_R   0.211239 0.503933 0.138239 0.565548
C5    C     C_3   0.538917 0.715598 0.965930 0.240875
C6    C     C_3   0.485920 0.724450 0.027470 0.237234
C7    C     C_3   0.038917 0.215598 0.965930 0.240875
C8    C     C_3   0.985920 0.224450 0.027470 0.237234
C9    C     C_R   0.301565 0.538424 0.963105 0.013338
C10   C     C_R   0.707422 0.514794 0.041318 -0.013220
C11   C     C_R   0.801565 0.038424 0.963105 0.013338
C12   C     C_R   0.207422 0.014794 0.041318 -0.013220
C13   C     C_R   0.290071 0.526080 0.035318 -0.145719
C14   C     C_R   0.720244 0.485505 0.969795 -0.110917
C15   C     C_R   0.790071 0.026080 0.035318 -0.145719
C16   C     C_R   0.220244 0.985505 0.969795 -0.110917
C17   C     C_R   0.222233 0.535150 0.063519 -0.000387
C18   C     C_R   0.751255 0.567527 0.925218 0.076351
C19   C     C_R   0.722233 0.035150 0.063519 -0.000386
C20   C     C_R   0.251255 0.067527 0.925218 0.076351
C21   C     C_R   0.163548 0.575251 0.021002 0.205973
C22   C     C_R   0.771017 0.673478 0.951886 0.223698
C23   C     C_R   0.663548 0.075251 0.021002 0.205973
C24   C     C_R   0.271017 0.173478 0.951886 0.223698
C25   C     C_R   0.172522 0.604258 0.949251 -0.007003
C26   C     C_R   0.781941 0.682442 0.025145 -0.024976
C27   C     C_R   0.672522 0.104258 0.949251 -0.007003
C28   C     C_R   0.281941 0.182442 0.025145 -0.024977
C29   C     C_R   0.243352 0.584583 0.920384 0.030650
C30   C     C_R   0.746011 0.607326 0.071414 -0.002161
C31   C     C_R   0.743353 0.084583 0.920384 0.030650
C32   C     C_R   0.246011 0.107326 0.071414 -0.002161
C33   C     C_R   0.497174 0.725146 0.535537 -0.161773
C34   C     C_R   0.500103 0.726896 0.463075 -0.161890
C35   C     C_R   0.997174 0.225146 0.535538 -0.161773
C36   C     C_R   0.000103 0.226897 0.463075 -0.161890
C37   C     C_R   0.504434 0.833217 0.426092 0.028979
C38   C     C_R   0.496481 0.829767 0.574545 0.032980
C39   C     C_R   0.004435 0.333217 0.426092 0.028979
C40   C     C_R   0.996482 0.329767 0.574545 0.032979
C41   C     C_R   0.499675 0.941787 0.463696 0.008317
C42   C     C_R   0.505473 0.938915 0.539271 0.011189
C43   C     C_R   0.999675 0.441787 0.463696 0.008317
C44   C     C_R   0.005474 0.438915 0.539271 0.011189
C45   C     C_R   0.470254 0.818636 0.854426 0.567530
C46   C     C_R   0.555354 0.816566 0.137932 0.568137
C47   C     C_R   0.970254 0.318636 0.854426 0.567530
C48   C     C_R   0.055354 0.316566 0.137932 0.568137
C49   C     C_R   0.211759 0.719243 0.518306 0.207386
C50   C     C_R   0.783338 0.720769 0.482416 0.204861
C51   C     C_R   0.711759 0.219243 0.518306 0.207387
C52   C     C_R   0.283338 0.220768 0.482416 0.204861
C53   C     C_R   0.205153 0.690075 0.447573 -0.095918
C54   C     C_R   0.789647 0.691799 0.553349 -0.089103
C55   C     C_R   0.705153 0.190075 0.447573 -0.095918
C56   C     C_R   0.289647 0.191799 0.553349 -0.089103
C57   C     C_R   0.254152 0.611627 0.416079 -0.011632
C58   C     C_R   0.743984 0.611781 0.583692 -0.014022
C59   C     C_R   0.754152 0.111627 0.416079 -0.011632
C60   C     C_R   0.243984 0.111781 0.583692 -0.014023
C61   C     C_R   0.318023 0.582633 0.451968 -0.110096
C62   C     C_R   0.682304 0.581901 0.546524 -0.119663
C63   C     C_R   0.818024 0.082633 0.451968 -0.110096
C64   C     C_R   0.182304 0.081900 0.546524 -0.119663
C65   C     C_R   0.325712 0.611355 0.523852 -0.153102
C66   C     C_R   0.674560 0.611404 0.474663 -0.155933
C67   C     C_R   0.825712 0.111355 0.523852 -0.153102
C68   C     C_R   0.174560 0.111404 0.474663 -0.155933
C69   C     C_R   0.270572 0.673415 0.558891 0.020415
C70   C     C_R   0.727717 0.674030 0.440606 0.017442
C71   C     C_R   0.770572 0.173415 0.558891 0.020415
C72   C     C_R   0.227717 0.174030 0.440606 0.017442
C73   C     C_R   0.259390 0.635500 0.850849 0.554303
C74   C     C_R   0.738309 0.642809 0.146396 0.529277
C75   C     C_R   0.759390 0.135500 0.850849 0.554303
C76   C     C_R   0.238309 0.142809 0.146396 0.529278
C77   C     C_R   0.269568 0.048788 0.647702 0.563370
C78   C     C_R   0.730348 0.049811 0.352051 0.569949
C79   C     C_R   0.769568 0.548788 0.647702 0.563370
C80   C     C_R   0.230348 0.549811 0.352051 0.569949
C81   C     C_R   0.469141 0.822455 0.646976 0.531700
C82   C     C_R   0.531090 0.824158 0.353253 0.533470
C83   C     C_R   0.969141 0.322455 0.646976 0.531699
C84   C     C_R   0.031090 0.324159 0.353253 0.533470
C85   C     C_R   0.274528 0.690774 0.636218 0.584241
C86   C     C_R   0.724819 0.690136 0.363033 0.582572
C87   C     C_R   0.774528 0.190774 0.636218 0.584242
C88   C     C_R   0.224819 0.190136 0.363033 0.582572
C89   C     C_3   0.488233 0.915909 0.023714 -0.098256
C90   C     C_3   0.542693 0.906167 0.962113 -0.114715
C91   C     C_3   0.988233 0.415908 0.023714 -0.098256
C92   C     C_3   0.042693 0.406167 0.962113 -0.114715
C93   C     C_3   0.442824 0.822707 0.988182 -0.159600
C94   C     C_3   0.585002 0.807783 0.002187 -0.123477
C95   C     C_3   0.942824 0.322707 0.988182 -0.159600
C96   C     C_3   0.085002 0.307783 0.002187 -0.123477
C97   C     C_3   0.496830 0.815694 0.927739 0.014749
C98   C     C_3   0.531219 0.818551 0.062789 0.048402
C99   C     C_3   0.996830 0.315694 0.927739 0.014749
C100  C     C_3   0.031220 0.318551 0.062789 0.048402
Cr1   Cr    Cr6+3 0.229630 0.835900 0.747350 1.060140
Cr2   Cr    Cr6+3 0.770370 0.835900 0.252650 1.045606
Cr3   Cr    Cr6+3 0.729630 0.335900 0.747350 1.060141
Cr4   Cr    Cr6+3 0.270370 0.335900 0.252650 1.045606
Cr5   Cr    Cr6+3 0.387410 0.989850 0.750850 1.018793
Cr6   Cr    Cr6+3 0.612590 0.989850 0.249150 1.046323
Cr7   Cr    Cr6+3 0.887410 0.489850 0.750850 1.018793
Cr8   Cr    Cr6+3 0.112590 0.489850 0.249150 1.046323
Cr9   Cr    Cr6+3 0.385800 0.677120 0.749340 1.042909
Cr10  Cr    Cr6+3 0.614200 0.677120 0.250660 1.031919
Cr11  Cr    Cr6+3 0.885800 0.177120 0.749340 1.042909
Cr12  Cr    Cr6+3 0.114200 0.177120 0.250660 1.031919
H1    H     H_    0.384039 0.828295 0.980606 0.120577
H2    H     H_    0.643689 0.803081 0.009688 0.139605
H3    H     H_    0.884039 0.328295 0.980606 0.120577
H4    H     H_    0.143689 0.303081 0.009688 0.139605
H5    H     H_    0.157396 0.721091 0.419143 0.173536
H6    H     H_    0.835152 0.723944 0.582812 0.180782
H7    H     H_    0.657397 0.221091 0.419143 0.173536
H8    H     H_    0.335152 0.223944 0.582812 0.180782
H9    H     H_    0.359962 0.533342 0.425652 0.197485
H10   H     H_    0.642238 0.531875 0.571983 0.203845
H11   H     H_    0.859962 0.033342 0.425652 0.197485
H12   H     H_    0.142238 0.031875 0.571983 0.203845
H13   H     H_    0.372982 0.580023 0.552659 0.158044
H14   H     H_    0.629028 0.579942 0.445181 0.163009
H15   H     H_    0.872982 0.080023 0.552659 0.158044
H16   H     H_    0.129029 0.079942 0.445181 0.163009
H17   H     H_    0.462398 0.990377 0.051316 0.174705
H18   H     H_    0.571905 0.960113 0.925464 0.165066
H19   H     H_    0.962398 0.490377 0.051316 0.174705
H20   H     H_    0.071905 0.460113 0.925464 0.165066
H21   H     H_    0.334052 0.504827 0.070414 0.199704
H22   H     H_    0.702621 0.403900 0.947184 0.138271
H23   H     H_    0.834052 0.004827 0.070414 0.199704
H24   H     H_    0.202621 0.903900 0.947184 0.138272
H25   H     H_    0.493521 0.639822 0.560713 0.154301
H26   H     H_    0.501031 0.642426 0.436326 0.154114
H27   H     H_    0.993521 0.139822 0.560713 0.154301
H28   H     H_    0.001031 0.142426 0.436326 0.154114
O1    O     O_R   0.214270 0.709000 0.827470 -0.559212
O2    O     O_R   0.785730 0.709000 0.172530 -0.535532
O3    O     O_R   0.714270 0.209000 0.827470 -0.559212
O4    O     O_R   0.285730 0.209000 0.172530 -0.535533
O5    O     O_R   0.445950 0.919440 0.676520 -0.511499
O6    O     O_R   0.554050 0.919440 0.323480 -0.513398
O7    O     O_R   0.945950 0.419440 0.676520 -0.511498
O8    O     O_R   0.054050 0.419440 0.323480 -0.513398
O9    O     O_R   0.456730 0.717630 0.669840 -0.525339
O10   O     O_R   0.543270 0.717630 0.330160 -0.520119
O11   O     O_R   0.956730 0.217630 0.669840 -0.525339
O12   O     O_R   0.043270 0.217630 0.330160 -0.520119
O13   O     O_R   0.320620 0.625640 0.672920 -0.503437
O14   O     O_R   0.679380 0.625640 0.327080 -0.507736
O15   O     O_R   0.820620 0.125640 0.672920 -0.503437
O16   O     O_R   0.179380 0.125640 0.327080 -0.507736
O17   O     O_3   0.334280 0.834290 0.749180 -0.304024
O18   O     O_3   0.665720 0.834290 0.250820 -0.329538
O19   O     O_3   0.834280 0.334290 0.749180 -0.304024
O20   O     O_3   0.165720 0.334290 0.250820 -0.329539
O21   O     O_R   0.236160 0.958490 0.823130 -0.502079
O22   O     O_R   0.763840 0.958490 0.176870 -0.522820
O23   O     O_R   0.736160 0.458490 0.823130 -0.502079
O24   O     O_R   0.263840 0.458490 0.176870 -0.522820
O25   O     O_R   0.332080 0.075470 0.831280 -0.471299
O26   O     O_R   0.667920 0.075470 0.168720 -0.432244
O27   O     O_R   0.832080 0.575470 0.831280 -0.471299
O28   O     O_R   0.167920 0.575470 0.168720 -0.432244
O29   O     O_R   0.446300 0.918110 0.826620 -0.521630
O30   O     O_R   0.553700 0.918110 0.173380 -0.469108
O31   O     O_R   0.946300 0.418110 0.826620 -0.521630
O32   O     O_R   0.053700 0.418110 0.173380 -0.469108
O33   O     O_R   0.457110 0.716200 0.831760 -0.481790
O34   O     O_R   0.542890 0.716200 0.168240 -0.448746
O35   O     O_R   0.957110 0.216200 0.831760 -0.481790
O36   O     O_R   0.042890 0.216200 0.168240 -0.448746
O37   O     O_R   0.320980 0.624310 0.823030 -0.517851
O38   O     O_R   0.679020 0.624310 0.176970 -0.531064
O39   O     O_R   0.820980 0.124310 0.823030 -0.517851
O40   O     O_R   0.179020 0.124310 0.176970 -0.531064
O41   O     O_R   0.213890 0.710430 0.665540 -0.469340
O42   O     O_R   0.786110 0.710430 0.334460 -0.472374
O43   O     O_R   0.713890 0.210430 0.665540 -0.469341
O44   O     O_R   0.286110 0.210430 0.334460 -0.472374
O45   O     O_R   0.235810 0.959820 0.673020 -0.477787
O46   O     O_R   0.764190 0.959820 0.326980 -0.464398
O47   O     O_R   0.735810 0.459820 0.673020 -0.477786
O48   O     O_R   0.264190 0.459820 0.326980 -0.464398
O49   O     O_R   0.331700 0.076900 0.669350 -0.526529
O50   O     O_R   0.668300 0.076900 0.330650 -0.539914
O51   O     O_R   0.831700 0.576900 0.669350 -0.526529
O52   O     O_R   0.168300 0.576900 0.330650 -0.539914
Cl1   Cl    Cl    0.139727 0.803355 0.552370 -0.681267
Cl2   Cl    Cl    0.852314 0.805249 0.449873 -0.681532
Cl3   Cl    Cl    0.639727 0.303356 0.552369 -0.681266
Cl4   Cl    Cl    0.352314 0.305249 0.449873 -0.681532
Cl5   Cl    Cl    0.578498 0.602122 0.913932 -0.660439
Cl6   Cl    Cl    0.444614 0.621654 0.081982 -0.673023
Cl7   Cl    Cl    0.078498 0.102122 0.913932 -0.660439
Cl8   Cl    Cl    0.944614 0.121654 0.081982 -0.673023
C101  C     C_3   0.377059 0.519072 0.932136 -0.186133
C102  C     C_3   0.433858 0.431846 0.960975 -0.447600
H29   H     H_    0.439596 0.427682 0.019116 0.203072
H30   H     H_    0.424445 0.342974 0.939372 0.151657
H31   H     H_    0.484978 0.452998 0.938423 0.206445
H32   H     H_    0.370928 0.478813 0.878980 0.225484
H33   H     H_    0.400999 0.606154 0.928073 0.206525
C103  C     C_3   0.650870 0.456516 0.083981 -0.245175
C104  C     C_3   0.610081 0.366927 0.044407 -0.425833
H34   H     H_    0.586142 0.405422 0.995486 0.190847
H35   H     H_    0.648222 0.295864 0.030688 0.200932
H36   H     H_    0.567014 0.336260 0.078638 0.204244
H37   H     H_    0.675210 0.414641 0.132558 0.176365
H38   H     H_    0.609666 0.524224 0.098359 0.227462
C105  C     C_3   0.877059 0.019072 0.932136 -0.186133
C106  C     C_3   0.933858 0.931846 0.960975 -0.447600
H39   H     H_    0.939596 0.927682 0.019116 0.203072
H40   H     H_    0.924445 0.842974 0.939372 0.151657
H41   H     H_    0.984978 0.952998 0.938423 0.206445
H42   H     H_    0.870928 0.978813 0.878980 0.225484
H43   H     H_    0.900999 0.106154 0.928073 0.206526
C107  C     C_3   0.150870 0.956516 0.083981 -0.245175
C108  C     C_3   0.110081 0.866927 0.044407 -0.425833
H44   H     H_    0.086142 0.905422 0.995486 0.190847
H45   H     H_    0.148222 0.795864 0.030688 0.200932
H46   H     H_    0.067014 0.836260 0.078638 0.204244
H47   H     H_    0.175210 0.914641 0.132558 0.176365
H48   H     H_    0.109666 0.024224 0.098359 0.227462
Cl9   Cl    Cl    0.081047 0.605151 0.061574 -0.730666
Cl10  Cl    Cl    0.778739 0.792258 0.891776 -0.660755
Cl11  Cl    Cl    0.581047 0.105151 0.061574 -0.730666
Cl12  Cl    Cl    0.278739 0.292258 0.891776 -0.660756
C109  C     C_3   0.110989 0.665973 0.903187 -0.233804
C110  C     C_3   0.032123 0.685905 0.920288 -0.425014
H49   H     H_    0.006800 0.735277 0.874848 0.136238
H50   H     H_    0.000292 0.607224 0.925013 0.184224
H51   H     H_    0.025245 0.742155 0.967040 0.184001
H52   H     H_    0.126018 0.759044 0.897048 0.186437
H53   H     H_    0.109115 0.619467 0.851120 0.171146
C111  C     C_3   0.834647 0.767147 0.051112 -0.273825
C112  C     C_3   0.904722 0.707782 0.075114 -0.402111
H54   H     H_    0.931324 0.672651 0.027533 0.162874
H55   H     H_    0.896437 0.635004 0.113148 0.190106
H56   H     H_    0.939298 0.772684 0.101400 0.169242
H57   H     H_    0.842709 0.824978 0.008698 0.192681
H58   H     H_    0.813850 0.827477 0.090531 0.190014
C113  C     C_3   0.610989 0.165973 0.903187 -0.233804
C114  C     C_3   0.532123 0.185905 0.920288 -0.425015
H59   H     H_    0.506800 0.235277 0.874848 0.136238
H60   H     H_    0.500292 0.107224 0.925013 0.184224
H61   H     H_    0.525245 0.242155 0.967040 0.184002
H62   H     H_    0.626018 0.259044 0.897049 0.186437
H63   H     H_    0.609115 0.119467 0.851120 0.171146
C115  C     C_3   0.334647 0.267147 0.051112 -0.273825
C116  C     C_3   0.404722 0.207782 0.075114 -0.402112
H64   H     H_    0.431324 0.172651 0.027533 0.162874
H65   H     H_    0.396437 0.135004 0.113148 0.190106
H66   H     H_    0.439298 0.272684 0.101400 0.169242
H67   H     H_    0.342709 0.324978 0.008698 0.192681
H68   H     H_    0.313850 0.327477 0.090531 0.190014
C117  C     C_3   0.483411 0.057759 0.424480 -0.268160
C118  C     C_3   0.419301 0.050755 0.373359 -0.362376
H69   H     H_    0.425214 0.979742 0.333470 0.155578
H70   H     H_    0.370357 0.035842 0.403787 0.180068
H71   H     H_    0.413222 0.135064 0.343728 0.206550
H72   H     H_    0.468373 0.129485 0.461584 0.187285
H73   H     H_    0.530955 0.087209 0.396345 0.185677
C119  C     C_3   0.526188 0.048332 0.581024 -0.265455
C120  C     C_3   0.589974 0.024610 0.631553 -0.375159
H74   H     H_    0.581465 0.951761 0.669263 0.154591
H75   H     H_    0.638446 0.003078 0.600587 0.175041
H76   H     H_    0.598799 0.104770 0.663668 0.200392
H77   H     H_    0.543642 0.118624 0.545373 0.190296
H78   H     H_    0.480074 0.086091 0.610168 0.187076
C121  C     C_3   0.983411 0.557759 0.424480 -0.268159
C122  C     C_3   0.919302 0.550756 0.373359 -0.362376
H79   H     H_    0.925214 0.479743 0.333471 0.155578
H80   H     H_    0.870357 0.535843 0.403788 0.180068
H81   H     H_    0.913222 0.635065 0.343728 0.206551
H82   H     H_    0.968374 0.629485 0.461584 0.187284
H83   H     H_    0.030956 0.587209 0.396345 0.185677
C123  C     C_3   0.026189 0.548332 0.581024 -0.265454
C124  C     C_3   0.089974 0.524610 0.631554 -0.375153
H84   H     H_    0.081466 0.451757 0.669263 0.154591
H85   H     H_    0.138447 0.503083 0.600587 0.175044
H86   H     H_    0.098797 0.604771 0.663671 0.200389
H87   H     H_    0.043643 0.618625 0.545373 0.190296
H88   H     H_    0.980075 0.586092 0.610167 0.187075

loop_
_geom_bond_atom_site_label_1
_geom_bond_atom_site_label_2
_ccdc_geom_bond_type
C58   C62   A    
C111  H58   S    
C116  H65   S    
C123  H88   S    
C103  H37   S    
C55   C59   A    
C124  H85   S    
C34   C37   A    
C77   O45   A    
C41   C42   A    
C14   C18   A    
Cr9   O9    S    
C35   C36   A    
C52   Cl4   S    
C106  H41   S    
C43   C44   A    
Cr9   O17   S    
Cr2   O18   S    
C118  H71   S    
C5    C94   S    
C94   H2    S    
C108  H46   S    
C3    O27   A    
C7    C8    S    
Cr7   O31   S    
C113  H62   S    
C114  H59   S    
C15   C19   A    
C7    C96   S    
C123  C124  S    
C50   C54   A    
C7    C99   S    
C110  H50   S    
Cr11  O35   S    
Cr8   O28   S    
Cr6   O26   S    
C29   C73   S    
C92   H20   S    
C28   C115  S    
C39   C84   S    
C117  H73   S    
C67   H15   S    
C37   C41   A    
C87   O43   A    
C5    C6    S    
C30   C74   S    
Cr9   O33   S    
C88   O44   A    
C43   C121  S    
Cr10  O38   S    
C95   C99   S    
C25   C109  S    
C92   C96   S    
C104  H36   S    
C47   C99   S    
C3    C18   S    
C61   H9    S    
C112  H54   S    
C101  C102  S    
C82   O6    A    
C9    C13   A    
C111  C112  S    
C10   C103  S    
C35   H27   S    
C48   O32   A    
C52   C56   A    
Cr1   O1    S    
Cr5   O17   S    
C108  H44   S    
C15   H23   S    
C33   H25   S    
C103  C104  S    
C102  H31   S    
C78   O50   A    
C119  H77   S    
C103  H38   S    
C101  H32   S    
C4    O24   A    
C44   C123  S    
C78   O46   A    
C23   C27   A    
C91   C100  S    
C75   O39   A    
C109  C110  S    
C2    O26   A    
C90   C97   S    
C67   C71   A    
Cr10  O18   S    
C114  H61   S    
C9    C29   A    
Cr12  O40   S    
C107  H48   S    
C73   O37   A    
C83   O7    A    
C84   O8    A    
C46   C98   S    
C116  H66   S    
Cr1   O17   S    
C123  H87   S    
C45   C97   S    
C49   C69   A    
C120  H74   S    
C12   C32   A    
C124  H86   S    
Cr11  O39   S    
C56   H8    S    
C57   C80   S    
C40   C83   S    
C109  H53   S    
C8    C95   S    
C11   C15   A    
Cr4   O20   S    
Cr1   O45   S    
C105  H43   S    
C59   C78   S    
C72   C88   S    
C114  H60   S    
C90   C94   S    
C83   O11   A    
C50   Cl2   S    
Cr10  O34   S    
C101  H33   S    
C48   C100  S    
Cr7   O19   S    
Cr7   O27   S    
C60   C77   S    
C59   C63   A    
C102  H29   S    
C62   C66   A    
Cr6   O30   S    
C27   C31   A    
C107  H47   S    
Cr2   O42   S    
C12   C16   A    
C28   C32   A    
Cr3   O47   S    
C106  H39   S    
C73   O1    A    
C21   C25   A    
C10   C14   A    
C95   H3    S    
C91   C92   S    
C6    Cl6   S    
C53   C57   A    
C9    C101  S    
C39   C43   A    
C14   H22   S    
C51   C55   A    
C76   O40   A    
C119  H78   S    
Cr6   O18   S    
C91   C95   S    
C34   H26   S    
C89   C93   S    
C17   C21   A    
C66   H14   S    
Cr11  O11   S    
C68   C72   A    
C112  H55   S    
C110  H51   S    
C65   H13   S    
C19   C23   A    
C109  H52   S    
Cr2   O46   S    
C63   C67   A    
C102  H30   S    
C115  C116  S    
Cr10  O14   S    
C69   C85   S    
C27   C113  S    
C41   C117  S    
Cr7   O7    S    
C10   C30   A    
C93   C97   S    
C63   H11   S    
C104  H34   S    
C74   O38   A    
C122  H81   S    
C115  H68   S    
C21   Cl9   S    
C16   C20   A    
C6    C93   S    
Cr5   O5    S    
C52   C72   A    
Cr12  O12   S    
C33   C34   A    
C80   O48   A    
C11   C31   A    
C93   H1    S    
C119  C120  S    
C57   C61   A    
C36   H28   S    
C12   C107  S    
C82   O10   A    
C46   O30   A    
C75   O3    A    
C58   C79   S    
Cr10  O10   S    
C71   C87   S    
C4    C17   S    
C113  H63   S    
C6    C98   S    
Cr12  O36   S    
C121  C122  S    
C122  H80   S    
C26   C30   A    
C81   O5    A    
C22   Cl10  S    
C120  H75   S    
C38   C81   S    
C22   C26   A    
Cr5   O29   S    
C5    Cl5   S    
Cr3   O43   S    
C37   C82   S    
C8    Cl8   S    
C110  H49   S    
Cr6   O50   S    
C42   C119  S    
C116  H64   S    
C16   H24   S    
Cr4   O48   S    
C64   C68   A    
C31   C75   S    
C62   H10   S    
Cr9   O13   S    
Cr2   O22   S    
Cr3   O19   S    
C54   C58   A    
C65   C69   A    
C68   H16   S    
C1    C20   S    
C85   O41   A    
Cr12  O20   S    
Cr4   O44   S    
C2    C19   S    
C18   C22   A    
C4    O28   A    
C13   H21   S    
C84   O12   A    
C36   C39   A    
Cr8   O52   S    
C24   C28   A    
C5    C97   S    
C76   O4    A    
Cr3   O3    S    
C111  H57   S    
Cr4   O24   S    
C47   O31   A    
C113  C114  S    
C51   C71   A    
C79   O47   A    
C118  H69   S    
Cr8   O20   S    
C87   O15   A    
C3    O23   A    
Cr2   O2    S    
C66   C70   A    
Cr3   O23   S    
C33   C38   A    
Cr6   O6    S    
C26   C111  S    
C24   Cl12  S    
C89   C98   S    
C60   C64   A    
C112  H56   S    
C77   O49   A    
C55   H7    S    
C54   H6    S    
C35   C40   A    
C86   O14   A    
C117  H72   S    
C74   O2    A    
C1    O25   A    
C64   H12   S    
C85   O13   A    
C56   C60   A    
C108  H45   S    
C25   C29   A    
C8    C100  S    
C117  C118  S    
C49   Cl1   S    
C115  H67   S    
Cr8   O32   S    
C81   O9    A    
C96   C100  S    
Cr1   O21   S    
C105  H42   S    
C104  H35   S    
Cr5   O49   S    
Cr5   O25   S    
C121  H82   S    
C53   H5    S    
C61   C65   A    
C7    Cl7   S    
C107  C108  S    
C121  H83   S    
Cr1   O41   S    
C23   Cl11  S    
C50   C70   A    
C49   C53   A    
Cr4   O4    S    
C80   O52   A    
C1    O21   A    
C13   C17   A    
C90   H18   S    
C38   C42   A    
C46   O34   A    
C45   O33   A    
C40   C44   A    
C118  H70   S    
C91   H19   S    
C122  H79   S    
C105  C106  S    
Cr12  O16   S    
C120  H76   S    
Cr7   O51   S    
C124  H84   S    
C86   O42   A    
Cr9   O37   S    
C94   C98   S    
C96   H4    S    
C79   O51   A    
C88   O16   A    
C48   O36   A    
C89   C90   S    
C32   C76   S    
C89   H17   S    
Cr11  O15   S    
C20   C24   A    
C51   Cl3   S    
C47   O35   A    
C45   O29   A    
C106  H40   S    
C92   C99   S    
C11   C105  S    
C2    O22   A    
Cr8   O8    S    
Cr11  O19   S    
C70   C86   S    
