data_mof_unit_41863.cif
_audit_creation_date              2012-12-10T18:23:04-0500
_audit_creation_method            fapswitch 2.2
_symmetry_space_group_name_H-M    P1
_symmetry_Int_Tables_number       1
_space_group_crystal_system       triclinic
_cell_length_a                    15.006484
_cell_length_b                    14.027744
_cell_length_c                    10.543759
_cell_angle_alpha                 89.279589
_cell_angle_beta                  89.932132
_cell_angle_gamma                 89.997051
_cell_volume                      2219.35929391

loop_
_atom_site_label
_atom_site_type_symbol
_atom_type_description
_atom_site_fract_x
_atom_site_fract_y
_atom_site_fract_z
_atom_type_partial_charge
C1    C     C_R   0.326512 0.500002 0.500032 0.888624
C2    C     C_R   0.673489 0.499999 0.500005 0.889263
C3    C     C_R   0.953645 0.499991 0.500184 0.060945
C4    C     C_R   0.046359 0.499994 0.500172 0.061039
C5    C     C_R   0.907313 0.413474 0.484163 0.117439
C6    C     C_R   0.092692 0.586512 0.516181 0.117983
C7    C     C_R   0.953670 0.672081 0.532125 -0.218428
C8    C     C_R   0.046333 0.327903 0.468231 -0.218127
C9    C     C_R   0.046257 0.672082 0.532137 -0.219700
C10   C     C_R   0.953747 0.327900 0.468234 -0.219326
C11   C     C_R   0.543527 0.798734 0.406200 -0.056098
C12   C     C_R   0.456394 0.201361 0.593876 -0.062020
C13   C     C_R   0.456360 0.796874 0.593754 -0.048357
C14   C     C_R   0.543499 0.202912 0.406282 -0.026275
C15   C     C_R   0.455155 0.897678 0.597011 -0.063300
C16   C     C_R   0.544456 0.102198 0.403393 -0.009139
C17   C     C_R   0.544636 0.899631 0.403040 -0.032478
C18   C     C_R   0.455130 0.100425 0.597149 -0.062603
C19   C     C_R   0.499867 0.949355 0.500100 0.033014
C20   C     C_R   0.499821 0.050562 0.500248 0.013532
C21   C     C_R   0.410633 0.947880 0.694207 0.103306
C22   C     C_R   0.588761 0.052610 0.306261 0.092049
C23   C     C_R   0.589076 0.951858 0.305854 0.048468
C24   C     C_R   0.410573 0.048315 0.694231 0.099580
C25   C     C_R   0.500226 0.500683 0.257594 0.902312
C26   C     C_R   0.499803 0.499316 0.742407 0.901500
C27   C     C_3   0.499821 0.589966 0.036335 0.150846
C28   C     C_3   0.500255 0.410028 0.963673 0.151721
C29   C     C_3   0.572035 0.543587 0.956452 0.112124
C30   C     C_3   0.428036 0.456408 0.043548 0.114340
C31   C     C_3   0.425040 0.545480 0.956004 -0.344208
C32   C     C_3   0.575031 0.454523 0.044003 -0.339781
C33   C     C_3   0.499072 0.498070 0.876403 -0.052419
C34   C     C_3   0.500995 0.501926 0.123598 -0.052298
C35   C     C_R   0.815142 0.414117 0.484281 -0.263934
C36   C     C_R   0.184865 0.585875 0.515984 -0.265494
C37   C     C_R   0.769357 0.499995 0.500096 -0.077805
C38   C     C_R   0.230646 0.500004 0.500074 -0.077453
C39   C     C_R   0.815101 0.585868 0.515978 -0.261531
C40   C     C_R   0.184898 0.414127 0.484250 -0.260856
C41   C     C_R   0.907273 0.586508 0.516183 0.115743
C42   C     C_R   0.092729 0.413479 0.484142 0.115575
H1    H     H_    0.364676 0.581756 0.918380 0.148947
H2    H     H_    0.635406 0.418268 0.081626 0.152548
H3    H     H_    0.081499 0.738753 0.544530 0.146543
H4    H     H_    0.918507 0.261229 0.455843 0.146946
H5    H     H_    0.577180 0.757931 0.334276 0.146069
H6    H     H_    0.422778 0.242241 0.665757 0.146887
H7    H     H_    0.422662 0.754670 0.665588 0.130420
H8    H     H_    0.577402 0.244566 0.333908 0.157564
N1    N     N_R   0.500000 0.750030 0.500000 -0.101388
N2    N     N_R   0.500000 0.249970 0.500000 -0.110326
O1    O     O_R   0.367850 0.580280 0.500030 -0.631430
O2    O     O_R   0.632150 0.419720 0.499970 -0.631536
O3    O     O_R   0.632150 0.580280 0.499970 -0.623445
O4    O     O_R   0.367850 0.419720 0.500030 -0.622928
O5    O     O_R   0.499970 0.580260 0.313950 -0.626081
O6    O     O_R   0.500030 0.419740 0.686050 -0.625977
O7    O     O_R   0.500030 0.580260 0.686050 -0.618942
O8    O     O_R   0.499970 0.419740 0.313950 -0.618097
Zn1   Zn    Zn3+2 0.500000 0.607200 0.500000 0.943746
Zn2   Zn    Zn3+2 0.500000 0.392800 0.500000 0.945114
N3    N     N_3   0.502308 0.688467 0.078185 -0.460879
H9    H     H_    0.503541 0.731815 0.996877 0.183013
H10   H     H_    0.441989 0.702197 0.124083 0.189684
N4    N     N_3   0.497811 0.311504 0.921892 -0.461766
H11   H     H_    0.497111 0.268163 0.003231 0.191915
H12   H     H_    0.557943 0.297945 0.875408 0.188567
N5    N     N_3   0.649311 0.593273 0.904403 -0.444033
H13   H     H_    0.688457 0.614416 0.980960 0.190776
H14   H     H_    0.686637 0.543499 0.854001 0.173973
N6    N     N_3   0.350757 0.406724 0.095589 -0.442294
H15   H     H_    0.311620 0.385570 0.019028 0.191110
H16   H     H_    0.313422 0.456503 0.145971 0.173762
H17   H     H_    0.779228 0.347822 0.471526 0.163572
H18   H     H_    0.220782 0.652170 0.528728 0.161258
H19   H     H_    0.779155 0.652168 0.528648 0.166327
H20   H     H_    0.220841 0.347831 0.471531 0.166791
H21   H     H_    0.918399 0.738752 0.544495 0.147515
H22   H     H_    0.081603 0.261233 0.455848 0.148168
N7    N     N_3   0.364800 0.898442 0.794848 -0.434280
H23   H     H_    0.410375 0.854904 0.843155 0.170730
H24   H     H_    0.315154 0.855781 0.755424 0.171175
N8    N     N_3   0.633504 0.104962 0.207216 -0.486525
H25   H     H_    0.700623 0.084966 0.207147 0.201411
H26   H     H_    0.605610 0.085839 0.120340 0.202799
N9    N     N_3   0.635022 0.904423 0.205246 -0.476191
H27   H     H_    0.684564 0.860881 0.244667 0.182343
H28   H     H_    0.589452 0.862034 0.156650 0.195898
N10   N     N_3   0.364542 0.095745 0.794752 -0.432505
H29   H     H_    0.410085 0.138111 0.843438 0.188049
H30   H     H_    0.315097 0.139359 0.755213 0.177233

loop_
_geom_bond_atom_site_label_1
_geom_bond_atom_site_label_2
_ccdc_geom_bond_type
O6    Zn2   S    
N4    H12   S    
N9    H27   S    
N3    H10   S    
C9    H3    S    
C27   C29   S    
C11   H5    S    
C19   C20   A    
N1    Zn1   S    
C12   H6    S    
C6    C9    A    
N7    H23   S    
C39   C41   A    
C15   C19   A    
C35   H17   S    
C17   C23   A    
C31   H1    S    
C18   C24   A    
C39   H19   S    
C35   C37   A    
C1    O4    A    
N8    H26   S    
C29   C32   S    
C2    O3    A    
C30   C31   S    
C29   C33   S    
O8    Zn2   S    
N5    H14   S    
C1    O1    A    
C36   H18   S    
C12   N2    A    
C13   N1    A    
O1    Zn1   S    
C14   N2    A    
C10   H4    S    
C31   C33   S    
C25   O8    A    
C26   O7    A    
C18   C20   A    
C25   C34   S    
C40   C42   A    
N4    H11   S    
C23   N9    S    
C25   O5    A    
N7    H24   S    
C29   N5    S    
C27   C34   S    
O7    Zn1   S    
C30   C34   S    
C27   C31   S    
C28   C32   S    
N8    H25   S    
N6    H16   S    
C2    O2    A    
O2    Zn2   S    
C22   N8    S    
C28   N4    S    
C26   C33   S    
N10   H30   S    
C16   C20   A    
C32   H2    S    
C26   O6    A    
C27   N3    S    
C1    C38   S    
C13   H7    S    
C4    C6    A    
C21   N7    S    
C28   C33   S    
C13   C15   A    
C40   H20   S    
C3    C4    A    
C7    H21   S    
C7    C9    A    
C3    C41   A    
C16   C22   A    
C14   C16   A    
C11   C17   A    
C8    C42   A    
N6    H15   S    
C3    C5    A    
C24   N10   S    
C30   N6    S    
O5    Zn1   S    
C5    C35   A    
C28   C30   S    
C5    C10   A    
C37   C39   A    
N2    Zn2   S    
C38   C40   A    
C2    C37   S    
N10   H29   S    
C14   H8    S    
C4    C42   A    
O3    Zn1   S    
C36   C38   A    
C17   C19   A    
C6    C36   A    
O4    Zn2   S    
C7    C41   A    
N5    H13   S    
C11   N1    A    
N3    H9    S    
C15   C21   A    
C8    C10   A    
C21   C24   A    
C12   C18   A    
C8    H22   S    
N9    H28   S    
C22   C23   A    
C32   C34   S    
