data_mof_unit_53681.cif
_audit_creation_date              2013-03-05T16:58:33-0500
_audit_creation_method            fapswitch 2.2
_symmetry_space_group_name_H-M    P1
_symmetry_Int_Tables_number       1
_space_group_crystal_system       triclinic
_cell_length_a                    17.636843
_cell_length_b                    16.708083
_cell_length_c                    27.636657
_cell_angle_alpha                 89.957032
_cell_angle_beta                  89.709199
_cell_angle_gamma                 90.085838
_cell_volume                      8143.7939289

loop_
_atom_site_label
_atom_site_type_symbol
_atom_site_description
_atom_site_fract_x
_atom_site_fract_y
_atom_site_fract_z
_atom_type_partial_charge
O1    O     O_R   0.389110 0.566570 0.500000 -0.627455
O2    O     O_R   0.610890 0.433430 0.500000 -0.627127
O3    O     O_R   0.610890 0.566570 0.500000 -0.626492
O4    O     O_R   0.389110 0.433430 0.500000 -0.626186
C1    C     C_R   0.353255 0.499917 0.499468 0.897655
C2    C     C_R   0.646743 0.500078 0.500546 0.898062
O5    O     O_R   0.500010 0.566530 0.428750 -0.626166
O6    O     O_R   0.499990 0.433470 0.571250 -0.623839
O7    O     O_R   0.499990 0.566530 0.571250 -0.621161
O8    O     O_R   0.500010 0.433470 0.428750 -0.620968
C3    C     C_R   0.499115 0.500147 0.405701 0.891977
C4    C     C_R   0.500525 0.499927 0.594232 0.890104
Zn1   Zn    Zn3+2 0.500000 0.588860 0.500000 0.937630
Zn2   Zn    Zn3+2 0.500000 0.411140 0.500000 0.939239
C5    C     C_R   0.419971 0.501073 0.176688 0.496399
C6    C     C_R   0.561354 0.540237 0.822990 0.502331
O9    O     O_2   0.354629 0.491700 0.201705 -0.571297
O10   O     O_2   0.619910 0.572089 0.797875 -0.570013
N1    N     N_R   0.487280 0.505871 0.200760 -0.357109
N2    N     N_R   0.504837 0.500841 0.799144 -0.358032
C7    C     C_R   0.554905 0.514155 0.176978 0.491777
C8    C     C_R   0.444350 0.467950 0.823031 0.485799
C9    C     C_R   0.499467 0.432683 0.276274 -0.119148
C10   C     C_R   0.481840 0.567114 0.722709 -0.125566
C11   C     C_R   0.503147 0.430583 0.326381 -0.227124
C12   C     C_R   0.480581 0.567725 0.672646 -0.225916
C13   C     C_R   0.481497 0.574041 0.328940 -0.219910
C14   C     C_R   0.527795 0.431244 0.671641 -0.220730
C15   C     C_R   0.477180 0.577102 0.278329 0.146068
C16   C     C_R   0.530740 0.430191 0.722421 0.152507
C17   C     C_R   0.487053 0.505182 0.252329 0.288547
C18   C     C_R   0.506198 0.499046 0.747573 0.285851
C19   C     C_R   0.487596 0.516501 0.101021 -0.060101
C20   C     C_R   0.496646 0.514494 0.898662 -0.060452
C21   C     C_R   0.418780 0.506697 0.126168 -0.043901
C22   C     C_R   0.558317 0.547922 0.873375 -0.044606
C23   C     C_R   0.350382 0.506907 0.100726 -0.187680
C24   C     C_R   0.613267 0.591598 0.898476 -0.187050
C25   C     C_R   0.556437 0.519787 0.126559 -0.011113
C26   C     C_R   0.439246 0.473715 0.873372 -0.007259
C27   C     C_R   0.494900 0.501345 0.352920 -0.076822
C28   C     C_R   0.502751 0.499603 0.646934 -0.074028
H1    H     H_    0.474488 0.627811 0.350159 0.149489
H2    H     H_    0.545564 0.379819 0.650801 0.143159
H3    H     H_    0.297223 0.506172 0.120561 0.184582
H4    H     H_    0.657128 0.622981 0.878426 0.184583
C29   C     C_R   0.426858 0.494163 0.974181 0.044560
C30   C     C_R   0.556414 0.539546 0.025457 0.044109
C31   C     C_R   0.554467 0.553805 0.975080 0.008784
C32   C     C_R   0.419898 0.509124 0.024347 0.009243
C33   C     C_R   0.492516 0.521291 0.949332 0.039205
C34   C     C_R   0.487812 0.522195 0.050243 0.039299
C35   C     C_R   0.373746 0.447698 0.948818 -0.215271
C36   C     C_R   0.624880 0.535621 0.051173 -0.215161
C37   C     C_R   0.379103 0.438622 0.898942 -0.150983
C38   C     C_R   0.624949 0.527091 0.101178 -0.150101
O11   O     O_2   0.389127 0.430629 0.797983 -0.571404
O12   O     O_2   0.620156 0.517763 0.202210 -0.565705
C39   C     C_R   0.349396 0.511634 0.050045 0.078848
C40   C     C_R   0.610646 0.598332 0.949045 0.078425
H5    H     H_    0.461205 0.620979 0.654084 0.163323
H6    H     H_    0.513181 0.373906 0.344275 0.163006
H7    H     H_    0.463473 0.619607 0.742503 0.140247
H8    H     H_    0.506988 0.378011 0.255789 0.141134
H9    H     H_    0.336526 0.403194 0.880628 0.186569
H10   H     H_    0.678854 0.525347 0.119758 0.187109
H11   H     H_    0.330964 0.413336 0.967530 0.146069
H12   H     H_    0.678789 0.533300 0.032714 0.146011
C41   C     C_R   0.847506 0.574230 0.499068 0.115544
C42   C     C_R   0.152517 0.425667 0.500982 0.115499
C43   C     C_R   0.152779 0.572630 0.490235 0.116008
C44   C     C_R   0.847170 0.427306 0.510009 0.115996
C45   C     C_R   0.768388 0.572708 0.498272 -0.216296
C46   C     C_R   0.231637 0.427223 0.501724 -0.215974
C47   C     C_R   0.231915 0.571497 0.491299 -0.216826
C48   C     C_R   0.768037 0.428474 0.508900 -0.217394
H13   H     H_    0.736535 0.627359 0.493876 0.155172
H14   H     H_    0.263514 0.372564 0.506017 0.155561
H15   H     H_    0.264048 0.626215 0.487384 0.151345
H16   H     H_    0.735876 0.373786 0.512881 0.151249
C49   C     C_R   0.729075 0.500364 0.502394 -0.111317
C50   C     C_R   0.270917 0.499602 0.497673 -0.111371
C51   C     C_R   0.886091 0.500605 0.503761 0.066413
C52   C     C_R   0.113896 0.499291 0.496409 0.066410
C53   C     C_1   0.966397 0.500124 0.501283 -0.091336
C54   C     C_1   0.033591 0.499729 0.498910 -0.091346
C55   C     C_R   0.449063 0.832338 0.470206 0.019036
C56   C     C_R   0.550826 0.167901 0.530205 0.018132
C57   C     C_R   0.552230 0.832283 0.529100 0.019280
C58   C     C_R   0.448277 0.167555 0.470850 0.019840
C59   C     C_R   0.450535 0.747464 0.471317 -0.033848
C60   C     C_R   0.549181 0.252747 0.528983 -0.029024
C61   C     C_R   0.550002 0.747432 0.528378 -0.030250
C62   C     C_R   0.450365 0.252404 0.471461 -0.031225
H17   H     H_    0.412499 0.712314 0.449413 0.126631
H18   H     H_    0.586863 0.288058 0.551042 0.125124
H19   H     H_    0.587992 0.712299 0.550285 0.133613
H20   H     H_    0.412551 0.287411 0.449356 0.132080
N3    N     N_R   0.500000 0.707230 0.500000 -0.115390
N4    N     N_R   0.500000 0.292770 0.500000 -0.115002
C63   C     C_R   0.500522 0.875272 0.499783 0.057125
C64   C     C_R   0.499795 0.124761 0.500422 0.057127
C65   C     C_1   0.500343 0.963495 0.500021 -0.073859
C66   C     C_1   0.500137 0.036544 0.500253 -0.073750
C67   C     C_3   0.394341 0.878748 0.438196 -0.410424
C68   C     C_3   0.341065 0.827785 0.407024 -0.375764
C69   C     C_3   0.289284 0.880315 0.376427 -0.866707
H21   H     H_    0.254165 0.919464 0.400005 0.258101
H22   H     H_    0.323456 0.918037 0.351370 0.258683
H23   H     H_    0.250991 0.841848 0.354706 0.254608
H24   H     H_    0.374921 0.789163 0.382400 0.215809
H25   H     H_    0.305256 0.789544 0.430780 0.215529
H26   H     H_    0.359101 0.917854 0.461817 0.207767
H27   H     H_    0.428214 0.917947 0.413729 0.208523
C70   C     C_3   0.605350 0.121782 0.562513 -0.408629
C71   C     C_3   0.657671 0.172999 0.594236 -0.375085
C72   C     C_3   0.709620 0.120653 0.624836 -0.873940
H28   H     H_    0.675541 0.081820 0.649312 0.258666
H29   H     H_    0.745748 0.082572 0.601233 0.259831
H30   H     H_    0.746916 0.159259 0.647167 0.253863
H31   H     H_    0.693460 0.211934 0.570878 0.214738
H32   H     H_    0.623112 0.210967 0.618880 0.217091
H33   H     H_    0.571363 0.082142 0.586653 0.209223
H34   H     H_    0.641271 0.083107 0.539050 0.207589
C73   C     C_3   0.608535 0.878666 0.560039 -0.416841
C74   C     C_3   0.663916 0.827868 0.589769 -0.366092
C75   C     C_3   0.719094 0.880783 0.617688 -0.860868
H35   H     H_    0.753139 0.918018 0.592285 0.256766
H36   H     H_    0.687714 0.920463 0.643024 0.261024
H37   H     H_    0.758289 0.842631 0.638904 0.254755
H38   H     H_    0.631855 0.790302 0.616069 0.227074
H39   H     H_    0.697189 0.788496 0.565272 0.213256
H40   H     H_    0.642301 0.918174 0.535687 0.208948
H41   H     H_    0.575995 0.917512 0.585332 0.208824
C76   C     C_3   0.392289 0.120997 0.439772 -0.415947
C77   C     C_3   0.336966 0.171645 0.409894 -0.367318
C78   C     C_3   0.282056 0.118591 0.381862 -0.863049
H42   H     H_    0.313662 0.078897 0.356650 0.260479
H43   H     H_    0.247876 0.081384 0.407205 0.257379
H44   H     H_    0.242964 0.156638 0.360501 0.254392
H45   H     H_    0.303460 0.210968 0.434299 0.214028
H46   H     H_    0.369098 0.209253 0.383651 0.224016
H47   H     H_    0.425083 0.082218 0.414576 0.208019
H48   H     H_    0.358453 0.081427 0.464046 0.209100
C79   C     C_3   0.463350 0.654789 0.250795 -0.413161
C80   C     C_3   0.448703 0.729198 0.282151 -0.373601
C81   C     C_3   0.432906 0.802656 0.250968 -0.858014
H49   H     H_    0.482296 0.815790 0.227139 0.262466
H50   H     H_    0.381885 0.792635 0.228346 0.263045
H51   H     H_    0.422530 0.855227 0.274652 0.249511
H52   H     H_    0.398622 0.718490 0.305865 0.223249
H53   H     H_    0.499102 0.741951 0.304896 0.227218
H54   H     H_    0.513304 0.666608 0.227138 0.212305
H55   H     H_    0.413239 0.646122 0.227148 0.222000
C82   C     C_3   0.559793 0.358487 0.750871 -0.405463
C83   C     C_3   0.590565 0.288661 0.720360 -0.380138
C84   C     C_3   0.620584 0.221551 0.752438 -0.856172
H56   H     H_    0.667851 0.243772 0.775219 0.263192
H57   H     H_    0.574636 0.197994 0.776140 0.263996
H58   H     H_    0.642031 0.171978 0.729423 0.252211
H59   H     H_    0.544552 0.263843 0.697447 0.226942
H60   H     H_    0.637654 0.310053 0.696751 0.224230
H61   H     H_    0.605941 0.379611 0.775006 0.211764
H62   H     H_    0.512966 0.335517 0.774088 0.227807
C85   C     C_3   0.274049 0.533821 0.026662 -0.416272
C86   C     C_3   0.279029 0.614655 0.000303 -0.324388
C87   C     C_3   0.202354 0.638865 0.979602 -0.873191
H63   H     H_    0.182551 0.593389 0.953204 0.265814
H64   H     H_    0.159678 0.644962 0.009063 0.260669
H65   H     H_    0.207835 0.697305 0.960737 0.250986
H66   H     H_    0.298181 0.661621 0.025995 0.221756
H67   H     H_    0.320589 0.611527 0.970076 0.233503
H68   H     H_    0.252496 0.486988 0.002233 0.196214
H69   H     H_    0.229132 0.539312 0.054869 0.197895
C88   C     C_3   0.659095 0.663988 0.971750 -0.415857
C89   C     C_3   0.609923 0.727528 0.996905 -0.323619
C90   C     C_3   0.658357 0.795537 0.016891 -0.875752
H70   H     H_    0.699212 0.772095 0.043864 0.265074
H71   H     H_    0.689981 0.825677 0.987155 0.261475
H72   H     H_    0.621282 0.840277 0.034909 0.250690
H73   H     H_    0.568773 0.752609 0.970603 0.222753
H74   H     H_    0.577529 0.700546 0.027360 0.232171
H75   H     H_    0.702098 0.640427 0.996799 0.195618
H76   H     H_    0.692892 0.695045 0.943269 0.197777
C91   C     C_3   0.892197 0.652370 0.494638 -0.411300
C92   C     C_3   0.844907 0.729624 0.494978 -0.360207
C93   C     C_3   0.895455 0.803743 0.493407 -0.876023
H77   H     H_    0.933788 0.804813 0.525166 0.259565
H78   H     H_    0.929724 0.804317 0.459599 0.264001
H79   H     H_    0.859649 0.858344 0.494273 0.250975
H80   H     H_    0.807102 0.731043 0.462927 0.224583
H81   H     H_    0.810050 0.732001 0.528535 0.221400
H82   H     H_    0.932301 0.655474 0.525500 0.205634
H83   H     H_    0.925958 0.650419 0.460590 0.203914
C94   C     C_3   0.107857 0.347494 0.505323 -0.411372
C95   C     C_3   0.155174 0.270255 0.505011 -0.359772
C96   C     C_3   0.104626 0.196130 0.506579 -0.875721
H84   H     H_    0.070316 0.195575 0.540372 0.263964
H85   H     H_    0.066320 0.195037 0.474807 0.259643
H86   H     H_    0.140434 0.141529 0.505743 0.251034
H87   H     H_    0.190086 0.267852 0.471473 0.221280
H88   H     H_    0.192940 0.268866 0.537081 0.225140
H89   H     H_    0.074004 0.349386 0.539336 0.203729
H90   H     H_    0.067830 0.344415 0.474419 0.205972
C97   C     C_3   0.108397 0.650206 0.483063 -0.408802
C98   C     C_3   0.155947 0.724649 0.470500 -0.366461
C99   C     C_3   0.105766 0.797281 0.461266 -0.875148
H91   H     H_    0.066985 0.785562 0.430527 0.260493
H92   H     H_    0.071995 0.811646 0.494134 0.263221
H93   H     H_    0.141811 0.849754 0.452120 0.252830
H94   H     H_    0.194600 0.739207 0.500908 0.222355
H95   H     H_    0.189853 0.712784 0.437273 0.223020
H96   H     H_    0.067672 0.640607 0.453031 0.206239
H97   H     H_    0.075331 0.662444 0.516588 0.202840
C100  C     C_3   0.891513 0.349736 0.517306 -0.409131
C101  C     C_3   0.843915 0.275306 0.529833 -0.366006
C102  C     C_3   0.894077 0.202678 0.539135 -0.874981
H98   H     H_    0.927917 0.188283 0.506299 0.263351
H99   H     H_    0.932804 0.214425 0.569898 0.260229
H100  H     H_    0.858012 0.150216 0.548269 0.252489
H101  H     H_    0.809910 0.287178 0.563018 0.221749
H102  H     H_    0.805343 0.260736 0.499387 0.223202
H103  H     H_    0.924706 0.337437 0.483839 0.203598
H104  H     H_    0.932130 0.359389 0.547391 0.205553

loop_
_geom_bond_atom_site_label_1
_geom_bond_atom_site_label_2
_geom_bond_distance
_ccdc_geom_bond_type
C73   H41   1.112198 S    
O5    Zn1   2.004419 S    
C16   C18   1.411966 A    
C86   H67   1.109879 S    
C85   C86   1.536217 S    
C58   C76   1.524854 S    
C55   C59   1.418667 A    
C13   C15   1.402077 A    
C24   C40   1.402685 A    
C67   C68   1.535250 S    
C81   H49   1.110852 S    
C91   H83   1.111503 S    
C44   C48   1.396314 A    
O3    C2    1.279244 A    
N1    C17   1.425223 S    
C100  H104  1.111939 S    
C8    O11   1.349918 S    
C10   C18   1.397651 A    
C79   C80   1.537399 S    
C76   C77   1.536083 S    
C87   H64   1.110836 S    
C57   C73   1.524833 S    
C53   C54   1.186608 T    
C102  H100  1.110417 S    
C30   C36   1.405831 A    
C78   H43   1.111004 S    
C60   N4    1.359836 A    
C20   C33   1.406554 A    
C84   H56   1.110828 S    
C31   C40   1.429205 A    
C71   H32   1.111503 S    
C20   C26   1.408335 A    
C32   C39   1.429522 A    
C67   H26   1.112253 S    
C83   C84   1.525948 S    
C81   H50   1.110873 S    
C12   H5    1.083351 S    
C52   C54   1.417688 S    
C80   C81   1.525967 S    
C72   H29   1.110824 S    
C15   C79   1.524705 S    
C56   C64   1.418994 A    
C93   H78   1.110232 S    
C94   H89   1.111528 S    
C68   C69   1.525942 S    
C62   H20   1.079283 S    
C85   H68   1.102310 S    
C70   C71   1.536022 S    
C60   H18   1.079299 S    
C71   C72   1.526023 S    
C45   C49   1.396846 A    
C92   H80   1.111630 S    
C96   H85   1.110765 S    
O7    Zn1   2.003867 S    
C101  H101  1.111387 S    
C58   C64   1.418937 A    
C93   H79   1.110517 S    
C4    C28   1.457234 S    
C55   C63   1.418775 A    
C98   H94   1.111630 S    
C56   C60   1.418335 A    
C42   C94   1.528559 S    
C90   H71   1.110834 S    
C55   C67   1.524869 S    
C42   C46   1.395882 A    
C99   H93   1.110415 S    
C32   C34   1.415180 A    
C69   H21   1.110788 S    
C41   C45   1.395883 A    
C74   H39   1.110518 S    
C29   C32   1.413700 A    
C42   C52   1.412896 A    
C61   N3    1.360156 A    
C57   C63   1.418668 A    
C39   C85   1.526687 S    
C6    N2    1.366207 A    
C29   C35   1.405987 A    
C79   H54   1.111802 S    
C26   C37   1.399351 A    
C76   H47   1.112181 S    
C83   H60   1.111976 S    
C86   H66   1.111987 S    
C63   C65   1.474051 S    
C2    C49   1.453247 S    
O4    Zn2   1.991443 S    
C69   H22   1.110859 S    
O2    C2    1.279884 A    
C46   C50   1.396930 A    
C35   H11   1.077353 S    
C5    C21   1.399541 A    
C37   H9    1.083256 S    
C58   C62   1.418214 A    
C87   H65   1.110396 S    
C68   H24   1.110727 S    
C35   C37   1.389600 A    
C89   H73   1.111983 S    
C78   H44   1.110340 S    
C36   C38   1.389203 A    
C70   H33   1.112248 S    
C71   H31   1.110093 S    
C99   H91   1.110677 S    
C92   H81   1.110816 S    
C9    H8    1.082994 S    
C67   H27   1.112271 S    
C81   H51   1.110677 S    
C101  C102  1.525221 S    
O8    Zn2   2.003870 S    
C72   H30   1.110448 S    
C11   C27   1.399153 A    
C87   H63   1.110934 S    
C98   C99   1.525181 S    
O4    C1    1.279185 A    
C68   H25   1.110015 S    
C94   H90   1.112003 S    
C31   C33   1.414922 A    
C85   H69   1.112556 S    
C97   C98   1.537571 S    
C59   H17   1.079297 S    
C14   H2    1.080683 S    
C80   H52   1.111385 S    
C100  H103  1.111561 S    
C19   C34   1.406489 A    
C9    C17   1.397933 A    
Zn1   N3    1.977736 S    
C96   H86   1.110519 S    
C5    N1    1.366055 A    
C100  C101  1.537648 S    
C75   H36   1.110845 S    
C77   H45   1.110674 S    
C41   C51   1.412915 A    
C98   H95   1.111387 S    
C13   C27   1.404140 A    
C61   H19   1.079271 S    
O5    C3    1.279556 A    
C88   C89   1.536297 S    
C7    C25   1.396641 A    
C62   N4    1.359904 A    
O6    C4    1.279646 A    
C90   H72   1.110424 S    
C8    C26   1.397127 A    
C25   C38   1.399229 A    
C19   C25   1.408479 A    
C64   C66   1.473964 S    
C23   C39   1.403039 A    
C77   H46   1.111801 S    
C92   C93   1.525288 S    
C80   H53   1.111737 S    
C79   H55   1.111202 S    
C6    O10   1.349848 S    
C16   C82   1.523358 S    
C51   C53   1.417683 S    
N2    C8    1.366171 A    
C97   H97   1.111551 S    
C10   H7    1.083145 S    
C73   C74   1.535929 S    
C69   H23   1.110390 S    
O1    C1    1.279967 A    
O1    Zn1   1.990346 S    
C23   H3    1.083686 S    
C75   H35   1.111043 S    
C41   C91   1.528552 S    
C65   C66   1.220546 T    
C12   C28   1.397524 A    
C88   H75   1.102382 S    
C43   C52   1.413103 A    
N2    C18   1.425677 S    
C73   H40   1.112392 S    
C5    O9    1.349759 S    
C30   C31   1.412915 A    
O6    Zn2   2.004417 S    
C70   H34   1.112256 S    
C14   C28   1.403298 A    
C21   C23   1.399384 A    
C48   H16   1.080001 S    
C91   H82   1.111991 S    
C95   C96   1.525352 S    
O3    Zn1   1.991439 S    
C48   C49   1.396662 A    
C83   H59   1.111809 S    
C43   C97   1.528482 S    
C29   C33   1.417013 A    
C47   C50   1.396609 A    
Zn2   N4    1.977736 S    
C96   H84   1.110266 S    
C82   H62   1.111014 S    
C84   H58   1.110395 S    
C78   H42   1.110831 S    
C82   H61   1.112156 S    
C56   C70   1.524993 S    
C89   C90   1.526035 S    
C102  H98   1.110308 S    
C75   H37   1.110342 S    
C7    O12   1.349916 S    
C15   C17   1.411107 A    
C72   H28   1.110792 S    
C6    C22   1.399230 A    
C43   C47   1.396323 A    
C1    C50   1.453285 S    
C76   H48   1.112371 S    
C10   C12   1.383890 A    
C91   C92   1.537840 S    
C86   C87   1.526049 S    
C74   H38   1.111783 S    
C74   C75   1.526476 S    
C38   H10   1.083240 S    
C22   C24   1.399467 A    
C19   C21   1.404822 A    
C14   C16   1.404717 A    
C3    C27   1.461106 S    
C20   C22   1.404728 A    
C11   H6    1.083189 S    
C9    C11   1.387078 A    
C57   C61   1.418341 A    
C102  H99   1.110697 S    
O2    Zn2   1.990343 S    
O7    C4    1.280972 A    
C101  H102  1.111631 S    
C24   H4    1.083691 S    
C44   C51   1.413098 A    
O8    C3    1.283043 A    
C89   H74   1.109886 S    
C97   H96   1.111918 S    
C94   C95   1.537898 S    
C13   H1    1.080126 S    
C30   C34   1.416828 A    
C44   C100  1.528487 S    
C36   H12   1.077480 S    
C84   H57   1.110846 S    
C90   H70   1.110918 S    
C46   H14   1.079918 S    
C82   C83   1.537977 S    
C99   H92   1.110286 S    
C40   C88   1.526745 S    
C45   H13   1.079917 S    
C77   C78   1.526395 S    
C93   H77   1.110754 S    
C59   N3    1.359910 A    
C95   H87   1.110942 S    
C47   H15   1.079997 S    
C95   H88   1.111633 S    
C88   H76   1.112557 S    
N1    C7    1.365678 A    
