data_mof_unit_6249.cif
_audit_creation_date              2012-12-10T17:38:19-0500
_audit_creation_method            fapswitch 2.2
_symmetry_space_group_name_H-M    P1
_symmetry_Int_Tables_number       1
_space_group_crystal_system       triclinic
_cell_length_a                    12.07732
_cell_length_b                    12.720342
_cell_length_c                    19.09977
_cell_angle_alpha                 92.030432
_cell_angle_beta                  83.970207
_cell_angle_gamma                 92.872642
_cell_volume                      2913.00732351

loop_
_atom_site_label
_atom_site_type_symbol
_atom_type_description
_atom_site_fract_x
_atom_site_fract_y
_atom_site_fract_z
_atom_type_partial_charge
C1    C     C_R   0.521727 0.700719 0.494717 0.879754
C2    C     C_R   0.563962 0.131061 0.466869 -0.296529
C3    C     C_R   0.449309 0.972191 0.455455 0.116310
C4    C     C_R   0.556689 0.023492 0.453280 0.119454
C5    C     C_R   0.959298 0.391576 0.439329 0.154272
C6    C     C_R   0.035555 0.582923 0.577709 0.133179
C7    C     C_R   0.845601 0.415126 0.435967 0.183795
C8    C     C_R   0.154778 0.583429 0.565840 0.219452
C9    C     C_R   0.853108 0.533967 0.534007 -0.092063
C10   C     C_R   0.144273 0.456092 0.472222 -0.097817
C11   C     C_R   0.971386 0.527223 0.530056 -0.008995
C12   C     C_R   0.478835 0.299043 0.496244 0.884073
C13   C     C_R   0.025568 0.458586 0.479728 -0.008746
C14   C     C_R   0.497750 0.496904 0.634224 0.889770
C15   C     C_R   0.502320 0.502394 0.365666 0.873505
C16   C     C_R   0.440716 0.556129 0.754167 -0.271495
C17   C     C_R   0.433499 0.436172 0.257440 -0.259342
C18   C     C_R   0.436614 0.546329 0.825988 -0.180951
C19   C     C_R   0.435298 0.431841 0.185290 -0.195408
C20   C     C_R   0.482634 0.460331 0.853857 0.013308
C21   C     C_R   0.512036 0.494988 0.143987 0.026315
C22   C     C_R   0.527592 0.377816 0.809328 0.113982
C23   C     C_R   0.467712 0.187764 0.478861 -0.088084
C24   C     C_R   0.588280 0.566263 0.175047 0.105901
C25   C     C_R   0.532027 0.388351 0.735304 0.164679
C26   C     C_R   0.583572 0.573342 0.249594 0.165948
C27   C     C_R   0.491409 0.480365 0.709133 -0.053214
C28   C     C_R   0.507215 0.505051 0.289736 -0.047380
C29   C     C_R   0.505613 0.486667 0.068611 0.282167
C30   C     C_R   0.488971 0.464035 0.929510 0.278003
C31   C     C_3   0.003432 0.286380 0.413117 -0.979532
C32   C     C_3   0.974543 0.634724 0.642849 -0.963382
C33   C     C_3   0.565947 0.279041 0.840826 -0.415185
C34   C     C_R   0.535382 0.810425 0.476271 -0.095758
C35   C     C_3   0.693745 0.277696 0.835569 -0.320504
C36   C     C_3   0.731159 0.178664 0.867317 -0.878478
C37   C     C_3   0.668922 0.637701 0.129314 -0.430224
C38   C     C_3   0.609581 0.731170 0.104227 -0.331407
C39   C     C_3   0.690623 0.803875 0.059665 -0.875571
C40   C     C_3   0.575341 0.302985 0.683199 -0.902541
C41   C     C_3   0.654406 0.656865 0.285382 -0.948430
C42   C     C_3   0.767939 0.010373 0.418254 -0.455463
C43   C     C_3   0.819456 0.945075 0.354646 -0.325869
C44   C     C_3   0.915336 0.005755 0.312871 -0.910269
C45   C     C_R   0.653540 0.964383 0.445721 0.111781
C46   C     C_3   0.239935 0.985495 0.438282 -0.437996
C47   C     C_3   0.151841 0.995332 0.502007 -0.338886
C48   C     C_3   0.048639 0.923808 0.493085 -0.914549
C49   C     C_3   0.221134 0.653451 0.614396 -0.378364
C50   C     C_3   0.205572 0.771647 0.607699 -0.393460
C51   C     C_3   0.286758 0.837438 0.649709 -0.894918
C52   C     C_3   0.786765 0.385680 0.370889 -0.352776
C53   C     C_3   0.849990 0.332178 0.306232 -0.439819
C54   C     C_3   0.783859 0.333437 0.242244 -0.865651
C55   C     C_R   0.353211 0.031852 0.454562 0.106202
C56   C     C_R   0.641697 0.858563 0.462728 -0.237437
C57   C     C_R   0.363992 0.140141 0.467757 -0.235804
C58   C     C_R   0.441064 0.864495 0.465489 -0.276729
H1    H     H_    0.407411 0.624921 0.733526 0.147232
H2    H     H_    0.808734 0.584819 0.572567 0.165224
H3    H     H_    0.934917 0.224983 0.413748 0.249322
H4    H     H_    0.050031 0.292568 0.360096 0.240162
H5    H     H_    0.060464 0.257574 0.449456 0.237702
H6    H     H_    0.932420 0.704810 0.627606 0.236957
H7    H     H_    0.911266 0.577809 0.668184 0.245877
H8    H     H_    0.027210 0.658971 0.684957 0.250056
H9    H     H_    0.699007 0.175131 0.923898 0.267303
H10   H     H_    0.700317 0.107294 0.838765 0.258926
H11   H     H_    0.823622 0.179811 0.862853 0.251082
H12   H     H_    0.374720 0.384585 0.288363 0.153727
H13   H     H_    0.730217 0.280913 0.779849 0.226588
H14   H     H_    0.727613 0.347761 0.864035 0.238965
H15   H     H_    0.532127 0.272250 0.896856 0.206611
H16   H     H_    0.529894 0.207494 0.815203 0.196578
H17   H     H_    0.757784 0.836130 0.090940 0.260046
H18   H     H_    0.728276 0.760317 0.012342 0.267174
H19   H     H_    0.645355 0.870491 0.042200 0.249804
H20   H     H_    0.541906 0.702618 0.072218 0.232655
H21   H     H_    0.571654 0.776970 0.150495 0.222485
H22   H     H_    0.739985 0.667868 0.157740 0.211869
H23   H     H_    0.401399 0.608769 0.860098 0.158879
H24   H     H_    0.708850 0.592651 0.083632 0.215898
H25   H     H_    0.653874 0.331858 0.653076 0.259181
H26   H     H_    0.593298 0.228740 0.706945 0.233898
H27   H     H_    0.512297 0.282000 0.646115 0.232077
H28   H     H_    0.646393 0.734818 0.262581 0.239914
H29   H     H_    0.628739 0.668074 0.342372 0.252841
H30   H     H_    0.743056 0.635789 0.278496 0.235357
H31   H     H_    0.882449 0.069875 0.284297 0.261459
H32   H     H_    0.976042 0.040119 0.348083 0.265297
H33   H     H_    0.959145 0.951794 0.273500 0.254527
H34   H     H_    0.377034 0.377733 0.161294 0.157139
H35   H     H_    0.851322 0.871588 0.373148 0.216681
H36   H     H_    0.755053 0.922735 0.318540 0.233011
H37   H     H_    0.762734 0.091933 0.400628 0.208459
H38   H     H_    0.823478 0.012748 0.461132 0.199708
H39   H     H_    0.012154 0.943021 0.444606 0.276656
H40   H     H_    0.070151 0.839833 0.489368 0.259873
H41   H     H_    0.985510 0.935146 0.539001 0.249820
H42   H     H_    0.187045 0.974828 0.550680 0.234773
H43   H     H_    0.126294 0.078124 0.508662 0.216828
H44   H     H_    0.212645 0.029031 0.394103 0.197253
H45   H     H_    0.643933 0.169761 0.474044 0.165659
H46   H     H_    0.243824 0.902644 0.418696 0.202535
H47   H     H_    0.275337 0.815544 0.705883 0.261130
H48   H     H_    0.374182 0.824647 0.627939 0.264008
H49   H     H_    0.271518 0.922377 0.647014 0.251103
H50   H     H_    0.220843 0.791400 0.551577 0.235650
H51   H     H_    0.119958 0.793908 0.626592 0.245417
H52   H     H_    0.202488 0.629198 0.669799 0.179002
H53   H     H_    0.309094 0.645115 0.603131 0.273910
H54   H     H_    0.700189 0.293844 0.254064 0.267334
H55   H     H_    0.773790 0.415657 0.227053 0.265953
H56   H     H_    0.360911 0.823368 0.470550 0.171337
H57   H     H_    0.829030 0.291040 0.196989 0.254061
H58   H     H_    0.931834 0.374309 0.292671 0.244108
H59   H     H_    0.861498 0.248629 0.316332 0.241141
H60   H     H_    0.709521 0.337582 0.386147 0.229291
H61   H     H_    0.768685 0.462749 0.350759 0.239652
H62   H     H_    0.291154 0.187035 0.469894 0.158017
H63   H     H_    0.715213 0.813581 0.464118 0.165641
H64   H     H_    0.186742 0.404719 0.432965 0.156542
N1    N     N_R   0.586808 0.448614 0.955544 -0.181787
N2    N     N_R   0.407609 0.501794 0.042713 -0.179428
N3    N     N_R   0.594743 0.458633 0.024230 -0.184826
N4    N     N_R   0.399601 0.491451 0.974042 -0.178389
N5    N     N_R   0.207800 0.519350 0.512860 -0.131794
N6    N     N_R   0.792200 0.480650 0.487140 -0.136684
O1    O     O_R   0.421690 0.658830 0.503430 -0.636615
O2    O     O_R   0.578310 0.341170 0.496570 -0.630415
O3    O     O_R   0.609320 0.646410 0.495180 -0.623291
O4    O     O_R   0.390680 0.353590 0.504820 -0.617927
O5    O     O_R   0.406160 0.506220 0.605990 -0.640492
O6    O     O_R   0.593840 0.493780 0.394010 -0.642842
O7    O     O_R   0.593780 0.493810 0.597740 -0.609051
O8    O     O_R   0.406220 0.506190 0.402260 -0.614378
Zn1   Zn    Zn3+2 0.374720 0.508290 0.505510 0.924876
Zn2   Zn    Zn3+2 0.625280 0.491710 0.494490 0.912854

loop_
_geom_bond_atom_site_label_1
_geom_bond_atom_site_label_2
_ccdc_geom_bond_type
O7    Zn2   S    
C6    C32   S    
C30   N4    A    
C34   C56   A    
C47   H43   S    
C29   N3    A    
C40   H26   S    
C35   C36   S    
C31   H4    S    
C18   H23   S    
C36   H9    S    
C15   O6    A    
C20   C30   S    
C53   C54   S    
C52   C53   S    
O5    Zn1   S    
C41   H28   S    
C46   H44   S    
C12   C23   S    
C12   O2    A    
C42   H38   S    
C39   H19   S    
N2    N4    A    
C19   C21   A    
C24   C26   A    
C7    C52   S    
C1    O1    A    
C25   C40   S    
C38   C39   S    
C53   H59   S    
N1    N3    A    
C14   O7    A    
C54   H55   S    
C43   H36   S    
C48   H41   S    
C31   H3    S    
N6    Zn2   S    
C19   H34   S    
C33   C35   S    
C3    C55   A    
C45   C56   A    
C22   C25   A    
C46   C55   S    
C39   H17   S    
C14   C27   S    
C5    C13   A    
C53   H58   S    
C49   H53   S    
C16   C27   A    
C35   H13   S    
C17   H12   S    
C50   H50   S    
C40   H25   S    
C22   C33   S    
C51   H49   S    
C1    C34   S    
C24   C37   S    
C4    C45   A    
C41   H29   S    
C37   H22   S    
C9    N6    A    
C42   H37   S    
C31   H5    S    
C32   H6    S    
C6    C11   A    
C5    C7    A    
C17   C19   A    
C6    C8    A    
C15   O8    A    
C38   H20   S    
C10   H64   S    
O4    Zn1   S    
C21   C29   S    
C50   H51   S    
C47   H42   S    
C16   H1    S    
C40   H27   S    
C2    C4    A    
C43   C44   S    
C3    C58   A    
C37   C38   S    
C48   H39   S    
C8    N5    A    
C47   C48   S    
C51   H47   S    
C54   H57   S    
C50   C51   S    
C54   H54   S    
C39   H18   S    
C29   N2    A    
C9    C11   A    
C44   H33   S    
C57   H62   S    
C33   H15   S    
C20   C22   A    
C35   H14   S    
C55   C57   A    
C7    N6    A    
C37   H24   S    
C42   C43   S    
C10   N5    A    
O2    Zn2   S    
C44   H32   S    
C36   H11   S    
C32   H8    S    
C23   C57   A    
C41   H30   S    
C46   C47   S    
C12   O4    A    
C17   C28   A    
O8    Zn1   S    
C1    O3    A    
C10   C13   A    
O6    Zn2   S    
C36   H10   S    
C14   O5    A    
C25   C27   A    
C48   H40   S    
C26   C28   A    
C9    H2    S    
C56   H63   S    
O3    Zn2   S    
C11   C13   A    
C15   C28   S    
C46   H46   S    
C2    H45   S    
C51   H48   S    
C43   H35   S    
C18   C20   A    
C58   H56   S    
C52   H61   S    
C33   H16   S    
O1    Zn1   S    
C30   N1    A    
C16   C18   A    
C49   C50   S    
C38   H21   S    
C21   C24   A    
C2    C23   A    
C34   C58   A    
C49   H52   S    
N5    Zn1   S    
C8    C49   S    
C42   C45   S    
C44   H31   S    
C3    C4    A    
C26   C41   S    
C32   H7    S    
C5    C31   S    
C52   H60   S    
