data_mof_unit_65835.cif
_audit_creation_date              2012-12-10T18:10:41-0500
_audit_creation_method            fapswitch 2.2
_symmetry_space_group_name_H-M    P1
_symmetry_Int_Tables_number       1
_space_group_crystal_system       triclinic
_cell_length_a                    21.58268
_cell_length_b                    21.585357
_cell_length_c                    35.68304
_cell_angle_alpha                 90.040551
_cell_angle_beta                  89.972891
_cell_angle_gamma                 90.002445
_cell_volume                      16623.6465538

loop_
_atom_site_label
_atom_site_type_symbol
_atom_type_description
_atom_site_fract_x
_atom_site_fract_y
_atom_site_fract_z
_atom_type_partial_charge
C1    C     C_R   0.499996 0.879858 0.999994 0.846757
C2    C     C_R   0.120130 0.500001 0.000003 0.844955
C3    C     C_R   0.500005 0.120142 0.999996 0.845472
C4    C     C_R   0.879869 0.499998 0.999998 0.844991
C5    C     C_R   0.999998 0.379866 0.500005 0.844979
C6    C     C_R   0.620121 0.000007 0.499944 0.844816
C7    C     C_R   0.000000 0.620134 0.499998 0.844942
C8    C     C_R   0.379879 0.999990 0.499955 0.846339
C9    C     C_1   0.504289 0.004571 0.732915 -0.068657
C10   C     C_1   0.999993 0.499934 0.733165 -0.068489
C11   C     C_1   0.499967 0.999965 0.266845 -0.068374
C12   C     C_1   0.000085 0.500095 0.266842 -0.068404
C13   C     C_1   0.000086 0.500103 0.233158 -0.068409
C14   C     C_1   0.499949 0.999985 0.233161 -0.068423
C15   C     C_1   0.000008 0.499918 0.766849 -0.068473
C16   C     C_1   0.503907 0.005315 0.766624 -0.055139
C17   C     C_R   0.537266 0.718312 0.025656 -0.184599
C18   C     C_R   0.281666 0.536719 0.025967 -0.184513
C19   C     C_R   0.462676 0.281756 0.025618 -0.185479
C20   C     C_R   0.718290 0.463230 0.025888 -0.184462
C21   C     C_R   0.537399 0.281699 0.974392 -0.185378
C22   C     C_R   0.281704 0.463254 0.974071 -0.184525
C23   C     C_R   0.462614 0.718241 0.974436 -0.185239
C24   C     C_R   0.718335 0.536718 0.974068 -0.184663
C25   C     C_R   0.036770 0.218342 0.525919 -0.184473
C26   C     C_R   0.781611 0.035992 0.526312 -0.183637
C27   C     C_R   0.963163 0.781718 0.525876 -0.184436
C28   C     C_R   0.218343 0.963966 0.526243 -0.183282
C29   C     C_R   0.036771 0.781660 0.474062 -0.184402
C30   C     C_R   0.781676 0.963861 0.473735 -0.183605
C31   C     C_R   0.963172 0.218278 0.474142 -0.184320
C32   C     C_R   0.218369 0.036066 0.473712 -0.183520
C33   C     C_R   0.379614 0.499998 0.000008 0.862935
C34   C     C_R   0.500004 0.379624 0.999992 0.863128
C35   C     C_R   0.620386 0.499994 0.999992 0.862935
C36   C     C_R   0.499992 0.620377 0.000013 0.862953
C37   C     C_R   0.879604 0.999975 0.500009 0.863235
C38   C     C_R   0.999992 0.879614 0.499988 0.863332
C39   C     C_R   0.120396 0.000015 0.499993 0.863313
C40   C     C_R   0.999995 0.120385 0.500011 0.863400
C41   C     C_R   0.537958 0.782298 0.025268 -0.197517
C42   C     C_R   0.217676 0.537407 0.025592 -0.198059
C43   C     C_R   0.462007 0.217771 0.025251 -0.195537
C44   C     C_R   0.782278 0.462558 0.025524 -0.198056
C45   C     C_R   0.538095 0.217713 0.974785 -0.198926
C46   C     C_R   0.217715 0.462581 0.974436 -0.198010
C47   C     C_R   0.461943 0.782224 0.974807 -0.197368
C48   C     C_R   0.782324 0.537406 0.974444 -0.198056
C49   C     C_R   0.037461 0.282328 0.525540 -0.197939
C50   C     C_R   0.717624 0.036719 0.525915 -0.197607
C51   C     C_R   0.962496 0.717735 0.525514 -0.198036
C52   C     C_R   0.282328 0.963251 0.525857 -0.197613
C53   C     C_R   0.037466 0.717674 0.474442 -0.197843
C54   C     C_R   0.717688 0.963225 0.474061 -0.199737
C55   C     C_R   0.962502 0.282261 0.474506 -0.197860
C56   C     C_R   0.282358 0.036713 0.474049 -0.199507
C57   C     C_R   0.500043 0.000245 0.926672 0.888337
C58   C     C_R   0.000002 0.499980 0.926740 0.887177
C59   C     C_R   0.499986 0.999998 0.073263 0.887644
C60   C     C_R   0.000006 0.500020 0.073261 0.887041
C61   C     C_R   0.000013 0.500006 0.426738 0.887150
C62   C     C_R   0.500002 0.999981 0.426740 0.886462
C63   C     C_R   0.999987 0.500000 0.573264 0.887017
C64   C     C_R   0.499883 0.000057 0.573195 0.890757
C65   C     C_R   0.499953 0.686582 0.000040 -0.010789
C66   C     C_R   0.313392 0.499985 0.000020 -0.011356
C67   C     C_R   0.500011 0.313421 0.999988 -0.010808
C68   C     C_R   0.686606 0.499975 0.999978 -0.011263
C69   C     C_R   0.999971 0.186604 0.500031 -0.011438
C70   C     C_R   0.813363 0.999931 0.500027 -0.012122
C71   C     C_R   0.999967 0.813395 0.499968 -0.011373
C72   C     C_R   0.186636 0.000018 0.499982 -0.012205
C73   C     C_R   0.499975 0.813837 0.000021 -0.012651
C74   C     C_R   0.186133 0.500000 0.000010 -0.011906
C75   C     C_R   0.500029 0.186165 0.000009 -0.009755
C76   C     C_R   0.813865 0.499991 0.999989 -0.011865
C77   C     C_R   0.999990 0.313860 0.500016 -0.011965
C78   C     C_R   0.686107 0.000020 0.499955 -0.014668
C79   C     C_R   0.999994 0.686140 0.499987 -0.011953
C80   C     C_R   0.313892 0.999950 0.499933 -0.016313
C81   C     C_R   0.550228 0.970346 0.672753 0.080650
C82   C     C_R   0.038162 0.542486 0.673237 0.080417
C83   C     C_R   0.456056 0.035344 0.673108 0.080988
C84   C     C_R   0.961778 0.457458 0.673214 0.080494
C85   C     C_R   0.542682 0.037947 0.326787 0.080425
C86   C     C_R   0.038163 0.457470 0.326750 0.080526
C87   C     C_R   0.457327 0.961926 0.326785 0.080460
C88   C     C_R   0.961993 0.542684 0.326814 0.080497
C89   C     C_R   0.042670 0.461997 0.173189 0.080485
C90   C     C_R   0.538073 0.042576 0.173232 0.080493
C91   C     C_R   0.957492 0.538211 0.173249 0.080523
C92   C     C_R   0.461799 0.957451 0.173210 0.080505
C93   C     C_R   0.042725 0.537900 0.826790 0.080376
C94   C     C_R   0.547046 0.968666 0.826737 0.144081
C95   C     C_R   0.957334 0.461916 0.826788 0.080416
C96   C     C_R   0.459453 0.041753 0.826630 0.070432
C97   C     C_R   0.551729 0.973517 0.633129 0.024251
C98   C     C_R   0.033727 0.546295 0.633749 0.026115
C99   C     C_R   0.451541 0.029112 0.633743 0.026062
C100  C     C_R   0.966198 0.453686 0.633717 0.026039
C101  C     C_R   0.546466 0.033498 0.366275 0.026149
C102  C     C_R   0.033710 0.453667 0.366240 0.026066
C103  C     C_R   0.453560 0.966375 0.366281 0.026076
C104  C     C_R   0.966414 0.546440 0.366308 0.026099
C105  C     C_R   0.046429 0.466411 0.133696 0.026099
C106  C     C_R   0.533644 0.046365 0.133742 0.026088
C107  C     C_R   0.953689 0.533760 0.133757 0.026025
C108  C     C_R   0.466256 0.953655 0.133716 0.026093
C109  C     C_R   0.046491 0.533468 0.866279 0.026026
C110  C     C_R   0.540181 0.960838 0.865802 0.020634
C111  C     C_R   0.953560 0.466376 0.866283 0.026001
C112  C     C_R   0.462375 0.044806 0.866229 0.026156
C113  C     C_R   0.500838 0.000446 0.614097 -0.151924
C114  C     C_R   0.999963 0.499998 0.614282 -0.160212
C115  C     C_R   0.500013 0.999942 0.385726 -0.159576
C116  C     C_R   0.000045 0.500036 0.385723 -0.160042
C117  C     C_R   0.000041 0.500065 0.114277 -0.160059
C118  C     C_R   0.499957 0.000009 0.114279 -0.160264
C119  C     C_R   0.000020 0.499936 0.885728 -0.159948
C120  C     C_R   0.500464 0.001739 0.885565 -0.170907
C121  C     C_R   0.503700 0.003471 0.692429 0.027352
C122  C     C_R   0.999977 0.499960 0.692703 0.027391
C123  C     C_R   0.499994 0.999943 0.307308 0.027435
C124  C     C_R   0.000081 0.500083 0.307305 0.027453
C125  C     C_R   0.000084 0.500105 0.192696 0.027449
C126  C     C_R   0.499935 0.000010 0.192699 0.027472
C127  C     C_R   0.000026 0.499908 0.807311 0.027382
C128  C     C_R   0.503472 0.005338 0.807120 0.021489
H1    H     H_    0.566363 0.693607 0.045368 0.142496
H2    H     H_    0.306374 0.565367 0.045941 0.142944
H3    H     H_    0.433555 0.306511 0.045332 0.142579
H4    H     H_    0.693551 0.434571 0.045832 0.142965
H5    H     H_    0.566531 0.306408 0.954684 0.142869
H6    H     H_    0.306439 0.434606 0.954097 0.142902
H7    H     H_    0.433511 0.693483 0.954730 0.142545
H8    H     H_    0.693630 0.565375 0.954123 0.142769
H9    H     H_    0.065470 0.193648 0.545847 0.142955
H10   H     H_    0.806291 0.064116 0.546568 0.143124
H11   H     H_    0.934457 0.806460 0.545817 0.142828
H12   H     H_    0.193629 0.935856 0.546481 0.143254
H13   H     H_    0.065472 0.806357 0.454119 0.142895
H14   H     H_    0.806406 0.935700 0.453508 0.143406
H15   H     H_    0.934473 0.193534 0.454214 0.142937
H16   H     H_    0.193672 0.064216 0.453502 0.143394
H17   H     H_    0.567133 0.807175 0.044885 0.136844
H18   H     H_    0.192797 0.566119 0.045472 0.136346
H19   H     H_    0.432818 0.192948 0.044882 0.136344
H20   H     H_    0.807122 0.433842 0.045380 0.136430
H21   H     H_    0.567318 0.192844 0.955175 0.137982
H22   H     H_    0.192868 0.433875 0.954550 0.136306
H23   H     H_    0.432760 0.807041 0.955188 0.136732
H24   H     H_    0.807205 0.566126 0.954591 0.136213
H25   H     H_    0.066227 0.307212 0.545374 0.136416
H26   H     H_    0.692725 0.064904 0.546061 0.135474
H27   H     H_    0.933733 0.692901 0.545368 0.136326
H28   H     H_    0.307188 0.935086 0.545993 0.135737
H29   H     H_    0.066236 0.692792 0.454594 0.136388
H30   H     H_    0.692838 0.935031 0.453910 0.136353
H31   H     H_    0.933743 0.307092 0.454665 0.136440
H32   H     H_    0.307245 0.064900 0.453922 0.136518
O1    O     O_R   0.448380 0.908480 0.999900 -0.625428
O2    O     O_R   0.091520 0.448380 0.999900 -0.625991
O3    O     O_R   0.551620 0.091520 0.999900 -0.626201
O4    O     O_R   0.908480 0.551620 0.999900 -0.626082
O5    O     O_R   0.448380 0.091520 0.000100 -0.629173
O6    O     O_R   0.091520 0.551620 0.000100 -0.625924
O7    O     O_R   0.551620 0.908480 0.000100 -0.629522
O8    O     O_R   0.908480 0.448380 0.000100 -0.625900
O9    O     O_R   0.948380 0.408480 0.499900 -0.626035
O10   O     O_R   0.591520 0.948380 0.499900 -0.623106
O11   O     O_R   0.051620 0.591520 0.499900 -0.626024
O12   O     O_R   0.408480 0.051620 0.499900 -0.622746
O13   O     O_R   0.948380 0.591520 0.500100 -0.625986
O14   O     O_R   0.591520 0.051620 0.500100 -0.626125
O15   O     O_R   0.051620 0.408480 0.500100 -0.626007
O16   O     O_R   0.408480 0.948380 0.500100 -0.626162
O17   O     O_R   0.448380 0.000100 0.944450 -0.621683
O18   O     O_R   0.999900 0.448380 0.944450 -0.622670
O19   O     O_R   0.551620 0.999900 0.944450 -0.617198
O20   O     O_R   0.000100 0.551620 0.944450 -0.622743
O21   O     O_R   0.448380 0.999900 0.055550 -0.622600
O22   O     O_R   0.999900 0.551620 0.055550 -0.622599
O23   O     O_R   0.551620 0.000100 0.055550 -0.622441
O24   O     O_R   0.000100 0.448380 0.055550 -0.622614
O25   O     O_R   0.948380 0.500100 0.444450 -0.622648
O26   O     O_R   0.499900 0.948380 0.444450 -0.623033
O27   O     O_R   0.051620 0.499900 0.444450 -0.622600
O28   O     O_R   0.500100 0.051620 0.444450 -0.623033
O29   O     O_R   0.948380 0.499900 0.555550 -0.622620
O30   O     O_R   0.499900 0.051620 0.555550 -0.625170
O31   O     O_R   0.051620 0.500100 0.555550 -0.622560
O32   O     O_R   0.500100 0.948380 0.555550 -0.625078
O33   O     O_R   0.408370 0.500100 0.031180 -0.624774
O34   O     O_R   0.499900 0.408370 0.031180 -0.624636
O35   O     O_R   0.591630 0.499900 0.031180 -0.624763
O36   O     O_R   0.500100 0.591630 0.031180 -0.624613
O37   O     O_R   0.408370 0.499900 0.968820 -0.624788
O38   O     O_R   0.499900 0.591630 0.968820 -0.624666
O39   O     O_R   0.591630 0.500100 0.968820 -0.624796
O40   O     O_R   0.500100 0.408370 0.968820 -0.624553
O41   O     O_R   0.908370 0.000100 0.531180 -0.625143
O42   O     O_R   0.999900 0.908370 0.531180 -0.624811
O43   O     O_R   0.091630 0.999900 0.531180 -0.624990
O44   O     O_R   0.000100 0.091630 0.531180 -0.624754
O45   O     O_R   0.908370 0.999900 0.468820 -0.624828
O46   O     O_R   0.999900 0.091630 0.468820 -0.624682
O47   O     O_R   0.091630 0.000100 0.468820 -0.624849
O48   O     O_R   0.000100 0.908370 0.468820 -0.624705
Zn1   Zn    Zn3+2 0.431030 0.000000 0.000000 0.921830
Zn2   Zn    Zn3+2 1.000000 0.431030 0.000000 0.923844
Zn3   Zn    Zn3+2 0.568970 0.000000 0.000000 0.923167
Zn4   Zn    Zn3+2 1.000000 0.568970 0.000000 0.923616
Zn5   Zn    Zn3+2 0.931030 0.500000 0.500000 0.923829
Zn6   Zn    Zn3+2 0.500000 0.931030 0.500000 0.924874
Zn7   Zn    Zn3+2 0.068970 0.500000 0.500000 0.923890
Zn8   Zn    Zn3+2 0.500000 0.068970 0.500000 0.924603
Zn9   Zn    Zn3+2 0.500000 0.500000 0.041690 0.940744
Zn10  Zn    Zn3+2 0.500000 0.500000 0.958310 0.940649
Zn11  Zn    Zn3+2 1.000000 0.000000 0.541690 0.939877
Zn12  Zn    Zn3+2 1.000000 0.000000 0.458310 0.940535
C129  C     C_3   0.596864 0.930995 0.694293 -0.415699
C130  C     C_3   0.567012 0.870038 0.707356 -0.341455
C131  C     C_3   0.615366 0.825105 0.722728 -0.920535
H33   H     H_    0.648064 0.811237 0.700182 0.262368
H34   H     H_    0.641902 0.846694 0.745951 0.260131
H35   H     H_    0.591959 0.782902 0.733486 0.252479
H36   H     H_    0.531894 0.879330 0.729396 0.221950
H37   H     H_    0.542857 0.847389 0.683495 0.220030
H38   H     H_    0.638682 0.919761 0.677850 0.208712
H39   H     H_    0.615172 0.957518 0.718324 0.192270
C132  C     C_3   0.085424 0.581007 0.694792 -0.418160
C133  C     C_3   0.143295 0.541865 0.703220 -0.338237
C134  C     C_3   0.196748 0.581452 0.717782 -0.920998
H40   H     H_    0.210038 0.616764 0.696626 0.261255
H41   H     H_    0.183740 0.605052 0.744238 0.265914
H42   H     H_    0.237498 0.551447 0.723338 0.252762
H43   H     H_    0.132024 0.505710 0.724287 0.220940
H44   H     H_    0.158954 0.517825 0.677333 0.220497
H45   H     H_    0.099263 0.623599 0.679869 0.204025
H46   H     H_    0.064596 0.598429 0.721033 0.206621
C135  C     C_3   0.412590 0.078174 0.694657 -0.419303
C136  C     C_3   0.445037 0.140109 0.703020 -0.338002
C137  C     C_3   0.399629 0.188992 0.717268 -0.920766
H47   H     H_    0.363432 0.198257 0.695876 0.261708
H48   H     H_    0.377131 0.173596 0.743595 0.265710
H49   H     H_    0.424928 0.232790 0.722941 0.252893
H50   H     H_    0.482023 0.133190 0.724241 0.222154
H51   H     H_    0.467437 0.158068 0.677156 0.220614
H52   H     H_    0.368733 0.087281 0.679743 0.206188
H53   H     H_    0.397653 0.055570 0.720902 0.205975
C138  C     C_3   0.914531 0.418911 0.694760 -0.417943
C139  C     C_3   0.856675 0.458050 0.703300 -0.338705
C140  C     C_3   0.803233 0.418446 0.717858 -0.920700
H54   H     H_    0.789905 0.383181 0.696660 0.261329
H55   H     H_    0.816275 0.394789 0.744262 0.265937
H56   H     H_    0.762498 0.448449 0.723506 0.252665
H57   H     H_    0.867975 0.494169 0.724408 0.220853
H58   H     H_    0.840992 0.482132 0.677462 0.220442
H59   H     H_    0.900661 0.376349 0.679787 0.204077
H60   H     H_    0.935382 0.401443 0.720957 0.206630
C141  C     C_3   0.581400 0.085050 0.305248 -0.418079
C142  C     C_3   0.542485 0.143072 0.296825 -0.338386
C143  C     C_3   0.582290 0.196365 0.282284 -0.920749
H61   H     H_    0.617661 0.209503 0.303448 0.261264
H62   H     H_    0.605838 0.183275 0.255827 0.265934
H63   H     H_    0.552446 0.237233 0.276737 0.252795
H64   H     H_    0.506284 0.131952 0.275749 0.220947
H65   H     H_    0.518499 0.158818 0.322711 0.220525
H66   H     H_    0.624048 0.098715 0.320186 0.204109
H67   H     H_    0.598745 0.064159 0.279006 0.206622
C144  C     C_3   0.085335 0.418840 0.305169 -0.418113
C145  C     C_3   0.143283 0.457860 0.296685 -0.338432
C146  C     C_3   0.196644 0.418154 0.282091 -0.920731
H68   H     H_    0.209880 0.382840 0.303249 0.261260
H69   H     H_    0.183564 0.394551 0.255656 0.265910
H70   H     H_    0.237450 0.448074 0.276488 0.252795
H71   H     H_    0.132076 0.494022 0.275617 0.220969
H72   H     H_    0.159007 0.481887 0.322554 0.220514
H73   H     H_    0.099102 0.376236 0.320095 0.204110
H74   H     H_    0.064455 0.401438 0.278949 0.206640
C147  C     C_3   0.418598 0.914826 0.305231 -0.418120
C148  C     C_3   0.457527 0.856832 0.296691 -0.338409
C149  C     C_3   0.417722 0.803541 0.282122 -0.920717
H75   H     H_    0.382397 0.790354 0.303311 0.261278
H76   H     H_    0.394119 0.816663 0.255713 0.265904
H77   H     H_    0.447577 0.762697 0.276479 0.252793
H78   H     H_    0.493695 0.867992 0.275591 0.220967
H79   H     H_    0.481552 0.841064 0.322532 0.220519
H80   H     H_    0.375984 0.901116 0.320200 0.204162
H81   H     H_    0.401204 0.935737 0.279032 0.206631
C150  C     C_3   0.914851 0.581354 0.305296 -0.418111
C151  C     C_3   0.856888 0.542369 0.296789 -0.338418
C152  C     C_3   0.803551 0.582114 0.282268 -0.920742
H82   H     H_    0.790319 0.617409 0.303477 0.261269
H83   H     H_    0.816653 0.605745 0.255858 0.265909
H84   H     H_    0.762735 0.552219 0.276642 0.252795
H85   H     H_    0.868086 0.506222 0.275673 0.220964
H86   H     H_    0.841143 0.518322 0.322635 0.220515
H87   H     H_    0.901100 0.623953 0.320277 0.204138
H88   H     H_    0.935752 0.598767 0.279086 0.206624
C153  C     C_3   0.081316 0.414840 0.194708 -0.418072
C154  C     C_3   0.042298 0.356899 0.203190 -0.338411
C155  C     C_3   0.082020 0.303547 0.217710 -0.920809
H89   H     H_    0.117324 0.290311 0.196508 0.261253
H90   H     H_    0.105646 0.316629 0.244130 0.265925
H91   H     H_    0.052101 0.262747 0.223315 0.252780
H92   H     H_    0.006145 0.368107 0.224299 0.220958
H93   H     H_    0.018250 0.341173 0.177334 0.220499
H94   H     H_    0.123922 0.401079 0.179736 0.204105
H95   H     H_    0.098730 0.435724 0.220926 0.206621
C156  C     C_3   0.585294 0.081150 0.194784 -0.418056
C157  C     C_3   0.643212 0.042071 0.203204 -0.338407
C158  C     C_3   0.696626 0.081714 0.217763 -0.920833
H96   H     H_    0.709864 0.117052 0.196611 0.261252
H97   H     H_    0.683604 0.105284 0.244226 0.265942
H98   H     H_    0.737415 0.051754 0.223305 0.252766
H99   H     H_    0.631987 0.005900 0.224269 0.220946
H100  H     H_    0.658891 0.018053 0.177313 0.220489
H101  H     H_    0.599080 0.123758 0.179859 0.204078
H102  H     H_    0.564455 0.098545 0.221029 0.206634
C159  C     C_3   0.918882 0.585398 0.194831 -0.418098
C160  C     C_3   0.957942 0.643311 0.203338 -0.338428
C161  C     C_3   0.918261 0.696687 0.217935 -0.920813
H103  H     H_    0.882961 0.709953 0.196770 0.261245
H104  H     H_    0.894634 0.683615 0.244359 0.265918
H105  H     H_    0.948210 0.737466 0.223559 0.252778
H106  H     H_    0.994096 0.632078 0.224412 0.220974
H107  H     H_    0.981989 0.659025 0.177479 0.220489
H108  H     H_    0.876286 0.599195 0.179899 0.204107
H109  H     H_    0.901458 0.564526 0.221043 0.206641
C162  C     C_3   0.414576 0.918867 0.194750 -0.418174
C163  C     C_3   0.356687 0.957961 0.203281 -0.338412
C164  C     C_3   0.303271 0.918321 0.217836 -0.920768
H110  H     H_    0.289974 0.883043 0.196638 0.261287
H111  H     H_    0.316324 0.894677 0.244242 0.265913
H112  H     H_    0.262512 0.948294 0.223479 0.252767
H113  H     H_    0.367950 0.994095 0.224387 0.220974
H114  H     H_    0.340992 0.982024 0.177438 0.220503
H115  H     H_    0.400742 0.876296 0.179775 0.204213
H116  H     H_    0.435433 0.901419 0.220951 0.206641
C165  C     C_3   0.081481 0.584969 0.805248 -0.417720
C166  C     C_3   0.042603 0.643006 0.796801 -0.338590
C167  C     C_3   0.082451 0.696269 0.782259 -0.921683
H117  H     H_    0.117802 0.709408 0.803435 0.261276
H118  H     H_    0.106027 0.683144 0.755818 0.266056
H119  H     H_    0.052632 0.737145 0.776686 0.252399
H120  H     H_    0.006413 0.631894 0.775717 0.220775
H121  H     H_    0.018604 0.658781 0.822676 0.220264
H122  H     H_    0.124125 0.598624 0.820192 0.204076
H123  H     H_    0.098831 0.564048 0.779015 0.206593
C168  C     C_3   0.602463 0.941028 0.806271 -0.408719
C169  C     C_3   0.659661 0.983617 0.808431 -0.357347
C170  C     C_3   0.651128 0.045258 0.787996 -0.826871
H124  H     H_    0.638434 0.037695 0.758273 0.250191
H125  H     H_    0.614848 0.073613 0.801868 0.261632
H126  H     H_    0.695240 0.071685 0.788832 0.232826
H127  H     H_    0.671262 0.993956 0.838064 0.216676
H128  H     H_    0.699769 0.958940 0.795811 0.202548
H129  H     H_    0.614596 0.894682 0.817215 0.161247
H130  H     H_    0.591505 0.931586 0.776767 0.209553
C171  C     C_3   0.918577 0.414840 0.805233 -0.418110
C172  C     C_3   0.957468 0.356823 0.796687 -0.338210
C173  C     C_3   0.917625 0.303559 0.782120 -0.921247
H131  H     H_    0.882301 0.290387 0.803314 0.261262
H132  H     H_    0.894017 0.316700 0.755716 0.265972
H133  H     H_    0.947453 0.262698 0.776470 0.252651
H134  H     H_    0.993636 0.367963 0.775583 0.220947
H135  H     H_    0.981492 0.341038 0.822524 0.220440
H136  H     H_    0.875957 0.401151 0.820203 0.204179
H137  H     H_    0.901192 0.435767 0.779038 0.206598
C174  C     C_3   0.408212 0.074570 0.805027 -0.414889
C175  C     C_3   0.355268 0.029043 0.796507 -0.339773
C176  C     C_3   0.297836 0.062198 0.781647 -0.920731
H138  H     H_    0.280326 0.095849 0.802698 0.260625
H139  H     H_    0.308410 0.087039 0.755230 0.265840
H140  H     H_    0.260855 0.027709 0.775937 0.252739
H141  H     H_    0.370844 0.994242 0.775574 0.219861
H142  H     H_    0.342166 0.003595 0.822400 0.220499
H143  H     H_    0.389655 0.115372 0.819946 0.202505
H144  H     H_    0.426959 0.094218 0.778807 0.206779
C177  C     C_3   0.608927 0.952617 0.611061 -0.390608
C178  C     C_3   0.609259 0.882563 0.603275 -0.323510
C179  C     C_3   0.666131 0.863957 0.580453 -0.875524
H145  H     H_    0.666404 0.888242 0.553038 0.280922
H146  H     H_    0.709168 0.875622 0.595996 0.257015
H147  H     H_    0.665307 0.813245 0.575246 0.242778
H148  H     H_    0.609555 0.855914 0.629772 0.219370
H149  H     H_    0.567018 0.869047 0.587576 0.243965
H150  H     H_    0.612353 0.977602 0.583971 0.190400
H151  H     H_    0.651893 0.967095 0.625727 0.180142
C180  C     C_3   0.060171 0.601999 0.612522 -0.382942
C181  C     C_3   0.129602 0.595307 0.603607 -0.319378
C182  C     C_3   0.152085 0.648400 0.578856 -0.879641
H152  H     H_    0.126742 0.648591 0.551787 0.282519
H153  H     H_    0.144856 0.693492 0.593232 0.257022
H154  H     H_    0.202303 0.642710 0.573023 0.241703
H155  H     H_    0.157500 0.595538 0.629610 0.218851
H156  H     H_    0.138768 0.550799 0.589087 0.243078
H157  H     H_    0.034409 0.609699 0.586005 0.193471
H158  H     H_    0.051355 0.645378 0.628375 0.177639
C183  C     C_3   0.392728 0.048464 0.612786 -0.391148
C184  C     C_3   0.391478 0.117856 0.603065 -0.324905
C185  C     C_3   0.333541 0.134221 0.580644 -0.874853
H159  H     H_    0.332435 0.107921 0.553911 0.280617
H160  H     H_    0.291245 0.123341 0.597125 0.256933
H161  H     H_    0.333644 0.184499 0.574090 0.243156
H162  H     H_    0.391864 0.146567 0.628763 0.220899
H163  H     H_    0.432928 0.130601 0.586402 0.245329
H164  H     H_    0.387395 0.021328 0.586538 0.188276
H165  H     H_    0.351010 0.035305 0.629153 0.181445
C186  C     C_3   0.939742 0.398005 0.612443 -0.382833
C187  C     C_3   0.870314 0.404728 0.603576 -0.319495
C188  C     C_3   0.847797 0.351628 0.578810 -0.879533
H166  H     H_    0.873134 0.351402 0.551724 0.282514
H167  H     H_    0.855005 0.306543 0.593155 0.257050
H168  H     H_    0.797581 0.357340 0.573013 0.241688
H169  H     H_    0.842421 0.404537 0.629598 0.218861
H170  H     H_    0.861173 0.449230 0.589086 0.243036
H171  H     H_    0.965500 0.390315 0.585903 0.193502
H172  H     H_    0.948546 0.354611 0.628242 0.177747
C189  C     C_3   0.602291 0.059683 0.387520 -0.383138
C190  C     C_3   0.595909 0.129129 0.396456 -0.319658
C191  C     C_3   0.649193 0.151390 0.421145 -0.879260
H173  H     H_    0.649400 0.126029 0.448203 0.282611
H174  H     H_    0.694205 0.144001 0.406707 0.257017
H175  H     H_    0.643717 0.201618 0.427007 0.241701
H176  H     H_    0.596151 0.157029 0.370459 0.218918
H177  H     H_    0.551490 0.138466 0.411035 0.243189
H178  H     H_    0.609869 0.033885 0.414033 0.193160
H179  H     H_    0.645635 0.050680 0.371669 0.177857
C192  C     C_3   0.060035 0.397916 0.387457 -0.383026
C193  C     C_3   0.129471 0.404492 0.396347 -0.319483
C194  C     C_3   0.151860 0.351328 0.421059 -0.879652
H180  H     H_    0.126506 0.351134 0.448138 0.282473
H181  H     H_    0.144566 0.306268 0.406662 0.257075
H182  H     H_    0.202085 0.356934 0.426874 0.241677
H183  H     H_    0.157379 0.404261 0.370330 0.218883
H184  H     H_    0.138696 0.448964 0.410889 0.243088
H185  H     H_    0.034248 0.390262 0.413985 0.193406
H186  H     H_    0.051147 0.354552 0.371608 0.177821
C195  C     C_3   0.397748 0.940184 0.387543 -0.383167
C196  C     C_3   0.404165 0.870748 0.396431 -0.319687
C197  C     C_3   0.350846 0.848458 0.421094 -0.879218
H187  H     H_    0.350554 0.873845 0.448165 0.282578
H188  H     H_    0.305861 0.855788 0.406647 0.257014
H189  H     H_    0.356359 0.798241 0.426932 0.241707
H190  H     H_    0.404004 0.842838 0.370412 0.218910
H191  H     H_    0.448560 0.861456 0.411013 0.243176
H192  H     H_    0.390160 0.965993 0.414076 0.193149
H193  H     H_    0.354398 0.949160 0.371725 0.177910
C198  C     C_3   0.940128 0.602199 0.387598 -0.382988
C199  C     C_3   0.870678 0.595697 0.396504 -0.319523
C200  C     C_3   0.848309 0.648939 0.421219 -0.879619
H194  H     H_    0.873654 0.649194 0.448287 0.282494
H195  H     H_    0.855631 0.693956 0.406813 0.257070
H196  H     H_    0.798079 0.643376 0.427057 0.241683
H197  H     H_    0.842792 0.595883 0.370495 0.218903
H198  H     H_    0.861407 0.551269 0.411050 0.243153
H199  H     H_    0.965902 0.609805 0.414127 0.193356
H200  H     H_    0.949074 0.645564 0.371794 0.177876
C201  C     C_3   0.102174 0.440081 0.112410 -0.382915
C202  C     C_3   0.095621 0.370640 0.103506 -0.319479
C203  C     C_3   0.148803 0.348243 0.078752 -0.879664
H201  H     H_    0.148993 0.373562 0.051680 0.282559
H202  H     H_    0.193864 0.355567 0.093121 0.257048
H203  H     H_    0.143213 0.298016 0.072925 0.241655
H204  H     H_    0.095860 0.342765 0.129513 0.218878
H205  H     H_    0.051149 0.361382 0.088992 0.243114
H206  H     H_    0.109794 0.465838 0.085883 0.193392
H207  H     H_    0.145554 0.449002 0.128217 0.177816
C204  C     C_3   0.560003 0.102104 0.112511 -0.382877
C205  C     C_3   0.629442 0.095516 0.103591 -0.319501
C206  C     C_3   0.651852 0.148673 0.078867 -0.879958
H208  H     H_    0.626503 0.148871 0.051800 0.282429
H209  H     H_    0.644570 0.193735 0.093266 0.257099
H210  H     H_    0.702076 0.143055 0.073026 0.241626
H211  H     H_    0.657342 0.095749 0.129594 0.218883
H212  H     H_    0.638666 0.051041 0.089049 0.243067
H213  H     H_    0.534227 0.109760 0.085995 0.193433
H214  H     H_    0.551126 0.145471 0.128364 0.177841
C207  C     C_3   0.897952 0.560125 0.112535 -0.382929
C208  C     C_3   0.904584 0.629548 0.103658 -0.319354
C209  C     C_3   0.851444 0.651975 0.078932 -0.880018
H215  H     H_    0.851247 0.626625 0.051848 0.282504
H216  H     H_    0.806366 0.644715 0.093312 0.257084
H217  H     H_    0.857092 0.702190 0.073126 0.241564
H218  H     H_    0.904361 0.657451 0.129679 0.218846
H219  H     H_    0.949077 0.638740 0.089133 0.243041
H220  H     H_    0.890279 0.534347 0.086002 0.193433
H221  H     H_    0.854574 0.551271 0.128374 0.177791
C210  C     C_3   0.439967 0.897882 0.112455 -0.382951
C211  C     C_3   0.370539 0.904409 0.103535 -0.319553
C212  C     C_3   0.348141 0.851019 0.078957 -0.879915
H222  H     H_    0.373592 0.850492 0.051911 0.282302
H223  H     H_    0.355307 0.806105 0.093504 0.257053
H224  H     H_    0.297947 0.856645 0.073062 0.241709
H225  H     H_    0.342608 0.904455 0.129542 0.218887
H226  H     H_    0.361351 0.948740 0.088870 0.243238
H227  H     H_    0.465785 0.890215 0.085934 0.193370
H228  H     H_    0.448851 0.854541 0.128291 0.178031
C213  C     C_3   0.102314 0.559647 0.887529 -0.382938
C214  C     C_3   0.095947 0.629099 0.896451 -0.319720
C215  C     C_3   0.149233 0.651363 0.921138 -0.879965
H229  H     H_    0.149428 0.626020 0.948202 0.282563
H230  H     H_    0.194245 0.643953 0.906704 0.257015
H231  H     H_    0.143768 0.701596 0.926987 0.241548
H232  H     H_    0.096198 0.656984 0.870448 0.218861
H233  H     H_    0.051528 0.638452 0.911026 0.243069
H234  H     H_    0.109874 0.533862 0.914048 0.193271
H235  H     H_    0.145663 0.550623 0.871688 0.177844
C216  C     C_3   0.566934 0.903570 0.885360 -0.379947
C217  C     C_3   0.635161 0.910365 0.897177 -0.319204
C218  C     C_3   0.654083 0.859192 0.924378 -0.875775
H236  H     H_    0.626165 0.861730 0.950417 0.286360
H237  H     H_    0.647424 0.813003 0.911228 0.256069
H238  H     H_    0.703724 0.864584 0.931865 0.238835
H239  H     H_    0.665951 0.906548 0.872503 0.202713
H240  H     H_    0.643408 0.956084 0.910503 0.241674
H241  H     H_    0.538526 0.891783 0.910335 0.194449
H242  H     H_    0.561588 0.862308 0.867026 0.175132
C219  C     C_3   0.897742 0.440197 0.887545 -0.383158
C220  C     C_3   0.904142 0.370758 0.896430 -0.319583
C221  C     C_3   0.850820 0.348477 0.921093 -0.879621
H243  H     H_    0.850542 0.373851 0.948169 0.282455
H244  H     H_    0.805834 0.355830 0.906651 0.257108
H245  H     H_    0.856315 0.298254 0.926922 0.241623
H246  H     H_    0.903974 0.342852 0.870410 0.218892
H247  H     H_    0.948537 0.361455 0.911011 0.243124
H248  H     H_    0.890161 0.466004 0.914080 0.193252
H249  H     H_    0.854394 0.449187 0.871729 0.177871
C222  C     C_3   0.428980 0.096344 0.887706 -0.374154
C223  C     C_3   0.360625 0.081030 0.895799 -0.315381
C224  C     C_3   0.332448 0.127620 0.923110 -0.882315
H250  H     H_    0.357058 0.126040 0.950408 0.283407
H251  H     H_    0.335482 0.175222 0.911439 0.257148
H252  H     H_    0.282924 0.116168 0.927925 0.239806
H253  H     H_    0.333010 0.082170 0.869686 0.217008
H254  H     H_    0.356149 0.033822 0.907779 0.240397
H255  H     H_    0.453254 0.106442 0.914447 0.199356
H256  H     H_    0.432766 0.140910 0.872379 0.173913

loop_
_geom_bond_atom_site_label_1
_geom_bond_atom_site_label_2
_ccdc_geom_bond_type
C177  H151  S    
C60   O24   A    
C82   C132  S    
O45   Zn12  S    
O40   Zn10  S    
C131  H33   S    
C110  C216  S    
C204  H214  S    
C131  H35   S    
C139  H58   S    
C155  H90   S    
C172  H135  S    
C153  C154  S    
C206  H210  S    
C101  C189  S    
C148  C149  S    
C178  C179  S    
C49   H25   S    
C185  H160  S    
C7    O11   A    
C166  H120  S    
C26   C50   A    
C98   C114  A    
C1    O7    A    
C208  H218  S    
C154  H93   S    
C146  H70   S    
C159  H108  S    
C175  C176  S    
C211  H226  S    
C205  H211  S    
C20   C44   A    
C104  C116  A    
C150  C151  S    
C145  C146  S    
C9    C121  S    
C60   O22   A    
C95   C171  S    
C217  C218  S    
C183  H164  S    
C34   O34   A    
C144  H73   S    
C201  H206  S    
C188  H167  S    
C15   C127  S    
C106  C118  A    
C107  C117  A    
C82   C98   A    
C151  H85   S    
O38   Zn10  S    
O39   Zn10  S    
C20   H4    S    
C107  C207  S    
C21   H5    S    
C170  H125  S    
C191  H175  S    
O27   Zn7   S    
C215  H230  S    
C43   C75   A    
C94   C168  S    
O44   Zn11  S    
C203  H201  S    
C84   C100  A    
C91   C107  A    
C171  H137  S    
C143  H61   S    
C135  H52   S    
O41   Zn11  S    
C191  H174  S    
C176  H140  S    
C112  C120  A    
C166  C167  S    
C214  H233  S    
C6    O14   A    
C164  H110  S    
C4    O8    A    
C81   C121  A    
C29   C53   A    
C200  H196  S    
O13   Zn5   S    
C138  H60   S    
C155  H89   S    
C194  H182  S    
C169  C170  S    
O22   Zn4   S    
C90   C126  A    
C60   C117  S    
C163  C164  S    
C184  H163  S    
C193  C194  S    
C147  C148  S    
C212  H223  S    
C177  C178  S    
C101  C115  A    
C18   H2    S    
C25   C69   A    
C5    C77   S    
C179  H145  S    
C27   C71   A    
C7    C79   S    
C164  H112  S    
C143  H62   S    
C145  H72   S    
C91   C125  A    
C20   C68   A    
C192  C193  S    
C195  H192  S    
C10   C122  S    
O9    Zn5   S    
C182  H152  S    
C14   C126  S    
C207  H220  S    
C206  H208  S    
C220  H247  S    
C216  H242  S    
C162  H115  S    
C130  H36   S    
O4    Zn4   S    
C58   C119  S    
C85   C123  A    
C196  H191  S    
C199  H198  S    
C136  H51   S    
C32   H16   S    
C34   O40   A    
C209  H217  S    
C223  C224  S    
C97   C177  S    
C159  C160  S    
C38   O42   A    
C138  H59   S    
C58   O20   A    
C161  H104  S    
O12   Zn8   S    
C82   C122  A    
C174  C175  S    
C139  C140  S    
C29   C71   A    
C33   O33   A    
C222  H256  S    
C189  C190  S    
C217  H240  S    
C48   C76   A    
C168  C169  S    
C110  C120  A    
C88   C124  A    
C2    O2    A    
C87   C147  S    
C183  C184  S    
C35   O39   A    
C201  C202  S    
C193  H184  S    
C30   C54   A    
C51   H27   S    
C129  C130  S    
C187  C188  S    
C86   C144  S    
C18   C42   A    
C141  C142  S    
C221  H245  S    
C6    C78   S    
C198  H199  S    
C172  C173  S    
C189  H178  S    
C157  C158  S    
O18   Zn2   S    
C111  C119  A    
C135  C136  S    
O20   Zn4   S    
C202  H204  S    
C92   C108  A    
C160  H107  S    
C40   O44   A    
C129  H39   S    
C105  C201  S    
C33   O37   A    
C3    C75   S    
C134  H40   S    
C141  H66   S    
C89   C153  S    
C62   O26   A    
O6    Zn4   S    
C24   H8    S    
C144  C145  S    
C187  H170  S    
C190  H176  S    
C213  C214  S    
C84   C138  S    
C31   H15   S    
C88   C104  A    
C27   C51   A    
C33   C66   S    
O34   Zn9   S    
C21   C45   A    
C182  H154  S    
C174  H143  S    
C175  H141  S    
C24   C48   A    
C100  C114  A    
C205  C206  S    
C142  H64   S    
C213  H234  S    
C27   H11   S    
C132  H46   S    
C218  H237  S    
C25   H9    S    
C36   O36   A    
C152  H82   S    
C150  H88   S    
C95   C127  A    
C16   C128  S    
C165  H123  S    
C209  H215  S    
C112  C222  S    
C137  H49   S    
C29   H13   S    
C61   O25   A    
C207  C208  S    
C58   O18   A    
C59   O23   A    
C106  C204  S    
C210  H227  S    
C7    O13   A    
O29   Zn5   S    
C57   C120  S    
C219  H248  S    
C153  H95   S    
C59   C118  S    
C167  H118  S    
C86   C124  A    
C190  C191  S    
C173  H133  S    
C157  H100  S    
C212  H224  S    
C216  C217  S    
C86   C102  A    
O35   Zn9   S    
C168  H130  S    
C3    O5    A    
C192  H185  S    
C184  C185  S    
C6    O10   A    
C177  H150  S    
C5    O9    A    
C37   O45   A    
C199  C200  S    
C204  H213  S    
C163  H113  S    
C140  H56   S    
C221  H243  S    
C8    O16   A    
C96   C174  S    
C142  C143  S    
C3    O3    A    
C186  H172  S    
C206  H209  S    
C181  H155  S    
C56   C80   A    
C89   C125  A    
C23   C65   A    
C23   C47   A    
C102  C192  S    
C179  H147  S    
C13   C125  S    
C62   C115  S    
C166  H121  S    
C57   O17   A    
C133  H43   S    
C178  H148  S    
C208  H219  S    
C180  H157  S    
C146  H69   S    
C49   C77   A    
O14   Zn8   S    
C134  H42   S    
C205  H212  S    
C220  C221  S    
C41   C73   A    
C198  C199  S    
C31   C69   A    
C12   C13   T    
C89   C105  A    
C149  H75   S    
C196  C197  S    
C37   C70   S    
C97   C113  A    
C93   C109  A    
C188  H166  S    
C39   O43   A    
C151  H86   S    
C167  H117  S    
C170  H124  S    
O28   Zn8   S    
C138  C139  S    
C32   C72   A    
C148  H79   S    
O47   Zn12  S    
C62   O28   A    
C100  C186  S    
C171  H136  S    
C36   O38   A    
C152  H84   S    
C169  H128  S    
C176  H139  S    
C223  H253  S    
C137  H47   S    
C61   O27   A    
C211  C212  S    
C96   C128  A    
C200  H195  S    
O31   Zn7   S    
C154  C155  S    
C194  H181  S    
C156  H101  S    
C203  H203  S    
C173  H131  S    
C19   C67   A    
C174  H144  S    
C2    O6    A    
C35   O35   A    
C147  H81   S    
C172  H134  S    
O11   Zn7   S    
C55   H31   S    
C160  C161  S    
C1    O1    A    
C83   C99   A    
C224  H250  S    
C5    O15   A    
C105  C117  A    
C28   C72   A    
C50   C78   A    
C30   C70   A    
C19   C43   A    
C139  H57   S    
O36   Zn9   S    
C155  H91   S    
C214  H232  S    
C164  H111  S    
C42   C74   A    
O8    Zn2   S    
C185  H161  S    
C47   C73   A    
C57   O19   A    
C202  C203  S    
O46   Zn12  S    
C64   O32   A    
O23   Zn3   S    
O1    Zn1   S    
C154  H92   S    
C94   C110  A    
C159  H109  S    
C161  H103  S    
O15   Zn7   S    
C211  H225  S    
O33   Zn9   S    
C204  C205  S    
C182  H153  S    
C103  C195  S    
C130  H37   S    
C215  H229  S    
C61   C116  S    
C131  H34   S    
C136  C137  S    
C90   C106  A    
C38   O48   A    
C183  H165  S    
C144  H74   S    
C22   C46   A    
C47   H23   S    
C201  H207  S    
C188  H168  S    
C48   H24   S    
C26   C70   A    
O16   Zn6   S    
C18   C66   A    
C42   H18   S    
C170  H126  S    
C90   C156  S    
C109  C119  A    
C213  H235  S    
C215  H231  S    
C214  C215  S    
C36   C65   S    
C53   H29   S    
C11   C123  S    
C135  H53   S    
C181  C182  S    
C26   H10   S    
C92   C126  A    
C34   C67   S    
C99   C113  A    
O24   Zn2   S    
O10   Zn6   S    
C94   C128  A    
C81   C129  S    
C83   C135  S    
C30   H14   S    
C23   H7    S    
C10   C15   T    
C1    C73   S    
C161  H105  S    
C108  C210  S    
C109  C213  S    
C221  H244  S    
O5    Zn1   S    
C158  H96   S    
C140  H54   S    
C92   C162  S    
C63   O31   A    
C133  C134  S    
C81   C97   A    
C91   C159  S    
C25   C49   A    
C158  H97   S    
C24   C68   A    
C184  H162  S    
C202  H205  S    
C41   H17   S    
C111  C219  S    
C152  H83   S    
C208  C209  S    
C224  H252  S    
C129  H38   S    
C186  C187  S    
C37   O41   A    
C31   C55   A    
C199  H197  S    
C52   C80   A    
O30   Zn8   S    
C32   C56   A    
C8    O12   A    
C54   C78   A    
O48   Zn12  S    
C143  H63   S    
C87   C123  A    
C156  C157  S    
C190  H177  S    
C145  H71   S    
C149  H76   S    
C88   C150  S    
C103  C115  A    
C185  H159  S    
C28   H12   S    
C195  H193  S    
C162  C163  S    
C197  H188  S    
C180  C181  S    
C165  C166  S    
C96   C112  A    
C175  H142  S    
C22   H6    S    
C207  H221  S    
C132  H45   S    
C151  C152  S    
C53   C79   A    
C9    C16   T    
C220  H246  S    
C142  H65   S    
C55   C77   A    
C11   C14   T    
C162  H116  S    
C84   C122  A    
O19   Zn3   S    
C222  C223  S    
O21   Zn1   S    
C218  H236  S    
O17   Zn1   S    
C196  H190  S    
C22   C66   A    
C197  H189  S    
C181  H156  S    
C63   C114  S    
C165  H122  S    
O25   Zn5   S    
C137  H48   S    
C39   O47   A    
C39   C72   S    
C4    O4    A    
C150  H87   S    
C219  C220  S    
C2    C74   S    
C153  H94   S    
C169  H127  S    
C156  H102  S    
C133  H44   S    
C173  H132  S    
C130  C131  S    
O32   Zn6   S    
C104  C198  S    
C168  H129  S    
C51   C79   A    
C19   H3    S    
C193  H183  S    
C40   O46   A    
C40   C69   S    
C17   H1    S    
C108  C118  A    
C102  C116  A    
C163  H114  S    
C191  H173  S    
C140  H55   S    
O3    Zn3   S    
C158  H98   S    
C198  H200  S    
C186  H171  S    
C189  H179  S    
C63   O29   A    
O42   Zn11  S    
C93   C127  A    
C54   H30   S    
C179  H146  S    
C160  H106  S    
C12   C124  S    
C178  H149  S    
C210  C211  S    
C146  H68   S    
C83   C121  A    
C134  H41   S    
C141  H67   S    
C46   H22   S    
C216  H241  S    
C187  H169  S    
C87   C103  A    
C167  H119  S    
O2    Zn2   S    
C46   C74   A    
C85   C101  A    
C8    C80   S    
C38   C71   S    
C180  H158  S    
C64   C113  S    
C209  H216  S    
C85   C141  S    
C59   O21   A    
C64   O30   A    
C52   H28   S    
C171  C172  S    
C17   C65   A    
C136  H50   S    
O43   Zn11  S    
C45   C75   A    
C218  H238  S    
C212  H222  S    
C224  H251  S    
C99   C183  S    
O7    Zn3   S    
C197  H187  S    
C56   H32   S    
C95   C111  A    
C176  H138  S    
C28   C52   A    
C195  C196  S    
C223  H254  S    
C35   C68   S    
C50   H26   S    
O26   Zn6   S    
C44   H20   S    
C45   H21   S    
C200  H194  S    
C17   C41   A    
C210  H228  S    
C4    C76   S    
C43   H19   S    
C219  H249  S    
C148  H78   S    
C194  H180  S    
C222  H255  S    
C132  C133  S    
C203  H202  S    
C157  H99   S    
C44   C76   A    
C217  H239  S    
C93   C165  S    
C98   C180  S    
C21   C67   A    
O37   Zn10  S    
C147  H80   S    
C192  H186  S    
C149  H77   S    
