data_mof_unit_7590.cif
_audit_creation_date              2012-12-10T19:12:20-0500
_audit_creation_method            fapswitch 2.2
_symmetry_space_group_name_H-M    P1
_symmetry_Int_Tables_number       1
_space_group_crystal_system       triclinic
_cell_length_a                    7.850226
_cell_length_b                    9.088616
_cell_length_c                    17.099983
_cell_angle_alpha                 89.59279
_cell_angle_beta                  92.636277
_cell_angle_gamma                 90.005919
_cell_volume                      1218.7222322

loop_
_atom_site_label
_atom_site_type_symbol
_atom_type_description
_atom_site_fract_x
_atom_site_fract_y
_atom_site_fract_z
_atom_type_partial_charge
C1    C     C_R   0.499982 0.220291 0.500045 0.834546
C2    C     C_R   0.621876 0.511666 0.139773 -0.045314
C3    C     C_R   0.492960 0.436488 0.899044 0.198553
C4    C     C_R   0.466467 0.524907 0.097009 0.213813
C5    C     C_R   0.632085 0.379790 0.860285 0.304682
C6    C     C_R   0.317126 0.538294 0.136967 0.312223
C7    C     C_R   0.645202 0.402577 0.779594 0.262134
C8    C     C_R   0.319059 0.504908 0.217051 0.301088
C9    C     C_1   0.499998 0.065440 0.500069 -0.103424
C10   C     C_1   0.500018 0.934557 0.500062 -0.100075
C11   C     C_3   0.779379 0.472919 0.098822 -0.495520
C12   C     C_R   0.500027 0.779710 0.500031 0.840430
C13   C     C_3   0.194642 0.548112 0.892533 -0.502082
C14   C     C_R   0.518809 0.498211 0.651314 0.911849
C15   C     C_R   0.480812 0.504712 0.348429 0.887047
C16   C     C_R   0.520643 0.487679 0.737532 -0.290387
C17   C     C_R   0.474595 0.513480 0.261587 -0.311332
C18   C     C_R   0.382824 0.547897 0.777325 0.328095
C19   C     C_R   0.625423 0.534626 0.220922 0.350486
C20   C     C_R   0.361416 0.512204 0.856180 -0.009238
Cl1   Cl    Cl    0.804117 0.623976 0.265322 -0.455041
Cl2   Cl    Cl    0.238037 0.673936 0.730162 -0.522382
Cl3   Cl    Cl    0.790604 0.278019 0.913591 -0.500710
Cl4   Cl    Cl    0.138479 0.617667 0.088801 -0.567246
Cl5   Cl    Cl    0.815870 0.318534 0.732481 -0.469210
Cl6   Cl    Cl    0.133609 0.433194 0.256353 -0.485481
Cu1   Cu    Cu3+1 0.669080 0.500010 0.500000 1.125285
Cu2   Cu    Cu3+1 0.330920 0.499990 0.500000 1.125915
H1    H     H_    0.761371 0.364893 0.070085 0.250109
H2    H     H_    0.805513 0.558191 0.054216 0.273067
H3    H     H_    0.888243 0.457921 0.140911 0.302832
H4    H     H_    0.193494 0.665283 0.910380 0.266182
H5    H     H_    0.085598 0.527315 0.850369 0.263570
H6    H     H_    0.172535 0.475780 0.943544 0.261587
N1    N     N_1   0.076820 0.499970 0.500010 0.011945
N2    N     N_1   0.923180 0.500030 0.499990 0.011597
N3    N     N_2   0.491862 0.420917 0.981583 -0.164199
N4    N     N_2   0.461435 0.539300 0.014629 -0.162766
O1    O     O_R   0.642760 0.288400 0.500000 -0.570452
O2    O     O_R   0.357240 0.711600 0.500000 -0.567697
O3    O     O_R   0.357190 0.288380 0.500000 -0.577053
O4    O     O_R   0.642810 0.711620 0.500000 -0.573755
O5    O     O_R   0.658410 0.498660 0.613920 -0.540555
O6    O     O_R   0.341590 0.501340 0.386080 -0.533320
O7    O     O_R   0.372840 0.498650 0.613930 -0.546342
O8    O     O_R   0.627160 0.501350 0.386070 -0.543454

loop_
_geom_bond_atom_site_label_1
_geom_bond_atom_site_label_2
_ccdc_geom_bond_type
C12   O2    A    
C2    C4    A    
C13   H5    S    
N3    N4    D    
Cu1   N2    S    
C8    Cl6   S    
C9    C10   T    
C13   H4    S    
N1    N2    T    
C7    Cl5   S    
C6    Cl4   S    
C11   H3    S    
C13   H6    S    
C18   Cl2   S    
Cu1   O4    S    
C3    N3    S    
C10   C12   S    
C2    C11   S    
Cu1   O8    S    
C1    O3    A    
C7    C16   A    
C17   C19   A    
C4    N4    S    
C15   O6    A    
C14   O7    A    
C18   C20   A    
C14   C16   S    
Cu2   O7    S    
C4    C6    A    
C1    O1    A    
C12   O4    A    
Cu1   O5    S    
Cu2   O3    S    
C3    C20   A    
C1    C9    S    
C11   H1    S    
Cu2   O6    S    
C16   C18   A    
Cu1   Cu2   S    
C5    C7    A    
Cu2   O2    S    
C6    C8    A    
C15   O8    A    
C19   Cl1   S    
C2    C19   A    
C15   C17   S    
Cu2   N1    S    
C13   C20   S    
C8    C17   A    
C11   H2    S    
Cu1   O1    S    
C14   O5    A    
C3    C5    A    
C5    Cl3   S    
