data_mof_unit_29888.cif
_audit_creation_date              2013-03-05T16:04:06-0500
_audit_creation_method            fapswitch 2.2
_symmetry_space_group_name_H-M    P1
_symmetry_Int_Tables_number       1
_space_group_crystal_system       triclinic
_cell_length_a                    10.828785
_cell_length_b                    9.624493
_cell_length_c                    10.928063
_cell_angle_alpha                 89.999977
_cell_angle_beta                  91.607264
_cell_angle_gamma                 90.000017
_cell_volume                      1138.49173657

loop_
_atom_site_label
_atom_site_type_symbol
_atom_site_description
_atom_site_fract_x
_atom_site_fract_y
_atom_site_fract_z
_atom_type_partial_charge
O1    O     O_R   0.319640 0.618740 0.499990 -0.599629
O2    O     O_R   0.680360 0.618740 0.500010 -0.599629
O3    O     O_R   0.319620 0.381170 0.499990 -0.582607
O4    O     O_R   0.680380 0.381170 0.500010 -0.582605
C1    C     C_R   0.262383 0.499962 0.499802 0.788285
C2    C     C_R   0.737616 0.499962 0.500198 0.788287
O5    O     O_R   0.500000 0.618810 0.319650 -0.591034
O6    O     O_R   0.500000 0.618810 0.680350 -0.591035
O7    O     O_R   0.499970 0.381240 0.319640 -0.549227
O8    O     O_R   0.500030 0.381240 0.680360 -0.549225
C3    C     C_R   0.509740 0.499846 0.262807 0.845289
C4    C     C_R   0.490260 0.499846 0.737193 0.845290
Cu1   Cu    Cu3+1 0.500000 0.640660 0.500000 0.944330
Cu2   Cu    Cu3+1 0.500000 0.359340 0.500000 1.032723
C5    C     C_R   0.563119 0.751113 0.112465 -0.143354
C6    C     C_R   0.436882 0.751113 0.887534 -0.143354
H1    H     H_    0.618994 0.755350 0.195916 0.168295
H2    H     H_    0.381007 0.755350 0.804083 0.168296
C7    C     C_R   0.536053 0.875561 0.053605 -0.054566
C8    C     C_R   0.463951 0.875561 0.946393 -0.054566
H3    H     H_    0.568763 0.971046 0.093376 0.236437
H4    H     H_    0.431243 0.971046 0.906620 0.236439
C9    C     C_R   0.478658 0.624407 0.938545 0.046145
C10   C     C_R   0.521341 0.624407 0.061455 0.046147
C11   C     C_R   0.520073 0.498725 0.128097 -0.277875
C12   C     C_R   0.479926 0.498725 0.871903 -0.277875
C13   C     C_R   0.508601 0.372197 0.063367 0.268111
C14   C     C_R   0.491397 0.372197 0.936633 0.268116
C15   C     C_R   0.063885 0.373749 0.499976 -0.144637
C16   C     C_R   0.936115 0.373749 0.500024 -0.144637
H5    H     H_    0.111823 0.274986 0.500046 0.194407
H6    H     H_    0.888177 0.274986 0.499953 0.194408
C17   C     C_R   0.871637 0.499980 0.500123 -0.026846
C18   C     C_R   0.128363 0.499980 0.499877 -0.026846
C19   C     C_R   0.936106 0.626231 0.500082 -0.167906
C20   C     C_R   0.063894 0.626231 0.499918 -0.167906
H7    H     H_    0.888125 0.724991 0.500154 0.161724
H8    H     H_    0.111875 0.724991 0.499846 0.161724
C21   C     C_R   0.408241 0.071809 0.439214 0.490457
C22   C     C_R   0.591759 0.071809 0.560785 0.490458
C23   C     C_R   0.408376 0.924633 0.441309 -0.033041
C24   C     C_R   0.591624 0.924633 0.558690 -0.033043
H9    H     H_    0.335264 0.868500 0.393266 0.168820
H10   H     H_    0.664736 0.868500 0.606733 0.168820
N1    N     N_R   0.500000 0.852070 0.500000 -0.249303
N2    N     N_R   0.500000 0.147940 0.500000 -0.260347
N3    N     N_R   0.515156 0.241139 0.124789 0.136980
O9    O     O_R   0.418581 0.160766 0.125087 -0.372600
O10   O     O_R   0.617763 0.201892 0.179301 -0.369803
N4    N     N_R   0.484842 0.241139 0.875212 0.136980
O11   O     O_R   0.581420 0.160770 0.874908 -0.372605
O12   O     O_R   0.382236 0.201892 0.820698 -0.369803
O13   O     O_3   0.312415 0.133369 0.374623 -0.715425
H11   H     H_    0.341838 0.222602 0.343371 0.389891
O14   O     O_3   0.687586 0.133370 0.625375 -0.715425
H12   H     H_    0.658162 0.222601 0.656629 0.389892

loop_
_geom_bond_atom_site_label_1
_geom_bond_atom_site_label_2
_geom_bond_distance
_ccdc_geom_bond_type
C7    H3    1.072509 S    
N3    O9    1.300865 A    
N4    O12   1.301922 A    
O7    Cu2   1.982214 S    
C5    C7    1.386970 A    
C15   C16   1.383616 A    
C11   C13   1.412033 A    
C23   H9    1.082134 S    
C12   C14   1.412034 A    
C7    C8    1.389600 A    
C2    C17   1.451303 S    
C6    C8    1.386968 A    
O6    C4    1.308287 A    
C22   O14   1.372937 S    
C1    C18   1.451303 S    
O14   H12   0.980727 S    
C20   H8    1.083265 S    
N4    O11   1.300863 A    
C21   C23   1.416674 A    
C6    H2    1.080956 S    
O2    C2    1.300462 A    
O13   H11   0.980725 S    
Cu1   N1    2.034714 S    
O7    C3    1.305253 A    
C21   O13   1.372938 S    
O3    Cu2   1.964560 S    
C24   H10   1.082135 S    
C21   N2    1.388680 A    
O1    C1    1.300462 A    
O8    C4    1.305253 A    
N3    O10   1.301922 A    
C5    C10   1.410106 A    
C17   C19   1.401377 A    
C8    H4    1.072509 S    
O5    C3    1.308286 A    
C6    C9    1.410106 A    
C18   C20   1.401377 A    
O4    Cu2   1.964559 S    
O4    C2    1.300486 A    
O1    Cu1   1.964438 S    
C22   N2    1.388678 A    
C9    C10   1.408153 A    
C16   H6    1.083035 S    
O6    Cu1   1.982064 S    
O3    C1    1.300486 A    
O5    Cu1   1.982065 S    
C10   C11   1.412206 A    
C15   H5    1.083035 S    
O8    Cu2   1.982214 S    
C9    C12   1.412206 A    
C13   N3    1.429669 S    
C13   C14   1.392249 A    
C5    H1    1.080956 S    
O2    Cu1   1.964438 S    
C3    C11   1.479529 S    
C23   N1    1.359348 A    
C16   C17   1.401275 A    
C19   H7    1.083265 S    
Cu1   Cu2   2.707562 S    
C14   N4    1.429667 S    
C15   C18   1.401274 A    
C19   C20   1.383838 A    
C4    C12   1.479530 S    
C22   C24   1.416674 A    
Cu2   N2    2.034618 S    
C24   N1    1.359347 A    
