data_mof_unit_37664.cif
_audit_creation_date              2012-12-10T21:30:33-0500
_audit_creation_method            fapswitch 2.2
_symmetry_space_group_name_H-M    P1
_symmetry_Int_Tables_number       1
_space_group_crystal_system       triclinic
_cell_length_a                    12.987101
_cell_length_b                    16.112751
_cell_length_c                    16.762147
_cell_angle_alpha                 94.237019
_cell_angle_beta                  87.726085
_cell_angle_gamma                 107.454309
_cell_volume                      3336.39842628

loop_
_atom_site_label
_atom_site_type_symbol
_atom_type_description
_atom_site_fract_x
_atom_site_fract_y
_atom_site_fract_z
_atom_type_partial_charge
C1    C     C_R   0.503559 0.488633 0.346982 0.852199
C2    C     C_R   0.179205 0.415824 0.491290 -0.165866
C3    C     C_R   0.511160 0.482017 0.260584 -0.019422
C4    C     C_R   0.297400 0.451226 0.499295 0.901910
C5    C     C_R   0.552550 0.558822 0.221043 -0.230877
C6    C     C_R   0.552210 0.555986 0.138742 -0.177736
C7    C     C_R   0.508652 0.475960 0.094708 0.324803
C8    C     C_R   0.473686 0.398527 0.133901 -0.185381
C9    C     C_R   0.474578 0.401393 0.217075 -0.224192
C10   C     C_R   0.581435 0.594515 0.864562 0.037304
C11   C     C_R   0.586278 0.588642 0.779902 0.041396
C12   C     C_R   0.010981 0.440303 0.462008 0.003067
C13   C     C_R   0.491483 0.539488 0.904024 0.257024
C14   C     C_R   0.502097 0.525026 0.738574 -0.099069
C15   C     C_R   0.413707 0.472139 0.778973 -0.331899
C16   C     C_R   0.502251 0.513241 0.652601 0.894368
C17   C     C_R   0.407063 0.479890 0.861575 0.105619
C18   C     C_R   0.431603 0.754062 0.544925 0.196657
C19   C     C_R   0.443916 0.844963 0.542354 0.012451
C20   C     C_R   0.495087 0.888741 0.474369 0.195438
C21   C     C_R   0.534844 0.841547 0.412621 -0.023613
C22   C     C_R   0.537582 0.756627 0.425873 -0.100930
C23   C     C_R   0.121600 0.457423 0.446041 -0.053923
C24   C     C_R   0.464003 0.137012 0.455412 -0.334228
C25   C     C_R   0.455331 0.222171 0.456393 0.251290
C26   C     C_R   0.531540 0.117070 0.510081 0.301548
C27   C     C_R   0.577309 0.267945 0.563587 -0.046805
C28   C     C_R   0.703249 0.548269 0.497741 0.864509
C29   C     C_R   0.586860 0.183664 0.565157 -0.331307
C30   C     C_R   0.980464 0.651811 0.409056 -0.244102
C31   C     C_R   0.821412 0.574598 0.483926 -0.099998
C32   C     C_R   0.121797 0.344301 0.535717 0.033977
C33   C     C_R   0.008016 0.310612 0.529781 0.099537
C34   C     C_R   0.965560 0.508508 0.453604 0.062042
C35   C     C_R   0.952433 0.357168 0.488123 0.057898
C36   C     C_3   0.853056 0.735342 0.452966 -0.416014
C37   C     C_3   0.829567 0.761215 0.370889 -0.324371
C38   C     C_3   0.831225 0.856479 0.375175 -0.919892
C39   C     C_3   0.672527 0.655404 0.914449 -0.415725
C40   C     C_3   0.648503 0.741345 0.939011 -0.344656
C41   C     C_3   0.739681 0.803118 0.988427 -0.907830
C42   C     C_3   0.575918 0.883668 0.334448 -0.378770
C43   C     C_3   0.574846 0.818598 0.262165 -0.374775
C44   C     C_3   0.594555 0.863799 0.183749 -0.898779
C45   C     C_R   0.021306 0.580223 0.409172 0.073619
C46   C     C_3   0.166735 0.643051 0.304269 -0.415011
C47   C     C_3   0.247338 0.726415 0.340610 -0.353998
C48   C     C_3   0.276467 0.797980 0.281674 -0.890519
C49   C     C_3   0.405753 0.895860 0.611883 -0.395993
C50   C     C_3   0.492919 0.926773 0.675754 -0.338676
C51   C     C_3   0.462023 0.986183 0.741378 -0.892454
C52   C     C_3   0.348019 0.699960 0.601790 -0.389261
C53   C     C_3   0.234489 0.666568 0.565629 -0.311887
C54   C     C_3   0.167442 0.729658 0.579529 -0.925506
C55   C     C_3   0.841374 0.310350 0.453999 -0.430226
C56   C     C_R   0.117846 0.579010 0.367761 0.060012
C57   C     C_3   0.851266 0.248800 0.381513 -0.341094
C58   C     C_3   0.740651 0.192804 0.352498 -0.871024
C59   C     C_3   0.946032 0.229236 0.571899 -0.437144
C60   C     C_3   0.893726 0.253606 0.650254 -0.342683
C61   C     C_3   0.840452 0.173184 0.696657 -0.900893
C62   C     C_3   0.682175 0.645911 0.734267 -0.433140
C63   C     C_3   0.768260 0.599201 0.715869 -0.347728
C64   C     C_3   0.871188 0.660421 0.681230 -0.900568
C65   C     C_R   0.168292 0.516498 0.386237 0.070541
C66   C     C_R   0.870847 0.510342 0.494877 -0.279897
C67   C     C_R   0.881740 0.650774 0.446826 0.100085
H1    H     H_    0.442301 0.336601 0.100140 0.137760
H2    H     H_    0.026670 0.710678 0.381931 0.156751
H3    H     H_    0.832097 0.459131 0.534227 0.157915
H4    H     H_    0.770261 0.867541 0.419602 0.271644
H5    H     H_    0.912244 0.899565 0.392950 0.259852
H6    H     H_    0.813844 0.874047 0.315479 0.253677
H7    H     H_    0.890983 0.753059 0.325456 0.216757
H8    H     H_    0.749821 0.718455 0.350432 0.210635
H9    H     H_    0.785111 0.734468 0.495130 0.217396
H10   H     H_    0.923460 0.786682 0.479244 0.196127
H11   H     H_    0.749853 0.773087 0.044014 0.261479
H12   H     H_    0.443293 0.341547 0.247219 0.151832
H13   H     H_    0.816586 0.818619 0.953198 0.263529
H14   H     H_    0.720189 0.864749 0.005163 0.254021
H15   H     H_    0.638224 0.773615 0.884784 0.218719
H16   H     H_    0.572300 0.728129 0.975121 0.226748
H17   H     H_    0.683765 0.623896 0.968867 0.207783
H18   H     H_    0.751636 0.668238 0.882654 0.205951
H19   H     H_    0.246253 0.438062 0.882904 0.176230
H20   H     H_    0.309764 0.361131 0.887583 0.184568
H21   H     H_    0.409927 0.226201 0.343662 0.150052
H22   H     H_    0.307624 0.202443 0.411702 0.155820
H23   H     H_    0.349087 0.425053 0.746042 0.160104
H24   H     H_    0.530361 0.894588 0.174635 0.262833
H25   H     H_    0.674498 0.914357 0.184067 0.263509
H26   H     H_    0.593216 0.814946 0.133197 0.257047
H27   H     H_    0.638992 0.787006 0.267790 0.216083
H28   H     H_    0.495638 0.767124 0.259360 0.235827
H29   H     H_    0.523852 0.923763 0.319755 0.217017
H30   H     H_    0.658427 0.929150 0.342892 0.203741
H31   H     H_    0.314579 0.776677 0.226623 0.266836
H32   H     H_    0.203040 0.814252 0.265379 0.255976
H33   H     H_    0.333711 0.857579 0.309771 0.255593
H34   H     H_    0.584060 0.616544 0.109614 0.145834
H35   H     H_    0.212946 0.751089 0.395771 0.227136
H36   H     H_    0.321855 0.712075 0.357161 0.226809
H37   H     H_    0.207946 0.613068 0.256146 0.220199
H38   H     H_    0.101501 0.658820 0.273311 0.197140
H39   H     H_    0.453598 0.045426 0.715755 0.268093
H40   H     H_    0.384699 0.951225 0.770955 0.258483
H41   H     H_    0.526030 0.006603 0.786989 0.249585
H42   H     H_    0.504146 0.869337 0.703061 0.209462
H43   H     H_    0.571282 0.962957 0.648245 0.234993
H44   H     H_    0.383689 0.951912 0.591125 0.222725
H45   H     H_    0.584049 0.621344 0.253821 0.136408
H46   H     H_    0.330215 0.857807 0.640303 0.205822
H47   H     H_    0.162523 0.748714 0.644262 0.259546
H48   H     H_    0.201922 0.788168 0.545021 0.258388
H49   H     H_    0.084106 0.697218 0.558739 0.266271
H50   H     H_    0.241375 0.651529 0.500508 0.241062
H51   H     H_    0.189208 0.604783 0.592735 0.211194
H52   H     H_    0.368988 0.642238 0.615056 0.232114
H53   H     H_    0.347020 0.733257 0.661905 0.170047
H54   H     H_    0.147041 0.305400 0.644286 0.176209
H55   H     H_    0.175239 0.243663 0.563704 0.182990
H56   H     H_    0.417864 0.087537 0.412604 0.152395
H57   H     H_    0.700350 0.146963 0.398317 0.272376
H58   H     H_    0.689262 0.234304 0.340148 0.267216
H59   H     H_    0.750360 0.154101 0.296646 0.243945
H60   H     H_    0.894692 0.288270 0.332008 0.227785
H61   H     H_    0.898536 0.205040 0.396326 0.217631
H62   H     H_    0.786892 0.274364 0.500555 0.212230
H63   H     H_    0.801591 0.356008 0.432141 0.222584
H64   H     H_    0.780731 0.123381 0.659072 0.260144
H65   H     H_    0.902445 0.144365 0.715825 0.260404
H66   H     H_    0.798244 0.191981 0.750712 0.250711
H67   H     H_    0.576116 0.722293 0.382841 0.162389
H68   H     H_    0.956037 0.300408 0.688389 0.219244
H69   H     H_    0.831889 0.285547 0.637433 0.210338
H70   H     H_    0.883422 0.184716 0.532776 0.208063
H71   H     H_    0.999212 0.189848 0.585325 0.196225
H72   H     H_    0.276282 0.450178 0.346710 0.176279
H73   H     H_    0.322480 0.561584 0.348144 0.227300
H74   H     H_    0.852887 0.689492 0.627565 0.260974
H75   H     H_    0.909213 0.713584 0.726510 0.259412
H76   H     H_    0.929247 0.623516 0.663818 0.258791
H77   H     H_    0.788635 0.574154 0.771302 0.222297
H78   H     H_    0.622453 0.319296 0.605167 0.134853
H79   H     H_    0.736363 0.542695 0.672235 0.212277
H80   H     H_    0.656797 0.664679 0.677707 0.216268
H81   H     H_    0.717569 0.709429 0.767864 0.205837
H82   H     H_    0.637809 0.170460 0.608954 0.162775
N1    N     N_2   0.499893 0.472254 0.011046 -0.184666
N2    N     N_3   0.256813 0.506735 0.336432 -0.458662
N3    N     N_2   0.490369 0.541034 0.987543 -0.192518
N4    N     N_R   0.487340 0.714070 0.490410 -0.131673
N5    N     N_2   0.493082 0.975502 0.462502 -0.204380
N6    N     N_2   0.542180 0.031455 0.514664 -0.184060
N7    N     N_R   0.512670 0.285920 0.509580 -0.075027
N8    N     N_3   0.315449 0.426384 0.903159 -0.437258
N9    N     N_3   0.386222 0.242373 0.401592 -0.408927
N10   N     N_3   0.180341 0.306906 0.586416 -0.445020
O1    O     O_R   0.504530 0.423560 0.387290 -0.592981
O2    O     O_R   0.496400 0.561030 0.381140 -0.646588
O3    O     O_R   0.352460 0.397130 0.504630 -0.563125
O4    O     O_R   0.344330 0.534610 0.498470 -0.632629
O5    O     O_R   0.503600 0.438970 0.618860 -0.608811
O6    O     O_R   0.495470 0.576440 0.612710 -0.646992
O7    O     O_R   0.655670 0.465390 0.501530 -0.619491
O8    O     O_R   0.647540 0.602870 0.495370 -0.614272
Zn1   Zn    Zn3+2 0.505430 0.408200 0.504110 0.954537
Zn2   Zn    Zn3+2 0.494570 0.591800 0.495890 0.892054

loop_
_geom_bond_atom_site_label_1
_geom_bond_atom_site_label_2
_ccdc_geom_bond_type
C31   C66   A    
C49   H46   S    
C37   H7    S    
C27   C29   A    
C30   C45   A    
C19   C20   A    
C11   C62   S    
C34   C66   A    
C57   H61   S    
C36   C67   S    
C61   H66   S    
H22   N9    S    
O8    Zn2   S    
C53   C54   S    
C16   O5    A    
C31   C67   A    
C12   C23   A    
C62   C63   S    
C20   N5    S    
C22   H67   S    
C42   H29   S    
C36   C37   S    
C24   C26   A    
C39   H17   S    
C36   H10   S    
C5    C6    A    
C11   C14   A    
C53   H50   S    
C64   H74   S    
C59   H70   S    
C56   C65   A    
C46   H38   S    
C50   H43   S    
C43   H27   S    
C25   N9    S    
C2    C32   A    
C18   C19   A    
C9    H12   S    
C6    H34   S    
C44   H26   S    
C36   H9    S    
C28   O8    A    
C46   C47   S    
C45   C56   A    
C51   H41   S    
C55   H62   S    
C54   H49   S    
C43   H28   S    
C63   H77   S    
C14   C16   S    
H21   N9    S    
C17   N8    S    
C60   H69   S    
C63   H79   S    
C30   C67   A    
C61   H65   S    
C28   O7    A    
C49   H44   S    
C32   N10   S    
O2    Zn2   S    
O1    Zn1   S    
C37   H8    S    
C1    O2    A    
C59   C60   S    
C33   C59   S    
C47   H35   S    
C62   H81   S    
C21   C22   A    
C25   N7    A    
O7    Zn1   S    
C40   H16   S    
C26   N6    S    
C41   H13   S    
C27   H78   S    
C1    O1    A    
O6    Zn2   S    
C48   H33   S    
C38   H5    S    
C47   H36   S    
C18   C52   S    
C40   H15   S    
C7    C8    A    
C24   C25   A    
C42   H30   S    
C41   H11   S    
C53   H51   S    
C8    C9    A    
C59   H71   S    
C35   C55   S    
C50   H42   S    
H20   N8    S    
C10   C39   S    
C1    C3    S    
C65   N2    S    
C2    C4    S    
C43   C44   S    
C37   C38   S    
C3    C9    A    
C7    N1    S    
C19   C49   S    
C47   C48   S    
H73   N2    S    
O5    Zn1   S    
C16   O6    A    
H55   N10   S    
C55   H63   S    
C41   H14   S    
C54   H48   S    
C50   C51   S    
C4    O4    A    
C34   C45   A    
C12   C35   A    
C18   N4    A    
C60   H68   S    
N5    N6    D    
C44   H24   S    
C26   C29   A    
O3    Zn1   S    
C52   H53   S    
C40   C41   S    
C5    H45   S    
C58   H59   S    
C64   H75   S    
C62   H80   S    
C55   C57   S    
N1    N3    D    
C42   C43   S    
C39   H18   S    
C12   C34   A    
C39   C40   S    
C30   H2    S    
C52   C53   S    
C27   N7    A    
C15   C17   A    
C48   H32   S    
C38   H4    S    
C21   C42   S    
C28   C31   S    
C13   N3    S    
C3    C5    A    
C10   C13   A    
C44   H25   S    
C57   H60   S    
C8    H1    S    
C6    C7    A    
C64   H76   S    
C48   H31   S    
C46   C56   S    
C58   H57   S    
C13   C17   A    
C32   C33   A    
C23   C65   A    
C15   H23   S    
C57   C58   S    
C66   H3    S    
C46   H37   S    
C51   H39   S    
C54   H47   S    
H72   N2    S    
C33   C35   A    
C4    O3    A    
C24   H56   S    
O4    Zn2   S    
H19   N8    S    
C10   C11   A    
C61   H64   S    
C29   H82   S    
C63   C64   S    
C52   H52   S    
C20   C21   A    
C58   H58   S    
C51   H40   S    
C49   C50   S    
H54   N10   S    
N4    Zn2   S    
C2    C23   A    
N7    Zn1   S    
C14   C15   A    
C60   C61   S    
C38   H6    S    
C22   N4    A    
