data_mof_unit_61691.cif
_audit_creation_date              2012-12-10T17:52:41-0500
_audit_creation_method            fapswitch 2.2
_symmetry_space_group_name_H-M    P1
_symmetry_Int_Tables_number       1
_space_group_crystal_system       triclinic
_cell_length_a                    18.659401
_cell_length_b                    18.699104
_cell_length_c                    18.741385
_cell_angle_alpha                 109.522624
_cell_angle_beta                  109.297137
_cell_angle_gamma                 109.256545
_cell_volume                      5054.65256079

loop_
_atom_site_label
_atom_site_type_symbol
_atom_type_description
_atom_site_fract_x
_atom_site_fract_y
_atom_site_fract_z
_atom_type_partial_charge
C1    C     C_R   0.120397 0.120323 0.499827 0.885350
C2    C     C_R   0.299054 0.335756 0.569153 0.063353
C3    C     C_R   0.234668 0.272023 0.569011 -0.226941
C4    C     C_R   0.123024 0.002713 0.619822 0.897319
C5    C     C_R   0.186910 0.186445 0.499471 -0.150185
C6    C     C_R   0.746138 0.925385 0.242831 -0.215511
C7    C     C_R   0.681019 0.925653 0.181123 -0.212946
C8    C     C_R   0.686278 0.004827 0.190967 -0.150163
C9    C     C_R   0.756420 0.085569 0.264317 0.411757
C10   C     C_R   0.823362 0.085068 0.325995 0.094994
C11   C     C_R   0.816457 0.004296 0.314847 -0.109426
C12   C     C_R   0.262955 0.001079 0.674811 0.060244
C13   C     C_R   0.825408 0.748432 0.506938 -0.338841
C14   C     C_R   0.763193 0.683588 0.508347 0.474057
C15   C     C_R   0.686439 0.685952 0.499266 -0.167833
C16   C     C_R   0.878568 0.880014 0.498737 0.880710
C17   C     C_R   0.671517 0.751023 0.488307 -0.250882
C18   C     C_R   0.732786 0.815166 0.486072 0.465018
C19   C     C_R   0.810811 0.813904 0.496868 -0.180317
C20   C     C_R   0.500288 0.879845 0.879773 0.867220
C21   C     C_R   0.379995 0.998147 0.878064 0.931642
C22   C     C_R   0.500439 0.120016 0.120772 0.876324
C23   C     C_R   0.192640 0.005411 0.685289 -0.129617
C24   C     C_R   0.620118 0.001575 0.121706 0.855472
C25   C     C_R   0.500417 0.620685 0.619851 0.851520
C26   C     C_R   0.380195 0.379858 0.499788 0.884982
C27   C     C_R   0.500183 0.379825 0.380036 0.862608
C28   C     C_R   0.880905 0.001408 0.380028 0.887043
C29   C     C_R   0.620258 0.619935 0.499677 0.927196
C30   C     C_R   0.576397 0.833839 0.806007 -0.163610
C31   C     C_R   0.578006 0.771713 0.741791 0.445306
C32   C     C_R   0.502128 0.688775 0.685112 -0.117752
C33   C     C_R   0.426588 0.669525 0.691905 -0.219411
C34   C     C_R   0.184945 0.007438 0.757298 -0.319417
C35   C     C_R   0.426099 0.732051 0.756488 -0.183868
C36   C     C_R   0.500945 0.814087 0.813350 -0.120352
C37   C     C_R   0.492793 0.252808 0.175727 -0.195466
C38   C     C_R   0.491250 0.316140 0.238530 -0.162886
C39   C     C_R   0.500464 0.313344 0.314377 -0.033943
C40   C     C_R   0.276467 0.007290 0.606565 -0.282674
C41   C     C_R   0.510259 0.247178 0.327694 -0.188768
C42   C     C_R   0.510019 0.181987 0.263957 0.111947
C43   C     C_R   0.501297 0.185801 0.188068 -0.022431
C44   C     C_R   0.343477 0.996727 0.594413 0.507472
C45   C     C_R   0.246150 0.003850 0.820374 0.437193
C46   C     C_R   0.397246 0.980157 0.650658 -0.115083
C47   C     C_R   0.387152 0.977652 0.720351 -0.257522
C48   C     C_R   0.322172 0.991623 0.735387 0.019174
C49   C     C_R   0.314240 0.995795 0.809055 -0.147037
C50   C     C_R   0.202990 0.163932 0.429634 -0.170476
C51   C     C_R   0.266908 0.226467 0.428349 0.408474
C52   C     C_R   0.314652 0.312899 0.498813 -0.124020
H1    H     H_    0.130448 0.011008 0.763920 0.164400
H2    H     H_    0.367282 0.716714 0.761497 0.167901
H3    H     H_    0.485941 0.255093 0.116910 0.157834
H4    H     H_    0.484161 0.367849 0.228650 0.157584
H5    H     H_    0.517023 0.245987 0.386947 0.150650
H6    H     H_    0.447987 0.970126 0.640955 0.168553
H7    H     H_    0.430266 0.963832 0.761483 0.169382
H8    H     H_    0.165788 0.097542 0.375632 0.189703
H9    H     H_    0.702015 0.155568 0.245732 0.330615
H10   H     H_    0.952480 0.171702 0.391165 0.172508
H11   H     H_    0.892659 0.219859 0.404005 0.248857
H12   H     H_    0.222582 0.289484 0.623406 0.171181
H13   H     H_    0.832166 0.625374 0.521778 0.334528
H14   H     H_    0.751665 0.905884 0.453486 0.332309
H15   H     H_    0.643219 0.750293 0.681803 0.327714
H16   H     H_    0.580449 0.121626 0.283271 0.168642
H17   H     H_    0.521234 0.118053 0.333837 0.200242
H18   H     H_    0.314277 0.013634 0.493972 0.334876
H19   H     H_    0.190299 0.015530 0.891930 0.338904
H20   H     H_    0.332028 0.248010 0.367403 0.325118
H21   H     H_    0.304057 0.445868 0.644528 0.181084
H22   H     H_    0.378914 0.423563 0.697591 0.198199
H23   H     H_    0.741223 0.863540 0.235010 0.169677
H24   H     H_    0.627134 0.864039 0.124698 0.171204
H25   H     H_    0.885675 0.748560 0.514570 0.162604
H26   H     H_    0.611632 0.751688 0.480928 0.195462
H27   H     H_    0.634326 0.897642 0.850272 0.182751
H28   H     H_    0.236559 0.021817 0.563271 0.148394
H29   H     H_    0.368609 0.605691 0.647977 0.159575
N1    N     N_3   0.898664 0.165274 0.399985 -0.417732
N2    N     N_3   0.519686 0.112993 0.276004 -0.423050
N3    N     N_3   0.348024 0.423923 0.640008 -0.455416
O1    O     O_R   0.091590 0.143330 0.551700 -0.623013
O2    O     O_R   0.551730 0.591680 0.643420 -0.609998
O3    O     O_R   0.356670 0.408480 0.448390 -0.616467
O4    O     O_R   0.091620 0.039900 0.448280 -0.637282
O5    O     O_R   0.460120 0.408460 0.551810 -0.611327
O6    O     O_R   0.448270 0.408490 0.356760 -0.624452
O7    O     O_R   0.551720 0.408480 0.460170 -0.612878
O8    O     O_R   0.539880 0.591710 0.448370 -0.640572
O9    O     O_R   0.643330 0.591700 0.551790 -0.563413
O10   O     O_R   0.091610 0.051730 0.643330 -0.619574
O11   O     O_R   0.091640 0.948310 0.539920 -0.623585
O12   O     O_R   0.551760 0.960180 0.908450 -0.633608
O13   O     O_R   0.908380 0.960100 0.551720 -0.606553
O14   O     O_R   0.908410 0.856670 0.448300 -0.615597
O15   O     O_R   0.908360 0.051690 0.460080 -0.598860
O16   O     O_R   0.908390 0.948270 0.356670 -0.624951
O17   O     O_R   0.448330 0.856720 0.908450 -0.628470
O18   O     O_3   0.761271 0.164795 0.277693 -0.775361
O19   O     O_3   0.774951 0.616933 0.516559 -0.743678
O20   O     O_3   0.712893 0.875745 0.471613 -0.742656
O21   O     O_3   0.653714 0.795262 0.736449 -0.754107
O22   O     O_3   0.357541 0.001630 0.527996 -0.755198
O23   O     O_R   0.356660 0.948290 0.908410 -0.572082
O24   O     O_3   0.241714 0.009442 0.894167 -0.748092
O25   O     O_3   0.280508 0.199893 0.358038 -0.752146
O26   O     O_R   0.460090 0.051750 0.908420 -0.637261
O27   O     O_R   0.448250 0.039900 0.091630 -0.579981
O28   O     O_R   0.551680 0.143360 0.091630 -0.630120
O29   O     O_R   0.539910 0.948330 0.091670 -0.617973
O30   O     O_R   0.643340 0.051790 0.091670 -0.601009
O31   O     O_R   0.448280 0.591700 0.540000 -0.616832
Zn1   Zn    Zn3+2 0.999980 0.069060 0.569050 0.993755
Zn2   Zn    Zn3+2 0.000020 0.930940 0.430950 0.971053
Zn3   Zn    Zn3+2 0.430940 0.930960 0.000040 1.016719
Zn4   Zn    Zn3+2 0.569060 0.069120 0.000040 0.988691
Zn5   Zn    Zn3+2 0.430920 0.500100 0.431040 0.987732
Zn6   Zn    Zn3+2 0.569080 0.500080 0.569140 1.025898

loop_
_geom_bond_atom_site_label_1
_geom_bond_atom_site_label_2
_ccdc_geom_bond_type
C24   O30   A    
C41   C42   A    
O12   Zn4   S    
C2    N3    S    
C35   C36   A    
C12   C48   A    
C21   C49   S    
C21   O26   A    
C6    H23   S    
C39   C41   A    
C3    H12   S    
O11   Zn2   S    
C26   O5    A    
C12   C23   A    
O27   Zn3   S    
C1    C5    S    
O17   Zn3   S    
O9    Zn6   S    
C25   O31   A    
C30   C31   A    
C16   O13   A    
C27   O6    A    
C18   C19   A    
C26   O3    A    
C17   H26   S    
C8    C24   S    
C46   C47   A    
C31   C32   A    
C27   C39   S    
C8    C9    A    
C40   H28   S    
C27   O7    A    
C9    C10   A    
O23   Zn3   S    
O30   Zn4   S    
C45   O24   S    
C28   O16   A    
C1    O4    A    
H10   N1    S    
C24   O29   A    
C51   O25   S    
H19   O24   S    
C46   H6    S    
C35   H2    S    
C31   O21   S    
C44   C46   A    
C15   C29   S    
C1    O1    A    
C13   H25   S    
C13   C19   A    
H11   N1    S    
C51   C52   A    
H14   O20   S    
C7    C8    A    
H18   O22   S    
C6    C11   A    
C4    C23   S    
O10   Zn1   S    
H15   O21   S    
C20   O17   A    
C50   C51   A    
C10   N1    S    
C37   H3    S    
C12   C40   A    
C37   C38   A    
H17   N2    S    
C26   C52   S    
C4    O11   A    
C47   C48   A    
C45   C49   A    
C23   C34   A    
O2    Zn6   S    
C17   C18   A    
C34   C45   A    
C18   O20   S    
O13   Zn1   S    
C21   O23   A    
C2    C52   A    
C4    O10   A    
C30   H27   S    
C28   O15   A    
C48   C49   A    
C22   O27   A    
C22   O28   A    
C37   C43   A    
C42   C43   A    
H13   O19   S    
O15   Zn1   S    
O14   Zn2   S    
C15   C17   A    
H20   O25   S    
C9    O18   S    
H21   N3    S    
H16   N2    S    
O1    Zn1   S    
C42   N2    S    
H22   N3    S    
C3    C5    A    
O26   Zn4   S    
O28   Zn4   S    
C6    C7    A    
C44   O22   S    
C30   C36   A    
C50   H8    S    
C32   C33   A    
C2    C3    A    
O8    Zn5   S    
C41   H5    S    
O3    Zn5   S    
C29   O9    A    
C16   O14   A    
C14   O19   S    
C38   C39   A    
O5    Zn6   S    
C11   C28   S    
C25   C32   S    
C16   C19   S    
C25   O2    A    
C33   C35   A    
H9    O18   S    
C29   O8    A    
C20   O12   A    
C5    C50   A    
C10   C11   A    
C47   H7    S    
O29   Zn3   S    
C20   C36   S    
C40   C44   A    
C38   H4    S    
C34   H1    S    
O31   Zn5   S    
O7    Zn6   S    
C14   C15   A    
O16   Zn2   S    
O4    Zn2   S    
C13   C14   A    
C33   H29   S    
C22   C43   S    
O6    Zn5   S    
C7    H24   S    
