data_mof_unit_28027.cif
_audit_creation_date              2012-12-10T19:10:06-0500
_audit_creation_method            fapswitch 2.2
_symmetry_space_group_name_H-M    P1
_symmetry_Int_Tables_number       1
_space_group_crystal_system       triclinic
_cell_length_a                    10.900904
_cell_length_b                    10.775858
_cell_length_c                    9.599935
_cell_angle_alpha                 89.056178
_cell_angle_beta                  91.053989
_cell_angle_gamma                 90.514552
_cell_volume                      1127.28542843

loop_
_atom_site_label
_atom_site_type_symbol
_atom_type_description
_atom_site_fract_x
_atom_site_fract_y
_atom_site_fract_z
_atom_type_partial_charge
C1    C     C_R   0.499394 0.262547 0.501033 0.775502
C2    C     C_R   0.840874 0.516068 0.000305 -0.121448
C3    C     C_R   0.801225 0.394602 0.029179 -0.109941
C4    C     C_R   0.262358 0.498649 0.498461 0.785831
C5    C     C_R   0.805640 0.304660 0.926497 -0.152015
C6    C     C_R   0.849289 0.336110 0.794720 -0.096587
C7    C     C_R   0.889493 0.457823 0.765787 0.143719
C8    C     C_R   0.401144 0.060576 0.554840 0.037540
C9    C     C_R   0.499276 0.128996 0.500878 -0.030842
C10   C     C_R   0.586913 0.066688 0.423003 -0.190245
C11   C     C_R   0.585573 0.936868 0.419876 -0.212422
C12   C     C_R   0.198217 0.397422 0.973134 -0.086902
C13   C     C_R   0.494372 0.870001 0.491319 -0.039883
C14   C     C_R   0.395383 0.933935 0.543454 0.087785
C15   C     C_3   0.320451 0.916919 0.670602 -0.529101
C16   C     C_R   0.498211 0.737101 0.498364 0.794297
C17   C     C_3   0.333219 0.057167 0.689651 -0.187617
C18   C     C_R   0.487272 0.608033 0.071517 0.270103
C19   C     C_R   0.505817 0.392399 0.075783 -0.048765
C20   C     C_R   0.507429 0.392777 0.927960 -0.042772
C21   C     C_R   0.488328 0.608185 0.924362 0.232391
C22   C     C_3   0.574753 0.716719 0.921413 -0.477407
C23   C     C_R   0.931618 0.491332 0.377263 -0.253854
C24   C     C_3   0.570399 0.718168 0.078983 -0.507699
C25   C     C_R   0.737632 0.496633 0.501625 0.785018
C26   C     C_R   0.189119 0.521950 0.010475 -0.163644
C27   C     C_R   0.144686 0.552521 0.141144 -0.111218
C28   C     C_R   0.110503 0.458034 0.235239 0.147051
C29   C     C_R   0.118596 0.333468 0.196622 -0.154090
C30   C     C_R   0.161819 0.303447 0.065679 -0.093623
C31   C     C_2   0.411126 0.085942 0.816389 0.866223
C32   C     C_R   0.871781 0.492360 0.504357 -0.089852
C33   C     C_R   0.941854 0.488189 0.629241 -0.001668
C34   C     C_R   0.068455 0.498604 0.623326 -0.248822
C35   C     C_R   0.128343 0.496584 0.495833 -0.086050
C36   C     C_R   0.058293 0.487440 0.371140 -0.002404
C37   C     C_R   0.886256 0.547424 0.869438 -0.147560
Cu1   Cu    Cu3+1 0.499990 0.499980 0.640670 0.947322
Cu2   Cu    Cu3+1 0.500010 0.500020 0.359330 0.942715
H1    H     H_    0.233471 0.373369 0.872606 0.150943
H2    H     H_    0.513199 0.304566 0.130742 0.158036
H3    H     H_    0.216168 0.594762 0.938086 0.120578
H4    H     H_    0.518548 0.306551 0.875370 0.175473
H5    H     H_    0.666183 0.692717 0.881019 0.217687
H6    H     H_    0.533973 0.800822 0.872528 0.221547
H7    H     H_    0.659566 0.697401 0.131597 0.203615
H8    H     H_    0.522905 0.800850 0.118981 0.207590
H9    H     H_    0.136914 0.649068 0.168989 0.113963
H10   H     H_    0.090210 0.259868 0.267521 0.117567
H11   H     H_    0.166391 0.207281 0.036008 0.170697
H12   H     H_    0.765767 0.369848 0.130422 0.130487
H13   H     H_    0.879384 0.487546 0.281702 0.157921
H14   H     H_    0.120374 0.501512 0.719963 0.159755
H15   H     H_    0.918329 0.641222 0.848672 0.116192
H16   H     H_    0.837131 0.586459 0.078790 0.114934
H17   H     H_    0.577177 0.078211 0.912444 0.306504
H18   H     H_    0.774802 0.210844 0.948908 0.123035
H19   H     H_    0.852827 0.265743 0.715628 0.114712
H20   H     H_    0.659127 0.117818 0.370557 0.130310
H21   H     H_    0.658127 0.889003 0.367565 0.136959
H22   H     H_    0.224984 0.887514 0.643928 0.180698
H23   H     H_    0.365314 0.858231 0.752186 0.203224
H24   H     H_    0.244043 0.106552 0.683419 0.123547
N1    N     N_R   0.500790 0.500930 0.147930 -0.190326
N2    N     N_R   0.500790 0.500890 0.852020 -0.194318
O1    O     O_R   0.500000 0.319640 0.618810 -0.584113
O2    O     O_R   0.536339 0.058268 0.819672 -0.770812
O3    O     O_R   0.500010 0.319680 0.381230 -0.593039
O4    O     O_R   0.319640 0.499990 0.618790 -0.597822
O5    O     O_R   0.319650 0.500030 0.381210 -0.564443
O6    O     O_R   0.499990 0.680320 0.618770 -0.578707
O7    O     O_R   0.500000 0.680360 0.381190 -0.586811
O8    O     O_R   0.680350 0.499970 0.618790 -0.564164
O9    O     O_R   0.680360 0.500010 0.381210 -0.596910
O10   O     O_2   0.363091 0.128918 0.918644 -0.663570

loop_
_geom_bond_atom_site_label_1
_geom_bond_atom_site_label_2
_ccdc_geom_bond_type
C27   H9    S    
C18   C21   A    
Cu2   O3    S    
C6    H19   S    
C35   C36   A    
C16   O7    A    
C4    O5    A    
C29   H10   S    
C31   O2    S    
Cu2   N1    S    
C26   C27   A    
C18   C24   S    
C28   C29   A    
C34   C35   A    
C2    H16   S    
C5    C6    A    
C1    O3    A    
C25   O9    A    
Cu2   O9    S    
C15   H23   S    
C22   H5    S    
Cu1   O1    S    
C8    C9    A    
Cu2   O7    S    
C9    C10   A    
C12   C30   A    
C25   C32   S    
C30   H11   S    
Cu1   O4    S    
C13   C14   A    
C7    C33   S    
C16   O6    A    
C4    O4    A    
C33   C34   A    
C7    C37   A    
C20   N2    A    
C1    C9    S    
C3    H12   S    
C32   C33   A    
C12   C26   A    
C12   H1    S    
C29   C30   A    
C31   O10   D    
Cu1   N2    S    
C19   N1    A    
C1    O1    A    
C15   H22   S    
C37   H15   S    
C17   C31   S    
C22   C24   S    
C11   H21   S    
C20   H4    S    
C26   H3    S    
C15   C17   S    
Cu1   O6    S    
C8    C14   A    
C21   N2    A    
C24   H8    S    
C3    C5    A    
C6    C7    A    
H17   O2    S    
C8    C17   S    
C5    H18   S    
C24   H7    S    
C23   C32   A    
C19   C20   A    
C2    C3    A    
C17   H24   S    
C11   C13   A    
C2    C37   A    
C18   N1    A    
C23   H13   S    
Cu1   Cu2   S    
Cu2   O5    S    
C10   H20   S    
C25   O8    A    
C4    C35   S    
C10   C11   A    
C22   H6    S    
C28   C36   S    
C34   H14   S    
C23   C36   A    
C13   C16   S    
C27   C28   A    
C14   C15   S    
C21   C22   S    
C19   H2    S    
Cu1   O8    S    
