data_mof_unit_20965.cif
_audit_creation_date              2012-10-26T18:27:32-0400
_audit_creation_method            fapswitch 2.2
_symmetry_space_group_name_H-M    P1
_symmetry_Int_Tables_number       1
_space_group_crystal_system       triclinic
_cell_length_a                    10.765101
_cell_length_b                    10.906584
_cell_length_c                    9.794451
_cell_angle_alpha                 110.496744
_cell_angle_beta                  97.315739
_cell_angle_gamma                 90.941804
_cell_volume                      1066.09300334

loop_
_atom_site_label
_atom_site_type_symbol
_atom_type_description
_atom_site_fract_x
_atom_site_fract_y
_atom_site_fract_z
_atom_type_partial_charge
C1    C     C_R   0.485349 0.253194 0.442141 0.555745
C2    C     C_2   0.421595 0.928804 0.494848 0.297639
C3    C     C_2   0.503133 0.519474 0.083515 0.002525
C4    C     C_R   0.263341 0.509538 0.504787 0.602114
C5    C     C_2   0.475827 0.505996 0.923686 0.388506
C6    C     C_R   0.508403 0.747151 0.558244 0.584527
C7    C     C_R   0.737079 0.499634 0.497438 0.523655
C8    C     C_R   0.142483 0.754009 0.680620 0.269197
C9    C     C_R   0.078233 0.868952 0.735114 -0.126205
C10   C     C_R   0.948482 0.865425 0.710739 -0.179786
C11   C     C_R   0.879976 0.747435 0.633144 -0.123897
C12   C     C_R   0.073646 0.634025 0.589046 0.023424
C13   C     C_R   0.940652 0.630758 0.573129 -0.018330
C14   C     C_3   0.600566 0.021045 0.250336 -0.142514
C15   C     C_3   0.258851 0.487984 0.897932 -0.111339
C16   C     C_3   0.305260 0.806800 0.871189 -0.093475
C17   C     C_3   0.223333 0.878053 0.358882 -0.118848
C18   C     C_3   0.306146 0.124411 0.709352 -0.098316
C19   C     C_3   0.610178 0.969200 0.825077 -0.115992
C20   C     C_R   0.129973 0.516640 0.511809 0.002964
C21   C     C_R   0.056359 0.401707 0.427837 -0.168524
C22   C     C_R   0.927643 0.398203 0.421384 -0.155488
C23   C     C_R   0.870262 0.510842 0.495112 0.013315
C24   C     C_2   0.464848 0.111540 0.413969 0.253583
C25   C     C_2   0.424497 0.071189 0.517979 0.282038
C26   C     C_2   0.503678 0.889191 0.585655 0.265125
Cu1   Cu    Cu3+1 0.521920 0.521810 0.644910 1.020436
Cu2   Cu    Cu3+1 0.478080 0.478190 0.355090 0.958228
H1    H     H_    0.099415 0.313037 0.368671 0.114280
H2    H     H_    0.628692 0.112439 0.233050 0.126210
H3    H     H_    0.609689 0.937616 0.148018 0.119214
H4    H     H_    0.275543 0.584165 0.990666 0.102697
H5    H     H_    0.190913 0.501804 0.810325 0.149363
H6    H     H_    0.212626 0.416634 0.935965 0.092992
H7    H     H_    0.237592 0.771556 0.928604 0.102104
H8    H     H_    0.314587 0.915639 0.915564 0.108009
H9    H     H_    0.397807 0.771410 0.898035 0.165458
H10   H     H_    0.164950 0.797873 0.269636 0.137574
H11   H     H_    0.221555 0.965558 0.325554 0.117797
H12   H     H_    0.572019 0.595417 0.156492 0.118146
H13   H     H_    0.179963 0.896347 0.460760 0.107125
H14   H     H_    0.296166 0.200149 0.816749 0.155193
H15   H     H_    0.319813 0.031852 0.730776 0.113625
H16   H     H_    0.217849 0.117091 0.633627 0.087304
H17   H     H_    0.673207 0.890074 0.826669 0.119977
H18   H     H_    0.519352 0.954445 0.861324 0.126693
H19   H     H_    0.656859 0.061986 0.906719 0.142197
H20   H     H_    0.636070 0.603507 0.928201 0.147599
H21   H     H_    0.386427 0.368039 0.065877 0.222906
H22   H     H_    0.129095 0.961890 0.798827 0.093090
H23   H     H_    0.900581 0.954438 0.754109 0.137030
H24   H     H_    0.778919 0.749048 0.617409 0.138337
H25   H     H_    0.872568 0.306793 0.360380 0.106468
H26   H     H_    0.665643 0.007693 0.341338 0.117508
N1    N     N_2   0.445130 0.445430 0.137370 -0.351689
N2    N     N_2   0.554930 0.554500 0.862630 -0.333710
O1    O     O_R   0.511700 0.332330 0.577400 -0.420526
O2    O     O_3   0.367721 0.435716 0.837308 -0.494556
O3    O     O_3   0.271526 0.759518 0.716241 -0.573230
O4    O     O_3   0.345915 0.836804 0.375404 -0.551417
O5    O     O_3   0.410056 0.162471 0.655397 -0.520165
O6    O     O_3   0.593846 0.981624 0.685654 -0.601242
O7    O     O_R   0.474680 0.295500 0.332650 -0.506384
O8    O     O_R   0.338160 0.518420 0.622400 -0.414716
O9    O     O_R   0.301140 0.481590 0.377650 -0.501467
O10   O     O_R   0.525320 0.704500 0.667350 -0.514365
O11   O     O_R   0.488300 0.667670 0.422600 -0.463498
O12   O     O_R   0.698860 0.518410 0.622350 -0.509952
O13   O     O_R   0.661840 0.481580 0.377600 -0.512137
O14   O     O_3   0.474712 0.019822 0.276080 -0.590147

loop_
_geom_bond_atom_site_label_1
_geom_bond_atom_site_label_2
_ccdc_geom_bond_type
C7    O13   A    
C19   H17   S    
C18   O5    S    
Cu1   O12   S    
C4    C20   S    
C18   H16   S    
C2    C25   S    
C11   C13   A    
C9    C10   A    
C4    O8    A    
C15   H6    S    
Cu2   O13   S    
C16   H9    S    
C8    C12   A    
H21   N1    S    
C12   C20   A    
Cu1   O8    S    
Cu2   O9    S    
C26   O6    S    
C19   H18   S    
C24   O14   S    
C15   H4    S    
C2    C26   D    
Cu1   O10   S    
C25   O5    S    
C21   C22   A    
C16   H8    S    
C12   C13   A    
C14   O14   S    
C6    C26   S    
C3    N1    D    
C5    O2    S    
C14   H2    S    
C7    C23   S    
C10   H23   S    
C1    O7    A    
C6    O11   A    
C14   H26   S    
Cu2   N1    S    
C3    H12   S    
C22   H25   S    
C17   H13   S    
C17   H10   S    
C18   H14   S    
C8    O3    S    
Cu1   O1    S    
C4    O9    A    
Cu1   N2    S    
C15   O2    S    
C2    O4    S    
C10   C11   A    
C17   O4    S    
C16   H7    S    
Cu2   O7    S    
C6    O10   A    
Cu2   O11   S    
C24   C25   D    
C13   C23   A    
C1    C24   S    
C17   H11   S    
C19   H19   S    
Cu1   Cu2   S    
H20   N2    S    
C14   H3    S    
C22   C23   A    
C7    O12   A    
C11   H24   S    
C19   O6    S    
C20   C21   A    
C18   H15   S    
C21   H1    S    
C5    N2    D    
C15   H5    S    
C9    H22   S    
C8    C9    A    
C3    C5    S    
C16   O3    S    
C1    O1    A    
