data_mof_unit_65619.cif
_audit_creation_date              2013-03-05T16:25:39-0500
_audit_creation_method            fapswitch 2.2
_symmetry_space_group_name_H-M    P1
_symmetry_Int_Tables_number       1
_space_group_crystal_system       triclinic
_cell_length_a                    18.262061
_cell_length_b                    30.721911
_cell_length_c                    30.505339
_cell_angle_alpha                 90.06364
_cell_angle_beta                  90.035191
_cell_angle_gamma                 89.948221
_cell_volume                      17114.8597454

loop_
_atom_site_label
_atom_site_type_symbol
_atom_site_description
_atom_site_fract_x
_atom_site_fract_y
_atom_site_fract_z
_atom_type_partial_charge
O1    O     O_R   0.500000 0.730040 0.321660 -0.577111
O2    O     O_R   0.500000 0.730040 0.678340 -0.571635
O3    O     O_R   1.000000 0.230040 0.321660 -0.568828
O4    O     O_R   1.000000 0.230040 0.678340 -0.564556
O5    O     O_R   1.000000 0.730040 0.821660 -0.568948
O6    O     O_R   1.000000 0.730040 0.178340 -0.564782
O7    O     O_R   0.500000 0.230040 0.821660 -0.564400
O8    O     O_R   0.500000 0.230040 0.178340 -0.568752
O9    O     O_R   0.500000 0.678320 0.269940 -0.623467
O10   O     O_R   0.500000 0.678320 0.730060 -0.616974
O11   O     O_R   1.000000 0.178320 0.269940 -0.618556
O12   O     O_R   0.000000 0.178320 0.730060 -0.627742
O13   O     O_R   1.000000 0.678320 0.769940 -0.617737
O14   O     O_R   1.000000 0.678320 0.230060 -0.627190
O15   O     O_R   0.500000 0.178320 0.769940 -0.627937
O16   O     O_R   0.500000 0.178320 0.230060 -0.619415
C1    C     C_R   0.499749 0.690086 0.310050 0.891769
C2    C     C_R   0.499826 0.690110 0.689987 0.886217
C3    C     C_R   0.000312 0.190087 0.310047 0.886934
C4    C     C_R   0.001150 0.190038 0.689873 0.881735
C5    C     C_R   0.999639 0.690089 0.810047 0.887122
C6    C     C_R   0.998841 0.690040 0.189872 0.881171
C7    C     C_R   0.501217 0.190004 0.810150 0.884017
C8    C     C_R   0.500477 0.190099 0.189964 0.883832
O17   O     O_R   0.392670 0.775850 0.275850 -0.614281
O18   O     O_R   0.392670 0.775850 0.724150 -0.622000
O19   O     O_R   0.607330 0.775850 0.275850 -0.594535
O20   O     O_R   0.607330 0.775850 0.724150 -0.596077
O21   O     O_R   0.892670 0.275850 0.275850 -0.595998
O22   O     O_R   0.892670 0.275850 0.724150 -0.594898
O23   O     O_R   0.107330 0.275850 0.275850 -0.619330
O24   O     O_R   0.107330 0.275850 0.724150 -0.610278
O25   O     O_R   0.892670 0.775850 0.775850 -0.620535
O26   O     O_R   0.892670 0.775850 0.224150 -0.613821
O27   O     O_R   0.107330 0.775850 0.775850 -0.595974
O28   O     O_R   0.107330 0.775850 0.224150 -0.594630
O29   O     O_R   0.392670 0.275850 0.775850 -0.596080
O30   O     O_R   0.392670 0.275850 0.224150 -0.595094
O31   O     O_R   0.607330 0.275850 0.775850 -0.608697
O32   O     O_R   0.607330 0.275850 0.224150 -0.620077
O33   O     O_R   0.392690 0.724130 0.224130 -0.597667
O34   O     O_R   0.392690 0.724130 0.775870 -0.593202
O35   O     O_R   0.607310 0.724130 0.224130 -0.618685
O36   O     O_R   0.607310 0.724130 0.775870 -0.607974
O37   O     O_R   0.892690 0.224130 0.224130 -0.620566
O38   O     O_R   0.892690 0.224130 0.775870 -0.606784
O39   O     O_R   0.107310 0.224130 0.224130 -0.584539
O40   O     O_R   0.107310 0.224130 0.775870 -0.610258
O41   O     O_R   0.892690 0.724130 0.724130 -0.580787
O42   O     O_R   0.892690 0.724130 0.275870 -0.600005
O43   O     O_R   0.107310 0.724130 0.724130 -0.621209
O44   O     O_R   0.107310 0.724130 0.275870 -0.608518
O45   O     O_R   0.392690 0.224130 0.724130 -0.618773
O46   O     O_R   0.392690 0.224130 0.275870 -0.609089
O47   O     O_R   0.607310 0.224130 0.724130 -0.598638
O48   O     O_R   0.607310 0.224130 0.275870 -0.594116
C9    C     C_R   0.358960 0.749984 0.249993 0.913240
C10   C     C_R   0.358985 0.750007 0.750010 0.900060
C11   C     C_R   0.641037 0.749972 0.250005 0.928586
C12   C     C_R   0.641013 0.749934 0.749982 0.935728
C13   C     C_R   0.858963 0.249950 0.250037 0.924043
C14   C     C_R   0.858988 0.249972 0.749965 0.927636
C15   C     C_R   0.141041 0.249993 0.249969 0.909177
C16   C     C_R   0.141014 0.249988 0.750041 0.905009
C17   C     C_R   0.858959 0.749978 0.749995 0.908671
C18   C     C_R   0.858985 0.750013 0.250014 0.903820
C19   C     C_R   0.141037 0.749963 0.750013 0.923870
C20   C     C_R   0.141012 0.749948 0.249995 0.926533
C21   C     C_R   0.358963 0.249969 0.750019 0.916141
C22   C     C_R   0.358987 0.249957 0.249950 0.933395
C23   C     C_R   0.641040 0.249997 0.749969 0.914811
C24   C     C_R   0.641016 0.249985 0.250043 0.900394
Zn1   Zn    Zn3+2 0.500000 0.784520 0.284530 1.085864
Zn2   Zn    Zn3+2 0.500000 0.784520 0.715470 1.076496
Zn3   Zn    Zn3+2 1.000000 0.284520 0.284530 1.083553
Zn4   Zn    Zn3+2 1.000000 0.284520 0.715470 1.093269
Zn5   Zn    Zn3+2 1.000000 0.784520 0.784530 1.082978
Zn6   Zn    Zn3+2 1.000000 0.784520 0.215470 1.092327
Zn7   Zn    Zn3+2 0.500000 0.284520 0.784530 1.096808
Zn8   Zn    Zn3+2 0.500000 0.284520 0.215470 1.082156
Zn9   Zn    Zn3+2 0.500000 0.715450 0.215460 1.085649
Zn10  Zn    Zn3+2 0.500000 0.715450 0.784540 1.103805
Zn11  Zn    Zn3+2 1.000000 0.215450 0.215460 1.098807
Zn12  Zn    Zn3+2 1.000000 0.215450 0.784540 1.083338
Zn13  Zn    Zn3+2 1.000000 0.715450 0.715460 1.101433
Zn14  Zn    Zn3+2 1.000000 0.715450 0.284540 1.091414
Zn15  Zn    Zn3+2 0.500000 0.215450 0.715460 1.081852
Zn16  Zn    Zn3+2 0.500000 0.215450 0.284540 1.101005
O49   O     O_R   0.500000 0.821650 0.230050 -0.627882
O50   O     O_R   0.500000 0.821650 0.769950 -0.635456
O51   O     O_R   1.000000 0.321650 0.230050 -0.628890
O52   O     O_R   1.000000 0.321650 0.769950 -0.633855
O53   O     O_R   1.000000 0.821650 0.730050 -0.628989
O54   O     O_R   1.000000 0.821650 0.269950 -0.634397
O55   O     O_R   0.500000 0.321650 0.730050 -0.627504
O56   O     O_R   0.500000 0.321650 0.269950 -0.635245
O57   O     O_R   0.500000 0.769930 0.178330 -0.564442
O58   O     O_R   0.500000 0.769930 0.821670 -0.558620
O59   O     O_R   1.000000 0.269930 0.178330 -0.563331
O60   O     O_R   1.000000 0.269930 0.821670 -0.560122
O61   O     O_R   0.000000 0.769930 0.678330 -0.563683
O62   O     O_R   0.000000 0.769930 0.321670 -0.559234
O63   O     O_R   0.500000 0.269930 0.678330 -0.564095
O64   O     O_R   0.500000 0.269930 0.321670 -0.558457
C25   C     C_R   0.499152 0.809840 0.189834 0.952568
C26   C     C_R   0.501328 0.809886 0.810256 0.958715
C27   C     C_R   0.000882 0.309838 0.189830 0.951158
C28   C     C_R   0.998676 0.309885 0.810252 0.960981
C29   C     C_R   0.999128 0.809838 0.689827 0.950385
C30   C     C_R   0.001321 0.809883 0.310252 0.960087
C31   C     C_R   0.500861 0.309839 0.689837 0.953003
C32   C     C_R   0.498672 0.309887 0.310256 0.958665
C33   C     C_1   0.282403 0.749950 0.250008 -0.125227
C34   C     C_1   0.282427 0.750004 0.749996 -0.122068
C35   C     C_1   0.717590 0.749987 0.249997 -0.113577
C36   C     C_1   0.717565 0.749909 0.750002 -0.097688
C37   C     C_1   0.782410 0.249931 0.250077 -0.111468
C38   C     C_1   0.782434 0.249990 0.749927 -0.116268
C39   C     C_1   0.217598 0.249983 0.249924 -0.112607
C40   C     C_1   0.217571 0.249958 0.750071 -0.134404
C41   C     C_1   0.782402 0.749935 0.750003 -0.108919
C42   C     C_1   0.782427 0.750013 0.249996 -0.123323
C43   C     C_1   0.217590 0.749978 0.750001 -0.112466
C44   C     C_1   0.217566 0.749927 0.250013 -0.117954
C45   C     C_1   0.282409 0.249953 0.750057 -0.130160
C46   C     C_1   0.282435 0.249971 0.249912 -0.101933
C47   C     C_1   0.717596 0.249997 0.749934 -0.122269
C48   C     C_1   0.717573 0.249943 0.250084 -0.120724
C49   C     C_R   0.541639 0.660277 0.379667 0.037385
C50   C     C_R   0.564636 0.644830 0.637742 0.005100
C51   C     C_R   0.936487 0.147201 0.364784 0.009596
C52   C     C_R   0.948033 0.157062 0.624457 0.003040
C53   C     C_R   0.063417 0.647113 0.864810 0.009818
C54   C     C_R   0.051849 0.657063 0.124433 0.003185
C55   C     C_R   0.450442 0.158312 0.876923 0.010744
C56   C     C_R   0.437001 0.147824 0.134566 0.000770
C57   C     C_R   0.497855 0.657343 0.342788 -0.082241
C58   C     C_R   0.499316 0.657047 0.657573 -0.061808
C59   C     C_R   0.000730 0.157023 0.342512 -0.064181
C60   C     C_R   0.001245 0.156907 0.657160 -0.081537
C61   C     C_R   0.999172 0.657035 0.842515 -0.064693
C62   C     C_R   0.998738 0.656911 0.157156 -0.082122
C63   C     C_R   0.501140 0.156818 0.842861 -0.082553
C64   C     C_R   0.500908 0.157029 0.157491 -0.064834
C65   C     C_R   0.452587 0.620572 0.337845 -0.176333
C66   C     C_R   0.436335 0.631783 0.651667 -0.176918
C67   C     C_R   0.061657 0.129578 0.346344 -0.175456
C68   C     C_R   0.048181 0.120996 0.661592 -0.167368
C69   C     C_R   0.938176 0.629712 0.846360 -0.174474
C70   C     C_R   0.951897 0.621010 0.161593 -0.166207
C71   C     C_R   0.545187 0.119742 0.837352 -0.167842
C72   C     C_R   0.561158 0.128971 0.154309 -0.174085
H1    H     H_    0.417249 0.617130 0.309513 0.169492
H2    H     H_    0.386600 0.638871 0.669686 0.155530
H3    H     H_    0.110171 0.134872 0.326622 0.155214
H4    H     H_    0.087025 0.119143 0.688394 0.170769
H5    H     H_    0.889645 0.635090 0.826627 0.156200
H6    H     H_    0.913130 0.619161 0.188404 0.172577
H7    H     H_    0.581964 0.116868 0.809636 0.167705
H8    H     H_    0.609260 0.133810 0.174553 0.158810
C73   C     C_R   0.452418 0.588259 0.370221 -0.120797
C74   C     C_R   0.436593 0.598697 0.620448 -0.107365
C75   C     C_R   0.061322 0.096651 0.377690 -0.120479
C76   C     C_R   0.047930 0.088586 0.629680 -0.113072
C77   C     C_R   0.938483 0.596800 0.877727 -0.120231
C78   C     C_R   0.952138 0.588604 0.129677 -0.112913
C79   C     C_R   0.544924 0.087389 0.869273 -0.115552
C80   C     C_R   0.560763 0.096020 0.122935 -0.104467
H9    H     H_    0.416979 0.560221 0.366558 0.190495
H10   H     H_    0.386536 0.580832 0.614238 0.191069
H11   H     H_    0.110081 0.077071 0.382262 0.180485
H12   H     H_    0.086851 0.062031 0.631791 0.209187
H13   H     H_    0.889694 0.577307 0.882303 0.180907
H14   H     H_    0.913289 0.562057 0.131794 0.209774
H15   H     H_    0.581663 0.059842 0.866203 0.190421
H16   H     H_    0.609053 0.075924 0.118843 0.194344
C81   C     C_R   0.499341 0.592167 0.406620 -0.030173
C82   C     C_R   0.500574 0.590502 0.596201 -0.062554
C83   C     C_R   0.999057 0.090640 0.404026 -0.054348
C84   C     C_R   0.998561 0.091478 0.594630 -0.059027
C85   C     C_R   0.000785 0.590681 0.904066 -0.054890
C86   C     C_R   0.001408 0.591489 0.094618 -0.059372
C87   C     C_R   0.498393 0.091547 0.905521 -0.045081
C88   C     C_R   0.499042 0.090620 0.095976 -0.063030
C89   C     C_R   0.543674 0.628456 0.409752 -0.019769
C90   C     C_R   0.565488 0.611521 0.607757 0.032509
C91   C     C_R   0.935271 0.113879 0.394697 0.054931
C92   C     C_R   0.945371 0.123960 0.594229 0.018399
C93   C     C_R   0.064601 0.613807 0.894737 0.055411
C94   C     C_R   0.054510 0.623963 0.094203 0.018526
C95   C     C_R   0.447603 0.125313 0.907216 0.025576
C96   C     C_R   0.435631 0.114444 0.104678 0.030345
C97   C     C_3   0.600015 0.650382 0.437333 -0.498545
C98   C     C_3   0.622133 0.633017 0.579877 -0.484868
C99   C     C_3   0.883609 0.137249 0.424537 -0.496742
C100  C     C_3   0.922648 0.153437 0.557785 -0.523134
C101  C     C_3   0.116352 0.637099 0.924579 -0.496492
C102  C     C_3   0.077043 0.653440 0.057752 -0.523169
C103  C     C_3   0.429665 0.155368 0.944175 -0.534273
C104  C     C_3   0.385377 0.138214 0.074322 -0.493519
C105  C     C_3   0.598373 0.686751 0.402499 0.691792
C106  C     C_3   0.620485 0.670358 0.612743 0.666058
C107  C     C_3   0.885852 0.174613 0.391793 0.667655
C108  C     C_3   0.927078 0.190432 0.590900 0.702347
C109  C     C_3   0.114139 0.674451 0.891818 0.667379
C110  C     C_3   0.072604 0.690433 0.090869 0.702498
C111  C     C_3   0.434389 0.192196 0.910978 0.705740
C112  C     C_3   0.387866 0.175666 0.107034 0.674809
H17   H     H_    0.577690 0.660213 0.469748 0.213138
H18   H     H_    0.600886 0.641521 0.546835 0.198980
H19   H     H_    0.652110 0.631665 0.438522 0.235942
H20   H     H_    0.674377 0.614425 0.579664 0.232964
H21   H     H_    0.829722 0.120568 0.426467 0.237537
H22   H     H_    0.866199 0.146172 0.546269 0.231749
H23   H     H_    0.908729 0.144831 0.456839 0.198543
H24   H     H_    0.964354 0.155028 0.531280 0.206106
H25   H     H_    0.091292 0.644741 0.956872 0.198526
H26   H     H_    0.035259 0.655034 0.031258 0.206151
H27   H     H_    0.170209 0.620324 0.926530 0.237717
H28   H     H_    0.133480 0.646170 0.046220 0.231784
H29   H     H_    0.373601 0.149554 0.957064 0.233203
H30   H     H_    0.331081 0.122065 0.071883 0.233293
H31   H     H_    0.473295 0.155913 0.969630 0.207001
H32   H     H_    0.411531 0.145423 0.042276 0.199343
C113  C     C_R   0.534186 0.880920 0.161745 -0.134900
C114  C     C_R   0.455240 0.878214 0.840077 -0.115884
C115  C     C_R   0.966610 0.381164 0.161942 -0.134212
C116  C     C_R   0.045215 0.377960 0.840305 -0.119002
C117  C     C_R   0.033490 0.881119 0.661958 -0.134039
C118  C     C_R   0.954716 0.877974 0.340306 -0.118415
C119  C     C_R   0.465911 0.380962 0.661727 -0.134832
C120  C     C_R   0.544695 0.378199 0.340079 -0.116349
C121  C     C_R   0.497355 0.842016 0.156362 -0.242467
C122  C     C_R   0.500227 0.841904 0.844243 -0.260970
C123  C     C_R   0.002703 0.342013 0.156353 -0.244771
C124  C     C_R   0.999746 0.341893 0.844238 -0.260843
C125  C     C_R   0.997403 0.842004 0.656334 -0.244958
C126  C     C_R   0.000270 0.841892 0.344235 -0.259767
C127  C     C_R   0.502755 0.342025 0.656381 -0.242150
C128  C     C_R   0.499793 0.341903 0.344247 -0.260891
C129  C     C_R   0.459854 0.834599 0.116518 0.603726
C130  C     C_R   0.537879 0.834423 0.883816 0.602575
C131  C     C_R   0.039558 0.334401 0.116342 0.604366
C132  C     C_R   0.961634 0.334566 0.883642 0.603967
C133  C     C_R   0.960690 0.834400 0.616254 0.603513
C134  C     C_R   0.038500 0.834557 0.383632 0.602888
C135  C     C_R   0.540401 0.334600 0.616608 0.603615
C136  C     C_R   0.462261 0.334430 0.383828 0.602801
C137  C     C_R   0.460318 0.866621 0.083715 0.309592
C138  C     C_R   0.537671 0.866295 0.916373 0.312996
C139  C     C_R   0.039146 0.366469 0.083580 0.308034
C140  C     C_R   0.961871 0.366410 0.916227 0.313789
C141  C     C_R   0.961160 0.866455 0.583484 0.307889
C142  C     C_R   0.038285 0.866407 0.416212 0.313782
C143  C     C_R   0.539994 0.366637 0.583813 0.309772
C144  C     C_R   0.462490 0.366296 0.416390 0.312946
C145  C     C_R   0.499531 0.905611 0.090868 -0.273907
C146  C     C_R   0.498730 0.905127 0.909057 -0.288190
C147  C     C_R   0.000677 0.405708 0.090955 -0.273635
C148  C     C_R   0.001322 0.405056 0.909112 -0.288547
C149  C     C_R   0.999547 0.905675 0.590915 -0.273870
C150  C     C_R   0.998729 0.905064 0.409102 -0.288179
C151  C     C_R   0.500691 0.405642 0.590906 -0.274002
C152  C     C_R   0.501324 0.405117 0.409069 -0.288113
C153  C     C_R   0.536299 0.910992 0.130006 -0.058983
C154  C     C_R   0.453766 0.909221 0.872480 -0.020438
C155  C     C_R   0.964630 0.411316 0.130278 -0.055203
C156  C     C_R   0.046723 0.408932 0.872738 -0.022717
C157  C     C_R   0.035533 0.911257 0.630283 -0.055009
C158  C     C_R   0.953225 0.908949 0.372736 -0.022954
C159  C     C_R   0.463855 0.411046 0.629996 -0.060232
C160  C     C_R   0.546188 0.409200 0.372485 -0.021183
C161  C     C_3   0.581930 0.941458 0.156289 1.175046
C162  C     C_3   0.448355 0.945403 0.839968 1.140687
C163  C     C_3   0.920046 0.442095 0.156861 1.164837
C164  C     C_3   0.052976 0.445107 0.840285 1.145928
C165  C     C_3   0.079877 0.942054 0.656965 1.164026
C166  C     C_3   0.946811 0.945123 0.340280 1.145631
C167  C     C_3   0.417977 0.441491 0.656175 1.177413
C168  C     C_3   0.551451 0.445385 0.339979 1.141891
C169  C     C_3   0.580302 0.906732 0.192629 -0.464145
C170  C     C_3   0.450109 0.911120 0.804133 -0.468523
C171  C     C_3   0.921461 0.407263 0.193095 -0.459405
C172  C     C_3   0.051159 0.410862 0.804411 -0.467393
C173  C     C_3   0.078403 0.907235 0.693210 -0.460234
C174  C     C_3   0.948608 0.910873 0.304410 -0.468145
C175  C     C_3   0.419554 0.406754 0.692506 -0.464398
C176  C     C_3   0.549669 0.411109 0.304138 -0.467769
H33   H     H_    0.634204 0.891052 0.198822 0.201176
H34   H     H_    0.500313 0.912351 0.783551 0.209731
H35   H     H_    0.549505 0.916868 0.222361 0.215052
H36   H     H_    0.397830 0.908412 0.785651 0.212555
H37   H     H_    0.952874 0.417060 0.222722 0.214126
H38   H     H_    0.103597 0.407871 0.786166 0.213378
H39   H     H_    0.867330 0.392011 0.199474 0.200363
H40   H     H_    0.001192 0.412390 0.783603 0.211391
H41   H     H_    0.132550 0.891991 0.699732 0.199953
H42   H     H_    0.998516 0.912384 0.283591 0.211177
H43   H     H_    0.046813 0.917044 0.722754 0.213986
H44   H     H_    0.896128 0.907897 0.286175 0.213280
H45   H     H_    0.450170 0.416882 0.722319 0.215443
H46   H     H_    0.601904 0.408383 0.285645 0.212973
H47   H     H_    0.365676 0.391061 0.698558 0.201682
H48   H     H_    0.499407 0.412362 0.283567 0.209853
O65   O     O_R   0.439370 0.954170 0.954170 -0.588828
O66   O     O_R   0.439370 0.954170 0.045830 -0.598196
O67   O     O_R   0.560630 0.954170 0.954170 -0.590662
O68   O     O_R   0.560630 0.954170 0.045830 -0.576466
O69   O     O_R   0.939370 0.454170 0.954170 -0.588793
O70   O     O_R   0.939370 0.454170 0.045830 -0.577531
O71   O     O_R   0.060630 0.454170 0.954170 -0.588577
O72   O     O_R   0.060630 0.454170 0.045830 -0.598593
O73   O     O_R   0.939370 0.954170 0.454170 -0.588602
O74   O     O_R   0.939370 0.954170 0.545830 -0.598546
O75   O     O_R   0.060630 0.954170 0.454170 -0.589337
O76   O     O_R   0.060630 0.954170 0.545830 -0.578175
O77   O     O_R   0.439370 0.454170 0.454170 -0.590787
O78   O     O_R   0.439370 0.454170 0.545830 -0.575804
O79   O     O_R   0.560630 0.454170 0.454170 -0.588489
O80   O     O_R   0.560630 0.454170 0.545830 -0.598078
C177  C     C_R   0.499909 0.939654 0.940122 1.023086
C178  C     C_R   0.499976 0.939554 0.059586 1.008511
C179  C     C_R   0.000105 0.439620 0.940150 1.026158
C180  C     C_R   0.000094 0.439614 0.059643 1.006113
C181  C     C_R   0.999909 0.939622 0.440148 1.026763
C182  C     C_R   0.999977 0.939614 0.559643 1.006795
C183  C     C_R   0.500106 0.439651 0.440125 1.023209
C184  C     C_R   0.500095 0.439552 0.559585 1.009351
O81   O     O_R   0.439410 0.545780 0.454170 -0.632089
O82   O     O_R   0.439410 0.545780 0.545830 -0.622166
O83   O     O_R   0.560590 0.545780 0.454170 -0.607141
O84   O     O_R   0.560590 0.545780 0.545830 -0.624313
O85   O     O_R   0.939410 0.045780 0.454170 -0.609948
O86   O     O_R   0.939410 0.045780 0.545830 -0.618613
O87   O     O_R   0.060590 0.045780 0.454170 -0.631384
O88   O     O_R   0.060590 0.045780 0.545830 -0.618068
O89   O     O_R   0.939410 0.545780 0.954170 -0.631205
O90   O     O_R   0.939410 0.545780 0.045830 -0.617882
O91   O     O_R   0.060590 0.545780 0.954170 -0.609898
O92   O     O_R   0.060590 0.545780 0.045830 -0.618601
O93   O     O_R   0.439410 0.045780 0.954170 -0.603827
O94   O     O_R   0.439410 0.045780 0.045830 -0.622270
O95   O     O_R   0.560590 0.045780 0.954170 -0.628619
O96   O     O_R   0.560590 0.045780 0.045830 -0.621225
C185  C     C_R   0.499926 0.559970 0.439844 0.896172
C186  C     C_R   0.500046 0.559875 0.560671 0.883160
C187  C     C_R   0.999885 0.059902 0.439387 0.890755
C188  C     C_R   0.999866 0.060019 0.560292 0.882057
C189  C     C_R   0.000051 0.559912 0.939397 0.890666
C190  C     C_R   0.000121 0.560021 0.060289 0.881722
C191  C     C_R   0.499825 0.060028 0.939742 0.889959
C192  C     C_R   0.499904 0.059888 0.060616 0.881125
Zn17  Zn    Zn3+2 0.419100 0.999980 0.000000 1.090769
Zn18  Zn    Zn3+2 0.580900 0.999980 0.000000 1.096360
Zn19  Zn    Zn3+2 0.919100 0.499980 0.000000 1.097290
Zn20  Zn    Zn3+2 0.080900 0.499980 0.000000 1.089763
Zn21  Zn    Zn3+2 0.919100 0.999980 0.500000 1.088943
Zn22  Zn    Zn3+2 0.080900 0.999980 0.500000 1.094893
Zn23  Zn    Zn3+2 0.419100 0.499980 0.500000 1.094824
Zn24  Zn    Zn3+2 0.580900 0.499980 0.500000 1.088391
Cl1   Cl    Cl    0.564017 0.737478 0.422329 -0.469751
Cl2   Cl    Cl    0.587086 0.720097 0.589793 -0.479157
Cl3   Cl    Cl    0.680788 0.691702 0.371477 -0.537043
Cl4   Cl    Cl    0.703624 0.677018 0.642747 -0.528930
Cl5   Cl    Cl    0.800778 0.184472 0.364771 -0.532012
Cl6   Cl    Cl    0.840983 0.215304 0.602658 -0.481107
Cl7   Cl    Cl    0.926394 0.222884 0.413813 -0.476452
Cl8   Cl    Cl    0.997388 0.228871 0.578100 -0.482969
Cl9   Cl    Cl    0.073721 0.722802 0.913805 -0.476596
Cl10  Cl    Cl    0.002139 0.728874 0.078095 -0.483156
Cl11  Cl    Cl    0.199194 0.684148 0.864812 -0.531079
Cl12  Cl    Cl    0.158662 0.715303 0.102597 -0.480963
Cl13  Cl    Cl    0.349410 0.219261 0.901426 -0.494580
Cl14  Cl    Cl    0.302407 0.186504 0.133191 -0.518375
Cl15  Cl    Cl    0.508336 0.228782 0.921953 -0.481973
Cl16  Cl    Cl    0.430356 0.223417 0.085317 -0.471816
F1    F     F_    0.422037 0.797097 0.109837 -0.574222
F2    F     F_    0.578256 0.797695 0.889645 -0.590826
F3    F     F_    0.076709 0.296668 0.109449 -0.571239
F4    F     F_    0.920814 0.298026 0.889262 -0.588825
F5    F     F_    0.923581 0.796696 0.609310 -0.571991
F6    F     F_    0.079405 0.798002 0.389246 -0.591478
F7    F     F_    0.578264 0.297071 0.609982 -0.574367
F8    F     F_    0.421973 0.297716 0.389663 -0.590761
Cl17  Cl    Cl    0.413732 0.856498 0.034066 -0.425770
Cl18  Cl    Cl    0.587373 0.857116 0.965124 -0.441077
Cl19  Cl    Cl    0.084895 0.356128 0.033723 -0.427029
Cl20  Cl    Cl    0.911585 0.357421 0.964752 -0.438719
Cl21  Cl    Cl    0.915520 0.856137 0.533561 -0.428355
Cl22  Cl    Cl    0.088722 0.857408 0.464727 -0.444060
Cl23  Cl    Cl    0.586697 0.356491 0.534234 -0.425502
Cl24  Cl    Cl    0.412940 0.357125 0.465152 -0.441133
F9    F     F_    0.650634 0.948114 0.138422 -0.636531
F10   F     F_    0.508854 0.972567 0.839947 -0.689303
F11   F     F_    0.545434 0.979502 0.167028 -0.670319
F12   F     F_    0.382453 0.967523 0.842551 -0.631469
F13   F     F_    0.957559 0.479756 0.167574 -0.683780
F14   F     F_    0.119145 0.466840 0.843196 -0.628864
F15   F     F_    0.851235 0.449427 0.139333 -0.639608
F16   F     F_    0.992848 0.472626 0.840010 -0.675714
F17   F     F_    0.148747 0.949390 0.639606 -0.641054
F18   F     F_    0.006879 0.972623 0.339991 -0.676306
F19   F     F_    0.042180 0.979712 0.667568 -0.684141
F20   F     F_    0.880602 0.966877 0.343202 -0.629278
F21   F     F_    0.454274 0.479542 0.667016 -0.667263
F22   F     F_    0.617321 0.467475 0.342554 -0.629206
F23   F     F_    0.349334 0.448132 0.638138 -0.635485
F24   F     F_    0.490904 0.472577 0.339973 -0.688584

loop_
_geom_bond_atom_site_label_1
_geom_bond_atom_site_label_2
_geom_bond_distance
_ccdc_geom_bond_type
O84   Zn24  2.016752 S    
O29   C21   1.277086 A    
C102  C110  1.521900 S    
C147  C180  1.414100 S    
C162  C170  1.517491 S    
O45   C21   1.277314 A    
O1    Zn1   2.022006 S    
O34   C10   1.277934 A    
O30   C22   1.278063 A    
C53   C93   1.372184 A    
C137  Cl17  1.764168 S    
C155  C163  1.487391 S    
O65   C177  1.266515 A    
O38   C14   1.278098 A    
C165  F19   1.383863 S    
O77   Zn23  2.016832 S    
C49   C89   1.342115 A    
C97   H19   1.111806 S    
C99   C107  1.523085 S    
C141  C149  1.412584 A    
C97   C105  1.543057 S    
O12   Zn12  2.014696 S    
O67   C177  1.269663 A    
C162  F10   1.385199 S    
C134  F6    1.359165 S    
C109  Cl11  1.784108 S    
C117  C157  1.339565 A    
O48   C24   1.278051 A    
C18   C42   1.398096 S    
C118  C126  1.390573 A    
O3    C3    1.277146 A    
C116  C124  1.390595 A    
O39   Zn11  1.995405 S    
C100  C108  1.521917 S    
C67   H3    1.083726 S    
C50   C106  1.496864 S    
O57   C25   1.275057 A    
C22   C46   1.398002 S    
O67   Zn18  2.016984 S    
C159  C167  1.487377 S    
C104  C112  1.522890 S    
Zn10  O58   2.019920 S    
C52   C92   1.372865 A    
C102  H26   1.112285 S    
C176  H46   1.111602 S    
C52   C108  1.498835 S    
C16   C40   1.398086 S    
O16   Zn16  2.014696 S    
Zn3   O51   2.016788 S    
C78   H14   1.083471 S    
C36   C41   1.184058 T    
Zn12  O60   2.019920 S    
C164  F14   1.383857 S    
C145  C153  1.379293 A    
C40   C45   1.184078 T    
C118  C158  1.372192 A    
C133  C141  1.404070 A    
O10   Zn10  2.014696 S    
C114  C170  1.495079 S    
O84   C186  1.270533 A    
O89   C189  1.272757 A    
C66   H2    1.083756 S    
O12   C4    1.278259 A    
C125  C133  1.413355 A    
O92   C190  1.266781 A    
O24   C16   1.278038 A    
O94   C192  1.269492 A    
C169  H35   1.111557 S    
O38   Zn12  1.995012 S    
C170  H36   1.111611 S    
C56   C96   1.371674 A    
C144  C152  1.406254 A    
O83   Zn24  2.018605 S    
C131  F3    1.358864 S    
O72   Zn20  2.019463 S    
C117  C125  1.381521 A    
C50   C58   1.389003 A    
O68   C178  1.267490 A    
C113  C121  1.381576 A    
C140  C148  1.406455 A    
O7    Zn7   2.022006 S    
O78   Zn23  2.018681 S    
C93   C101  1.494221 S    
C167  F23   1.383730 S    
O78   C184  1.267471 A    
C138  Cl18  1.764615 S    
C19   C43   1.398009 S    
C148  C179  1.422084 S    
O71   C179  1.266607 A    
O28   C20   1.277928 A    
Zn6   O54   2.014701 S    
O89   Zn19  2.019387 S    
O58   C26   1.276574 A    
Zn2   O50   2.014701 S    
O44   Zn14  1.995803 S    
C133  F5    1.358888 S    
O46   Zn16  1.995012 S    
C115  C155  1.339519 A    
C33   C44   1.184075 T    
C65   C73   1.401105 A    
O10   C2    1.275371 A    
C71   C79   1.392245 A    
C96   C104  1.494095 S    
C37   C48   1.184064 T    
C116  C156  1.372199 A    
C54   C110  1.498848 S    
O33   C9    1.277146 A    
C82   C90   1.395316 A    
C39   C46   1.184061 T    
C49   C57   1.382706 A    
C3    C59   1.419473 S    
O13   Zn13  2.016785 S    
O31   C23   1.277288 A    
C1    C57   1.418729 S    
C86   C94   1.392028 A    
O73   C181  1.266601 A    
O19   Zn1   1.995610 S    
C110  Cl12  1.783984 S    
C99   H21   1.111564 S    
C111  Cl15  1.788994 S    
O82   Zn23  2.016904 S    
C51   C91   1.372339 A    
O90   C190  1.270844 A    
C164  F16   1.385234 S    
C78   C86   1.400995 A    
O26   C18   1.278228 A    
C169  H33   1.111692 S    
C51   C107  1.497052 S    
O63   C31   1.275085 A    
C8    C64   1.418181 S    
O48   Zn16  1.995803 S    
O91   C189  1.269972 A    
C129  F1    1.358892 S    
O37   C13   1.277310 A    
C54   C94   1.372845 A    
O52   C28   1.282079 A    
C171  H39   1.111698 S    
C32   C128  1.428547 S    
C135  F7    1.358867 S    
O71   Zn20  2.016984 S    
O87   Zn22  2.018605 S    
O27   C19   1.277085 A    
C148  C156  1.390830 A    
C163  C171  1.539531 S    
C149  C157  1.379252 A    
O35   C11   1.277341 A    
C49   C105  1.489778 S    
C151  C159  1.379275 A    
C167  F21   1.384047 S    
C160  C168  1.493678 S    
C6    C62   1.424664 S    
O37   Zn11  1.995253 S    
O17   C9    1.277307 A    
C113  C153  1.339604 A    
Zn16  O64   2.019920 S    
O20   C12   1.277963 A    
O21   C13   1.277098 A    
O60   C28   1.276534 A    
C131  C139  1.404154 A    
C68   C76   1.391745 A    
O23   C15   1.277379 A    
C69   C77   1.392880 A    
O14   Zn14  2.014696 S    
C141  Cl21  1.764148 S    
O64   C32   1.276571 A    
C9    C33   1.398081 S    
C164  C172  1.517577 S    
C139  Cl19  1.764108 S    
C165  C173  1.539544 S    
C167  C175  1.539682 S    
O88   C188  1.270841 A    
C149  C182  1.414057 S    
C98   H18   1.111171 S    
C15   C39   1.398084 S    
O76   C182  1.267396 A    
C156  C164  1.493691 S    
C88   C96   1.394850 A    
C145  C178  1.414343 S    
C157  C165  1.487380 S    
O45   Zn15  1.995253 S    
O43   C19   1.277323 A    
O36   C12   1.278194 A    
O66   C178  1.265562 A    
C110  Cl10  1.788900 S    
C122  C130  1.407934 A    
C34   C43   1.184064 T    
C153  C161  1.487369 S    
C166  F20   1.383848 S    
C113  C169  1.491392 S    
O91   Zn20  2.018605 S    
C75   C83   1.405110 A    
O35   Zn9   1.995405 S    
C112  Cl14  1.784158 S    
C12   C36   1.398000 S    
C38   C47   1.184074 T    
C146  C154  1.390721 A    
C75   H11   1.083176 S    
C55   C111  1.498753 S    
O85   Zn21  2.019387 S    
C121  C129  1.413125 A    
C80   H16   1.083266 S    
O66   Zn17  2.018681 S    
C163  F15   1.383711 S    
O32   C24   1.278151 A    
C99   H23   1.111228 S    
C90   C98   1.494377 S    
O79   C183  1.266515 A    
O79   Zn24  2.016984 S    
C115  C171  1.491277 S    
O24   Zn4   1.995369 S    
C30   C126  1.428232 S    
C68   H4    1.083635 S    
C61   C69   1.400440 A    
O1    C1    1.277182 A    
C114  C122  1.390688 A    
O14   C6    1.278270 A    
C64   C72   1.400477 A    
C67   C75   1.392776 A    
O25   Zn5   1.995765 S    
C69   H5    1.083725 S    
C171  H37   1.111574 S    
O7    C7    1.278910 A    
C63   C71   1.403841 A    
O8    C8    1.277664 A    
C79   H15   1.083519 S    
O17   Zn1   1.995765 S    
O47   Zn15  1.995405 S    
C73   C81   1.407254 A    
O47   C23   1.277168 A    
C84   C188  1.424651 S    
C76   H12   1.083470 S    
O65   Zn17  2.016832 S    
O81   Zn23  2.019387 S    
O55   C31   1.278975 A    
C142  C150  1.406467 A    
C163  F13   1.383866 S    
O49   C25   1.279038 A    
C10   C34   1.398094 S    
O53   C29   1.279250 A    
Zn14  O62   2.019920 S    
C150  C181  1.422109 S    
C28   C124  1.428276 S    
C101  C109  1.523058 S    
C142  Cl22  1.764611 S    
C146  C177  1.421788 S    
O20   Zn2   1.995369 S    
C72   H8    1.083741 S    
Zn13  O61   2.022004 S    
O69   Zn19  2.016832 S    
C66   C74   1.392124 A    
O11   C3    1.275409 A    
C111  Cl13  1.783893 S    
C57   C65   1.408360 A    
O36   Zn10  1.995803 S    
O39   C15   1.277093 A    
C100  H24   1.112264 S    
O40   C16   1.278140 A    
C83   C91   1.395049 A    
C172  H40   1.112228 S    
O61   C29   1.274960 A    
O6    C6    1.278814 A    
C81   C89   1.381598 A    
O6    Zn6   2.019922 S    
C127  C135  1.413102 A    
C2    C58   1.416789 S    
C11   C35   1.398009 S    
C84   C92   1.392038 A    
C139  C147  1.412605 A    
C85   C93   1.395092 A    
Zn4   O52   2.014701 S    
C166  F18   1.385245 S    
O95   C191  1.271103 A    
C112  Cl16  1.788277 S    
O8    Zn8   2.019922 S    
C17   C41   1.398083 S    
C26   C122  1.428499 S    
O87   C187  1.272612 A    
C76   C84   1.401009 A    
O77   C183  1.269656 A    
C21   C45   1.398036 S    
C152  C160  1.390726 A    
Zn11  O59   2.022004 S    
O86   Zn21  2.016904 S    
C119  C175  1.491384 S    
C120  C176  1.495086 S    
C101  H25   1.111228 S    
C72   C80   1.392383 A    
C82   C186  1.434553 S    
C102  H28   1.111644 S    
C7    C63   1.427407 S    
C105  Cl3   1.785045 S    
C13   C37   1.398008 S    
O92   Zn20  2.016752 S    
O50   C26   1.282155 A    
C103  C111  1.521822 S    
C151  C184  1.414395 S    
C56   C112  1.497159 S    
O74   C182  1.265504 A    
O70   C180  1.267375 A    
C134  C142  1.393963 A    
C83   C187  1.434491 S    
O72   C180  1.265537 A    
O27   Zn5   1.995610 S    
O88   Zn22  2.016752 S    
O5    C5    1.277107 A    
C130  C138  1.393911 A    
C168  C176  1.517496 S    
Zn7   O55   2.016788 S    
O51   C27   1.279188 A    
C150  C158  1.390834 A    
O56   C32   1.282182 A    
O23   Zn3   1.995610 S    
C74   H10   1.083163 S    
C95   C103  1.492874 S    
O33   Zn9   1.995253 S    
C126  C134  1.407775 A    
C136  C144  1.393889 A    
C129  C137  1.404093 A    
O74   Zn21  2.018681 S    
O18   C10   1.278264 A    
C55   C95   1.373565 A    
O75   C181  1.269735 A    
O21   Zn3   1.995765 S    
O22   C14   1.278047 A    
O70   Zn19  2.018681 S    
O62   C30   1.276531 A    
C103  H31   1.112346 S    
C85   C189  1.434461 S    
C94   C102  1.493082 S    
C87   C191  1.424887 S    
O80   Zn24  2.019463 S    
O85   C187  1.270119 A    
C152  C183  1.421767 S    
C70   H6    1.083632 S    
C173  H41   1.111685 S    
O75   Zn22  2.016984 S    
C105  Cl1   1.784633 S    
C137  C145  1.412792 A    
C52   C60   1.392264 A    
O59   C27   1.274992 A    
C172  H38   1.111606 S    
C53   C61   1.389515 A    
C161  C169  1.539698 S    
C158  C166  1.493692 S    
Zn1   O49   2.016788 S    
C56   C64   1.389340 A    
O82   C186  1.272206 A    
C154  C162  1.493688 S    
Zn5   O53   2.016788 S    
Zn9   O57   2.022004 S    
O54   C30   1.282055 A    
C14   C38   1.398024 S    
O93   Zn17  2.019387 S    
O81   C185  1.266602 A    
O11   Zn11  2.016785 S    
C128  C136  1.407966 A    
C161  F9    1.383716 S    
O43   Zn13  1.995405 S    
C132  F4    1.359172 S    
C101  H27   1.111549 S    
C77   H13   1.083175 S    
O96   Zn18  2.016752 S    
O34   Zn10  1.995012 S    
O31   Zn7   1.995610 S    
C135  C143  1.404185 A    
O96   C192  1.272334 A    
C88   C192  1.432784 S    
O2    C2    1.277529 A    
O90   Zn19  2.016904 S    
C107  Cl7   1.788215 S    
O19   C11   1.277063 A    
C62   C70   1.403104 A    
C60   C68   1.403086 A    
C20   C44   1.398022 S    
O25   C17   1.277399 A    
O29   Zn7   1.995765 S    
C59   C67   1.400357 A    
O41   C17   1.277078 A    
C24   C48   1.398093 S    
C119  C127  1.381504 A    
C58   C66   1.399590 A    
C86   C190  1.424618 S    
C54   C62   1.392267 A    
C106  Cl4   1.784167 S    
C130  F2    1.359161 S    
C71   H7    1.083583 S    
O22   Zn4   1.996163 S    
C108  Cl6   1.783955 S    
O94   Zn17  2.016904 S    
O73   Zn21  2.016832 S    
C79   C87   1.400623 A    
C80   C88   1.404704 A    
O46   C22   1.278091 A    
C120  C160  1.372241 A    
C103  H29   1.111646 S    
Zn8   O56   2.014701 S    
O2    Zn2   2.019922 S    
O95   Zn18  2.018605 S    
C65   H1    1.083453 S    
C116  C172  1.495059 S    
O15   C7    1.277863 A    
C117  C173  1.491278 S    
O16   C8    1.275988 A    
C35   C42   1.184066 T    
C175  H47   1.111703 S    
C173  H43   1.111564 S    
C176  H48   1.112234 S    
C174  H44   1.111614 S    
O76   Zn22  2.019463 S    
C136  F8    1.359160 S    
C170  H34   1.112224 S    
C70   C78   1.391737 A    
C74   C82   1.405640 A    
O13   C5    1.275412 A    
C104  H32   1.110898 S    
O41   Zn13  1.995253 S    
C51   C59   1.389648 A    
O83   C185  1.267794 A    
O86   C188  1.266807 A    
C31   C127  1.422269 S    
O40   Zn12  1.995803 S    
C119  C159  1.339555 A    
C165  F17   1.383696 S    
C97   H17   1.111210 S    
C123  C131  1.413334 A    
C104  H30   1.111567 S    
C118  C174  1.495048 S    
O32   Zn8   1.995369 S    
C100  H22   1.111644 S    
C161  F11   1.384041 S    
C162  F12   1.383830 S    
O42   C18   1.277969 A    
C92   C100  1.493079 S    
C53   C109  1.497061 S    
C168  F22   1.383839 S    
C114  C154  1.372237 A    
C109  Cl9   1.788197 S    
O9    C1    1.275463 A    
O68   Zn18  2.019463 S    
Zn15  O63   2.022004 S    
C107  Cl5   1.784133 S    
C4    C60   1.424649 S    
O3    Zn3   2.022006 S    
O15   Zn15  2.016785 S    
C27   C123  1.422497 S    
C132  C140  1.393934 A    
C91   C99   1.494183 S    
C25   C121  1.422313 S    
C166  C174  1.517579 S    
C89   C97   1.489706 S    
O44   C20   1.278216 A    
C50   C90   1.371870 A    
C87   C95   1.391855 A    
O4    C4    1.278818 A    
C29   C125  1.422538 S    
C106  Cl2   1.788108 S    
C115  C123  1.381464 A    
C23   C47   1.398077 S    
C108  Cl8   1.788884 S    
C77   C85   1.405077 A    
C124  C132  1.407802 A    
C73   H9    1.083526 S    
O28   Zn6   1.995369 S    
O26   Zn6   1.996163 S    
O93   C191  1.266680 A    
C143  C151  1.412811 A    
O30   Zn8   1.996163 S    
C147  C155  1.379239 A    
C55   C63   1.392839 A    
O18   Zn2   1.996163 S    
C143  Cl23  1.764125 S    
C144  Cl24  1.764623 S    
O69   C179  1.269720 A    
O4    Zn4   2.019922 S    
C98   H20   1.111571 S    
C168  F24   1.385205 S    
O42   Zn14  1.995012 S    
C140  Cl20  1.764616 S    
C98   C106  1.523005 S    
C5    C61   1.419380 S    
C175  H45   1.111569 S    
C81   C185  1.417018 S    
C120  C128  1.390707 A    
C174  H42   1.112219 S    
O80   C184  1.265600 A    
O5    Zn5   2.022006 S    
C138  C146  1.406275 A    
O9    Zn9   2.016785 S    
