data_mof_unit_43332.cif
_audit_creation_date              2013-03-05T15:41:39-0500
_audit_creation_method            fapswitch 2.2
_symmetry_space_group_name_H-M    P1
_symmetry_Int_Tables_number       1
_space_group_crystal_system       triclinic
_cell_length_a                    17.226796
_cell_length_b                    8.676635
_cell_length_c                    7.434601
_cell_angle_alpha                 103.073164
_cell_angle_beta                  89.703502
_cell_angle_gamma                 92.690142
_cell_volume                      1081.2431478

loop_
_atom_site_label
_atom_site_type_symbol
_atom_site_description
_atom_site_fract_x
_atom_site_fract_y
_atom_site_fract_z
_atom_type_partial_charge
O1    O     O_R   0.505650 0.286040 0.618880 -0.588080
O2    O     O_R   0.494350 0.713960 0.381120 -0.588082
O3    O     O_R   0.490960 0.256910 0.309800 -0.591028
O4    O     O_R   0.509040 0.743090 0.690200 -0.590901
C1    C     C_R   0.497558 0.199695 0.453566 0.874591
C2    C     C_R   0.502437 0.800304 0.546435 0.874475
O5    O     O_R   0.394600 0.516230 0.672450 -0.598577
O6    O     O_R   0.605400 0.483770 0.327550 -0.598552
O7    O     O_R   0.379910 0.487100 0.363380 -0.533358
O8    O     O_R   0.620090 0.512900 0.636620 -0.533568
C3    C     C_R   0.351124 0.497440 0.526425 0.808296
C4    C     C_R   0.648872 0.502557 0.473568 0.807955
Cu1   Cu    Cu3+1 0.508700 0.517250 0.683000 0.961535
Cu2   Cu    Cu3+1 0.491300 0.482750 0.317000 0.961560
C5    C     C_R   0.266907 0.485186 0.544773 -0.135548
C6    C     C_R   0.733078 0.514981 0.455193 -0.135616
C7    C     C_R   0.221054 0.391344 0.400531 0.424845
C8    C     C_R   0.778897 0.609257 0.599205 0.424847
C9    C     C_R   0.140502 0.393549 0.412385 -0.230452
C10   C     C_R   0.859454 0.607215 0.587348 -0.230044
C11   C     C_R   0.105213 0.485362 0.568217 0.113996
C12   C     C_R   0.894769 0.515220 0.431682 0.113815
C13   C     C_R   0.150870 0.567401 0.717604 -0.163623
C14   C     C_R   0.849137 0.432764 0.282472 -0.163566
C15   C     C_R   0.231500 0.567927 0.705781 -0.248108
C16   C     C_R   0.768507 0.432017 0.294339 -0.248134
C17   C     C_2   0.020904 0.500403 0.575851 -0.203054
C18   C     C_2   0.979085 0.500378 0.424066 -0.203140
H1    H     H_    0.733937 0.361940 0.180964 0.173099
H2    H     H_    0.266090 0.637683 0.819317 0.173194
H3    H     H_    0.006557 0.483266 0.289637 0.147380
H4    H     H_    0.993420 0.517529 0.710273 0.147389
H5    H     H_    0.124149 0.636437 0.840047 0.138376
H6    H     H_    0.875881 0.363577 0.160164 0.138392
H7    H     H_    0.893970 0.677817 0.700310 0.143565
H8    H     H_    0.105978 0.323230 0.299261 0.143377
C19   C     C_2   0.496153 0.031734 0.427479 -0.377627
C20   C     C_2   0.503839 0.968265 0.572523 -0.377713
H9    H     H_    0.488752 0.960018 0.287801 0.178506
H10   H     H_    0.511240 0.039982 0.712201 0.178517
N1    N     N_2   0.478180 0.456750 0.041980 -0.216366
N2    N     N_2   0.521820 0.543250 0.958020 -0.216386
H11   H     H_    0.439196 0.379564 0.958430 0.231978
H12   H     H_    0.560804 0.620437 0.041570 0.231918
O9    O     O_3   0.254313 0.303789 0.242715 -0.569353
C21   C     C_3   0.268618 0.152213 0.271420 0.076494
H13   H     H_    0.213122 0.087763 0.293175 0.135404
H14   H     H_    0.307753 0.160639 0.392588 0.125188
C22   C     C_3   0.308173 0.056538 0.101733 -0.768965
H15   H     H_    0.363899 0.117726 0.076585 0.253643
H16   H     H_    0.320323 0.937438 0.123410 0.197930
H17   H     H_    0.269921 0.042455 0.978688 0.239538
O10   O     O_3   0.745628 0.697176 0.756788 -0.569457
C23   C     C_3   0.730713 0.848104 0.726894 0.076864
H18   H     H_    0.691158 0.838442 0.606248 0.125183
H19   H     H_    0.785918 0.912811 0.703573 0.135266
C24   C     C_3   0.691446 0.944386 0.896649 -0.768807
H20   H     H_    0.730213 0.960160 0.019015 0.239250
H21   H     H_    0.678591 0.062771 0.873793 0.198026
H22   H     H_    0.636129 0.882719 0.923686 0.253714

loop_
_geom_bond_atom_site_label_1
_geom_bond_atom_site_label_2
_geom_bond_distance
_ccdc_geom_bond_type
C20   H10   1.087855 S    
O7    Cu2   1.948470 S    
C2    C20   1.425097 S    
C19   C20   1.326883 D    
C1    C19   1.425097 S    
N1    H11   1.029208 S    
N1    N2    1.293144 D    
C23   H18   1.114813 S    
O6    C4    1.297228 A    
C22   H17   1.110905 S    
O3    C1    1.283894 A    
C17   C18   1.341903 D    
C13   C15   1.391180 A    
C11   C17   1.463976 S    
C19   H9    1.087856 S    
C12   C18   1.463871 S    
Cu1   Cu2   2.686109 S    
O5    C3    1.297309 A    
O7    C3    1.293092 A    
C21   C22   1.521642 S    
C24   H20   1.110739 S    
O2    C2    1.290993 A    
O3    Cu2   1.947855 S    
N2    H12   1.029208 S    
Cu2   N1    2.018403 S    
O1    C1    1.290995 A    
O8    C4    1.293108 A    
C12   C14   1.399142 A    
C6    C8    1.410819 A    
Cu1   N2    2.018403 S    
C9    C11   1.402516 A    
C7    O9    1.382993 S    
C8    C10   1.390768 A    
C9    H8    1.082719 S    
C11   C13   1.399159 A    
C6    C16   1.401812 A    
O2    Cu2   1.952504 S    
C23   H19   1.114405 S    
C24   H21   1.110732 S    
C5    C15   1.401825 A    
C10   C12   1.402501 A    
C21   H14   1.115002 S    
O9    C21   1.412052 S    
O5    Cu1   1.967071 S    
O1    Cu1   1.952504 S    
C16   H1    1.083601 S    
O4    C2    1.283895 A    
C22   H15   1.110666 S    
C22   H16   1.110705 S    
O4    Cu1   1.947855 S    
C5    C7    1.410777 A    
C21   H13   1.114432 S    
C15   H2    1.083561 S    
C24   H22   1.110670 S    
O6    Cu2   1.967074 S    
C8    O10   1.383019 S    
C7    C9    1.390756 A    
C17   H4    1.086055 S    
O10   C23   1.412150 S    
C10   H7    1.082756 S    
C3    C5    1.457640 S    
C23   C24   1.521681 S    
C18   H3    1.086022 S    
C14   H6    1.083589 S    
C4    C6    1.457554 S    
C14   C16   1.391130 A    
C13   H5    1.083619 S    
O8    Cu1   1.948470 S    
