data_mof_unit_51113.cif
_audit_creation_date              2012-12-11T14:17:33-0500
_audit_creation_method            fapswitch 2.2
_symmetry_space_group_name_H-M    P1
_symmetry_Int_Tables_number       1
_space_group_crystal_system       triclinic
_cell_length_a                    6.958332
_cell_length_b                    13.773502
_cell_length_c                    20.390968
_cell_angle_alpha                 102.000441
_cell_angle_beta                  90.154754
_cell_angle_gamma                 90.760662
_cell_volume                      1911.3754551

loop_
_atom_site_label
_atom_site_type_symbol
_atom_type_description
_atom_site_fract_x
_atom_site_fract_y
_atom_site_fract_z
_atom_type_partial_charge
O1    O     O_R   0.506860 0.599390 0.449240 -0.543179
O2    O     O_R   0.180220 0.594600 0.586780 -0.555263
O3    O     O_R   0.004500 0.400610 0.550760 -0.546393
C1    C     C_R   0.350018 0.614380 0.613828 0.742197
O4    O     O_R   0.177490 0.611290 0.451970 -0.537773
O5    O     O_R   0.001750 0.417420 0.414990 -0.557738
C2    C     C_R   0.346565 0.636898 0.434842 0.745707
O6    O     O_R   0.509610 0.582580 0.585010 -0.524257
O7    O     O_3   0.337420 0.436370 0.488020 -0.382101
V1    V     V_3+5 0.064680 0.511800 0.502220 1.433657
O8    O     O_R   0.671710 0.405400 0.413220 -0.531588
C3    C     C_R   0.838867 0.387110 0.385773 0.733114
O9    O     O_R   0.674440 0.388710 0.548030 -0.548249
C4    C     C_R   0.842212 0.364978 0.566504 0.710519
V2    V     V_3+5 0.564010 0.488200 0.497780 1.443178
O10   O     O_3   0.841140 0.563630 0.511980 -0.366680
C5    C     C_R   0.889586 0.114136 0.608275 0.432815
H1    H     H_    0.878326 0.175530 0.518079 0.111966
C6    C     C_R   0.850039 0.287696 0.605138 -0.092796
C7    C     C_R   0.868874 0.312487 0.927808 -0.243368
C8    C     C_R   0.890957 0.388151 0.892861 -0.177807
C9    C     C_R   0.905349 0.367467 0.823008 0.413854
C10   C     C_R   0.879009 0.267630 0.785776 -0.020077
C11   C     C_R   0.873486 0.190307 0.822644 -0.028716
C12   C     C_R   0.867646 0.241266 0.713875 -0.036268
C13   C     C_R   0.887186 0.140120 0.680026 -0.043179
C14   C     C_R   0.906653 0.066917 0.718721 0.429762
C15   C     C_R   0.885295 0.091293 0.788177 -0.291688
C16   C     C_R   0.834038 0.312103 0.674461 -0.216515
C17   C     C_R   0.875914 0.190441 0.572221 -0.284013
C18   C     C_R   0.865514 0.213626 0.893762 -0.046615
H2    H     H_    0.792849 0.386973 0.696007 0.168321
H3    H     H_    0.864150 0.330993 0.982104 0.122721
H4    H     H_    0.905778 0.463827 0.920677 0.143694
H5    H     H_    0.887740 0.031294 0.815073 0.124369
C19   C     C_2   0.992443 0.281424 0.287141 -0.183373
C20   C     C_2   0.836644 0.332240 0.315163 0.066113
H6    H     H_    0.122139 0.283672 0.317221 0.118041
C21   C     C_2   0.006904 0.225695 0.216262 -0.153766
C22   C     C_2   0.860350 0.172432 0.182965 -0.322593
H7    H     H_    0.146994 0.223754 0.192718 0.141535
H8    H     H_    0.724879 0.167854 0.207785 0.133116
C23   C     C_2   0.209914 0.776032 0.787095 -0.163993
C24   C     C_2   0.359993 0.798576 0.829117 -0.313074
H9    H     H_    0.074580 0.813384 0.800162 0.145094
H10   H     H_    0.489794 0.755938 0.820402 0.143068
C25   C     C_2   0.215785 0.702053 0.722122 -0.190846
C26   C     C_2   0.369351 0.681872 0.680326 0.040903
H11   H     H_    0.077338 0.669128 0.704681 0.138597
C27   C     C_R   0.372382 0.888015 0.390448 -0.209739
H12   H     H_    0.373208 0.013924 0.309898 0.122209
H13   H     H_    0.382998 0.965533 0.415345 0.111558
C28   C     C_R   0.355864 0.715029 0.396360 -0.045600
C29   C     C_R   0.354891 0.687003 0.073551 0.400776
C30   C     C_R   0.311494 0.613763 0.109861 0.151688
C31   C     C_R   0.302012 0.638620 0.179599 -0.274350
C32   C     C_R   0.332001 0.737291 0.215253 0.019742
C33   C     C_R   0.348589 0.814365 0.178087 0.001241
C34   C     C_R   0.342979 0.761362 0.286814 0.104366
C35   C     C_R   0.359451 0.862062 0.320278 0.079087
C36   C     C_R   0.363407 0.936828 0.283855 -0.250354
C37   C     C_R   0.359265 0.914959 0.213977 0.184174
C38   C     C_R   0.342945 0.688529 0.326514 -0.262973
C39   C     C_R   0.372094 0.814845 0.428875 0.170118
C40   C     C_R   0.356234 0.787455 0.106526 -0.229912
H14   H     H_    0.336358 0.610179 0.304998 0.113118
H15   H     H_    0.268335 0.578569 0.204224 0.139980
O11   O     O_R   0.203230 0.917310 0.915020 -0.541956
O12   O     O_R   0.535500 0.888690 0.048040 -0.543139
O13   O     O_R   0.711080 0.082610 0.085000 -0.538957
C41   C     C_R   0.366354 0.862107 0.064654 0.854616
O14   O     O_R   0.532630 0.905370 0.913230 -0.554819
O15   O     O_R   0.708190 0.099410 0.949230 -0.539481
C42   C     C_R   0.363063 0.879361 0.889112 0.739695
O16   O     O_R   0.206120 0.900510 0.050790 -0.542214
O17   O     O_3   0.375360 0.063570 0.011990 -0.367716
V3    V     V_3+5 0.648170 0.988200 0.997780 1.416013
O18   O     O_R   0.038240 0.111390 0.951940 -0.543061
C43   C     C_R   0.870277 0.136506 0.934032 0.701417
O19   O     O_R   0.041120 0.094710 0.086750 -0.537266
C44   C     C_R   0.873120 0.113672 0.113875 0.748757
V4    V     V_3+5 0.148810 0.011930 0.002180 1.434227
O20   O     O_3   0.871750 0.936430 0.988010 -0.382337
N1    N     N_3   0.667312 0.343713 0.276936 -0.677567
H16   H     H_    0.575033 0.282779 0.274994 0.221892
H17   H     H_    0.703488 0.353300 0.228939 0.247416
N2    N     N_3   0.557886 0.724009 0.697046 -0.658876
H18   H     H_    0.626793 0.684861 0.728806 0.230910
H19   H     H_    0.550581 0.799367 0.718752 0.252816
N3    N     N_3   0.387833 0.841121 0.500693 -0.698891
H20   H     H_    0.514244 0.810288 0.514597 0.235563
H21   H     H_    0.404522 0.917976 0.516332 0.223028
O21   O     O_3   0.942721 0.969607 0.688240 -0.545643
C45   C     C_3   0.137116 0.947845 0.698739 0.134456
H22   H     H_    0.156030 0.868318 0.675897 0.171493
H23   H     H_    0.171993 0.958611 0.753082 0.095480
C46   C     C_3   0.278459 0.008244 0.664830 -0.394859
H24   H     H_    0.234983 0.004218 0.612185 0.222195
H25   H     H_    0.280564 0.087356 0.691421 0.180240
C47   C     C_3   0.480268 0.968676 0.665192 -0.744117
H26   H     H_    0.531930 0.975030 0.717500 0.230990
H27   H     H_    0.574161 0.013089 0.638993 0.266668
H28   H     H_    0.484803 0.890348 0.637702 0.253374
O22   O     O_3   0.375693 0.662450 0.004447 -0.575184
C48   C     C_3   0.544007 0.605795 0.986870 0.100636
H29   H     H_    0.508133 0.546972 0.942599 0.131069
H30   H     H_    0.595171 0.564928 0.025278 0.126972
C49   C     C_3   0.707173 0.670194 0.967327 -0.369949
H31   H     H_    0.787909 0.626537 0.924480 0.165103
H32   H     H_    0.647671 0.735291 0.950415 0.223023
C50   C     C_3   0.848623 0.704808 0.025087 -0.678993
H33   H     H_    0.775065 0.749507 0.069200 0.223571
H34   H     H_    0.963780 0.750657 0.008696 0.240655
H35   H     H_    0.916206 0.639880 0.039845 0.211110
N4    N     N_3   0.274225 0.513566 0.075279 -0.667726
H36   H     H_    0.135415 0.493549 0.087469 0.225091
H37   H     H_    0.370806 0.467472 0.093142 0.218832
N5    N     N_3   0.366695 0.996781 0.180674 -0.657972
H38   H     H_    0.492713 0.037505 0.195593 0.212628
H39   H     H_    0.250061 0.042556 0.196731 0.226902
O23   O     O_3   0.884590 0.013795 0.576241 -0.553984
C51   C     C_3   0.967665 0.992553 0.511522 0.083460
H40   H     H_    0.043054 0.921047 0.506443 0.180809
H41   H     H_    0.080240 0.047416 0.503983 0.087965
C52   C     C_3   0.810493 0.977526 0.457476 -0.330385
H42   H     H_    0.730456 0.908214 0.459360 0.210690
H43   H     H_    0.707350 0.039567 0.467112 0.186767
C53   C     C_3   0.893394 0.968192 0.387339 -0.812207
H44   H     H_    0.987446 0.033084 0.384763 0.223835
H45   H     H_    0.774524 0.964784 0.350468 0.236324
H46   H     H_    0.976402 0.898812 0.373614 0.248625
O24   O     O_3   0.949175 0.447032 0.793656 -0.591619
C54   C     C_3   0.139202 0.439729 0.768487 0.058236
H47   H     H_    0.140230 0.469308 0.721755 0.135884
H48   H     H_    0.192740 0.362138 0.754544 0.119253
C55   C     C_3   0.276624 0.502735 0.818953 -0.312815
H49   H     H_    0.228760 0.581034 0.830156 0.225902
H50   H     H_    0.274537 0.474551 0.866141 0.200140
C56   C     C_3   0.480802 0.497870 0.791550 -0.807788
H51   H     H_    0.535031 0.421197 0.785852 0.239294
H52   H     H_    0.576630 0.549393 0.826427 0.236484
H53   H     H_    0.484278 0.519265 0.742017 0.223456

loop_
_geom_bond_atom_site_label_1
_geom_bond_atom_site_label_2
_ccdc_geom_bond_type
C33   C37   A    
C30   C31   A    
O21   C45   S    
C27   C39   A    
O12   V3    S    
C50   H33   S    
H12   C36   S    
C39   N3    S    
C1    O6    A    
C53   H44   S    
C46   H24   S    
C32   C33   A    
C25   H11   S    
C29   C40   A    
C31   C32   A    
C48   H30   S    
C13   C14   A    
C5    C13   A    
C29   O22   S    
C19   C20   D    
N1    H17   S    
C16   H2    S    
O5    C3    A    
C56   H53   S    
C32   C34   A    
V3    O20   S    
O11   C42   A    
V2    O10   S    
C49   H31   S    
C3    C20   S    
O12   C41   A    
O13   C44   A    
N5    H38   S    
O8    V2    S    
C15   H5    S    
O24   C54   S    
N4    H37   S    
C52   C53   S    
C27   H13   S    
C10   C11   A    
C20   N1    S    
H1    C17   S    
O7    V1    S    
C22   H8    S    
C38   H14   S    
C34   C35   A    
C8    C9    A    
O13   V3    S    
C5    C17   A    
C36   C37   A    
C55   C56   S    
C22   C44   S    
O22   C48   S    
C46   H25   S    
C24   H10   S    
C12   C16   A    
C48   C49   S    
C56   H52   S    
C24   C42   S    
O17   V3    S    
O14   C42   A    
O17   V4    S    
C21   C22   D    
O4    C2    A    
O18   C43   A    
O19   C44   A    
C8    H4    S    
C45   C46   S    
C12   C13   A    
C40   C41   S    
C47   H28   S    
C35   C36   A    
O2    C1    A    
C23   C24   D    
O14   V3    S    
C54   C55   S    
O18   V4    S    
C33   C40   A    
N3    H21   S    
C25   C26   D    
C56   H51   S    
C47   H27   S    
O15   C43   A    
C26   N2    S    
C50   H34   S    
N1    H16   S    
C45   H23   S    
C23   H9    S    
O23   C51   S    
O3    C4    A    
O1    V2    S    
C7    H3    S    
O19   V4    S    
O6    V2    S    
N2    H19   S    
C52   H42   S    
C14   O21   S    
C2    C28   S    
C51   H41   S    
C6    C16   A    
C53   H46   S    
C46   C47   S    
C55   H50   S    
C54   H48   S    
C1    C26   S    
C5    O23   S    
C29   C30   A    
C9    O24   S    
O1    C2    A    
C4    C6    S    
C19   C21   S    
C11   C15   A    
C55   H49   S    
C53   H45   S    
O5    V1    S    
O8    C3    A    
O16   V4    S    
C18   C43   S    
C31   H15   S    
C48   H29   S    
C34   C38   A    
C49   C50   S    
C27   C35   A    
C51   C52   S    
O9    V2    S    
O7    V2    S    
C11   C18   A    
O11   V4    S    
O4    V1    S    
O3    V1    S    
V1    O10   S    
C41   O16   A    
C28   C38   A    
N3    H20   S    
C54   H47   S    
C30   N4    S    
C19   H6    S    
C47   H26   S    
C28   C39   A    
C49   H32   S    
C50   H35   S    
C10   C12   A    
C45   H22   S    
N5    H39   S    
C37   N5    S    
C7    C8    A    
C21   H7    S    
N2    H18   S    
V4    O20   S    
C14   C15   A    
C52   H43   S    
O15   V3    S    
C9    C10   A    
C51   H40   S    
O9    C4    A    
C6    C17   A    
C23   C25   S    
N4    H36   S    
C7    C18   A    
O2    V1    S    
