data_mof_unit_28295.cif
_audit_creation_date              2012-10-26T19:10:50-0400
_audit_creation_method            fapswitch 2.2
_symmetry_space_group_name_H-M    P1
_symmetry_Int_Tables_number       1
_space_group_crystal_system       triclinic
_cell_length_a                    11.010209
_cell_length_b                    9.605488
_cell_length_c                    23.595774
_cell_angle_alpha                 90.020644
_cell_angle_beta                  92.88532
_cell_angle_gamma                 89.865193
_cell_volume                      2492.2815346

loop_
_atom_site_label
_atom_site_type_symbol
_atom_type_description
_atom_site_fract_x
_atom_site_fract_y
_atom_site_fract_z
_atom_type_partial_charge
C1    C     C_R   0.260540 0.500793 0.499112 0.573473
C2    C     C_R   0.589728 0.477583 0.121854 0.406566
C3    C     C_R   0.566237 0.384449 0.244572 0.315389
C4    C     C_R   0.497562 0.499350 0.391546 0.522284
C5    C     C_R   0.572858 0.403714 0.303202 -0.056317
C6    C     C_R   0.492803 0.494221 0.329344 -0.031968
C7    C     C_R   0.403697 0.566801 0.295656 0.257192
C8    C     C_R   0.408015 0.561845 0.236744 0.009173
C9    C     C_R   0.486453 0.469309 0.210304 0.155418
C10   C     C_R   0.415584 0.383005 0.758372 0.302484
C11   C     C_R   0.417188 0.390096 0.698568 0.036771
C12   C     C_R   0.257573 0.458663 0.966415 0.222150
C13   C     C_R   0.490934 0.491885 0.672502 -0.128273
C14   C     C_R   0.565858 0.578827 0.707993 0.031817
C15   C     C_R   0.547185 0.587253 0.766392 0.309085
C16   C     C_R   0.739891 0.499802 0.499660 0.488385
C17   C     C_R   0.476817 0.484929 0.792120 0.164580
C18   C     C_3   0.074433 0.656001 0.512495 0.430327
C19   C     C_3   0.080863 0.401436 0.547303 0.463763
C20   C     C_3   0.930914 0.657863 0.504379 0.241082
C21   C     C_3   0.936592 0.407531 0.550699 0.181287
C22   C     C_3   0.067156 0.455070 0.440435 -0.294004
C23   C     C_R   0.257772 0.444934 0.025638 0.024617
C24   C     C_3   0.123012 0.503653 0.499550 -0.013904
C25   C     C_3   0.879496 0.499846 0.499130 -0.105639
C26   C     C_3   0.924770 0.434427 0.440555 -0.036394
C27   C     C_3   0.611571 0.084084 0.531740 0.025058
C28   C     C_3   0.606118 0.918230 0.535890 0.021119
C29   C     C_3   0.395361 0.081809 0.530668 -0.161893
C30   C     C_3   0.387709 0.918718 0.524148 -0.153743
C31   C     C_3   0.497092 0.085914 0.441599 0.311227
C32   C     C_3   0.506900 0.916304 0.441725 0.292311
C33   C     C_R   0.497197 0.498699 0.609048 0.510627
C34   C     C_R   0.369525 0.446251 0.058780 -0.009335
C35   C     C_R   0.584543 0.448424 0.882901 0.393027
C36   C     C_R   0.371703 0.494074 0.880076 0.405049
C37   C     C_R   0.368469 0.469841 0.938899 0.023966
C38   C     C_R   0.480039 0.457705 0.970909 -0.073557
C39   C     C_R   0.591016 0.452478 0.942918 -0.038901
C40   C     C_2   0.345080 0.286413 0.663926 0.355811
C41   C     C_2   0.675109 0.644361 0.685580 0.367888
C42   C     C_2   0.882069 0.741092 0.552844 0.451413
C43   C     C_2   0.891501 0.459248 0.607543 0.224804
C44   C     C_2   0.861696 0.501373 0.388385 0.238318
C45   C     C_R   0.480499 0.452707 0.030835 -0.077085
C46   C     C_2   0.892919 0.280854 0.431658 0.318414
C47   C     C_2   0.642549 0.157003 0.588108 0.267393
C48   C     C_2   0.616973 0.870959 0.597152 0.278562
C49   C     C_2   0.137709 0.427791 0.050341 0.415831
C50   C     C_2   0.379372 0.136950 0.408973 0.329958
C51   C     C_2   0.405633 0.858540 0.401269 0.270594
C52   C     C_2   0.822398 0.446360 0.949095 0.377677
C53   C     C_R   0.592221 0.456634 0.062892 0.010187
C54   C     C_R   0.703020 0.445230 0.035173 0.253516
C55   C     C_R   0.702972 0.446021 0.975624 0.035535
C56   C     C_R   0.375439 0.442830 0.118950 0.409886
Cu1   Cu    Cu3+1 0.499860 0.642410 0.500030 0.973939
Cu2   Cu    Cu3+1 0.499860 0.357590 0.500030 0.977312
H1    H     H_    0.090291 0.530045 0.407071 0.138565
H2    H     H_    0.344710 0.625115 0.211247 0.198644
H3    H     H_    0.155714 0.383150 0.905368 0.382434
H4    H     H_    0.321455 0.305569 0.619804 0.158893
H5    H     H_    0.697477 0.623077 0.642706 0.041383
H6    H     H_    0.563734 0.703762 0.834199 0.343692
H7    H     H_    0.142628 0.724306 0.441043 0.296687
H8    H     H_    0.081175 0.227913 0.501166 0.363764
H9    H     H_    0.195089 0.720858 0.571609 0.374924
H10   H     H_    0.119341 0.367518 0.627472 0.369778
H11   H     H_    0.816658 0.697607 0.579617 0.039640
H12   H     H_    0.115242 0.359813 0.427015 0.191114
H13   H     H_    0.801863 0.428591 0.619450 0.090442
H14   H     H_    0.944199 0.723549 0.424499 0.353027
H15   H     H_    0.925679 0.214726 0.578071 0.366319
H16   H     H_    0.774049 0.552066 0.391154 0.146857
H17   H     H_    0.810570 0.238149 0.447051 0.210003
H18   H     H_    0.715550 0.229729 0.591463 0.149407
H19   H     H_    0.706923 0.861878 0.617204 0.133134
H20   H     H_    0.069850 0.509504 0.045094 0.172172
H21   H     H_    0.290908 0.122363 0.425987 0.083607
H22   H     H_    0.332462 0.796825 0.416540 0.125999
H23   H     H_    0.691689 0.107413 0.506671 0.171870
H24   H     H_    0.592168 0.113253 0.373626 0.357584
H25   H     H_    0.620429 0.885949 0.379396 0.362758
H26   H     H_    0.802608 0.361852 0.095455 0.380268
H27   H     H_    0.840481 0.520907 0.916049 0.170409
H28   H     H_    0.603405 0.254543 0.184740 0.346540
H29   H     H_    0.295093 0.599711 0.356639 0.313451
H30   H     H_    0.383796 0.260382 0.822099 0.345617
H31   H     H_    0.690448 0.879726 0.517832 0.177412
H32   H     H_    0.400398 0.107181 0.576250 0.220356
H33   H     H_    0.364775 0.869190 0.564424 0.218080
H34   H     H_    0.308256 0.128818 0.515859 0.161407
H35   H     H_    0.306770 0.896403 0.496451 0.133615
H36   H     H_    0.637974 0.342950 0.328806 0.180375
N1    N     N_R   0.477520 0.476619 0.853205 -0.427200
N2    N     N_R   0.483853 0.462130 0.148994 -0.416209
N3    N     N_3   0.500250 0.143650 0.501250 -0.283265
N4    N     N_3   0.500250 0.856350 0.501250 -0.274851
O1    O     O_R   0.317570 0.620260 0.500030 -0.538481
O2    O     O_2   0.270891 0.535349 0.849724 -0.394819
O3    O     O_2   0.274274 0.421951 0.147597 -0.421381
O4    O     O_2   0.691422 0.516937 0.151920 -0.393700
O5    O     O_3   0.147113 0.452067 0.936212 -0.618397
O6    O     O_2   0.311927 0.176288 0.683787 -0.375008
O7    O     O_2   0.743437 0.718401 0.714621 -0.353844
O8    O     O_3   0.604092 0.692033 0.797937 -0.572837
O9    O     O_3   0.122282 0.761886 0.478315 -0.667590
O10   O     O_3   0.121015 0.264035 0.536542 -0.686902
O11   O     O_3   0.109437 0.689440 0.569463 -0.550701
O12   O     O_R   0.317570 0.379740 0.500030 -0.496074
O13   O     O_3   0.138813 0.440067 0.599333 -0.614790
O14   O     O_2   0.913559 0.861840 0.560837 -0.428047
O15   O     O_2   0.950349 0.535844 0.639771 -0.410013
O16   O     O_3   0.889728 0.735637 0.456113 -0.635818
O17   O     O_3   0.892552 0.270437 0.545232 -0.767713
O18   O     O_2   0.904860 0.492331 0.341797 -0.411226
O19   O     O_2   0.953357 0.205066 0.402359 -0.439167
O20   O     O_2   0.584412 0.140014 0.630247 -0.456184
O21   O     O_2   0.530407 0.866768 0.627435 -0.430305
O22   O     O_2   0.111295 0.318695 0.073184 -0.370676
O23   O     O_R   0.499840 0.620290 0.417900 -0.486763
O24   O     O_2   0.381335 0.184663 0.361013 -0.445824
O25   O     O_2   0.405736 0.882201 0.350371 -0.442402
O26   O     O_3   0.598180 0.140140 0.414272 -0.665243
O27   O     O_3   0.620065 0.873612 0.421116 -0.617982
O28   O     O_3   0.813250 0.431844 0.065240 -0.598373
O29   O     O_2   0.901295 0.362555 0.963832 -0.393257
O30   O     O_3   0.637516 0.280918 0.222835 -0.610784
O31   O     O_3   0.306384 0.634803 0.317828 -0.614427
O32   O     O_3   0.351706 0.276525 0.782737 -0.575224
O33   O     O_R   0.499840 0.379710 0.417900 -0.445983
O34   O     O_R   0.682190 0.620260 0.500010 -0.491890
O35   O     O_R   0.682190 0.379740 0.500010 -0.502871
O36   O     O_R   0.499920 0.620230 0.582140 -0.478437
O37   O     O_R   0.499920 0.379770 0.582140 -0.514352
O38   O     O_2   0.683053 0.415129 0.853943 -0.445471

loop_
_geom_bond_atom_site_label_1
_geom_bond_atom_site_label_2
_ccdc_geom_bond_type
C48   H19   S    
C34   C56   A    
C51   O25   D    
Cu1   O34   S    
C50   O24   D    
C18   O11   S    
H30   O32   S    
C21   O17   S    
C50   H21   S    
C1    O1    A    
C5    H36   S    
C26   C44   S    
C7    C8    A    
C53   C54   A    
C54   O28   S    
C12   C23   A    
C29   C30   S    
C41   O7    D    
C18   C24   S    
C15   O8    S    
C36   C37   A    
H3    O5    S    
C56   O3    S    
C30   H35   S    
C38   C39   A    
C23   C49   S    
C49   O22   D    
C20   C25   S    
C2    O4    S    
C10   C17   A    
C27   C47   S    
Cu1   O1    S    
H14   O16   S    
C40   H4    S    
C49   H20   S    
C56   N2    A    
C12   C37   A    
C42   O14   D    
C18   O9    S    
C29   H32   S    
C38   C45   A    
C21   C43   S    
C33   O36   A    
H9    O11   S    
C47   O20   D    
C39   C55   A    
C8    C9    A    
C28   H31   S    
C17   N1    S    
C4    O33   A    
C52   C55   S    
H7    O9    S    
C19   O10   S    
C45   C53   A    
C13   C14   A    
C28   C48   S    
Cu2   N3    S    
H25   O27   S    
C16   O35   A    
H24   O26   S    
C46   H17   S    
C52   O29   D    
C48   O21   D    
Cu2   O35   S    
H26   O28   S    
H28   O30   S    
C27   H23   S    
C12   O5    S    
C4    C6    S    
C22   H1    S    
C3    O30   S    
C25   C26   S    
C42   H11   S    
C46   O19   D    
H10   O13   S    
C32   O27   S    
C35   C39   A    
C10   O32   S    
C32   C51   S    
C13   C33   S    
C37   C38   A    
C3    C9    A    
C1    O12   A    
C40   O6    D    
C33   O37   A    
C31   C32   S    
Cu2   O33   S    
C23   C34   A    
C36   O2    S    
C34   C45   A    
C44   H16   S    
C9    N2    S    
C14   C41   S    
C52   H27   S    
C19   O13   S    
C22   C24   S    
Cu1   O36   S    
C41   H5    S    
C31   C50   S    
C28   N4    S    
C16   C25   S    
C15   C17   A    
C21   C25   S    
C54   C55   A    
C27   N3    S    
C43   H13   S    
C19   C21   S    
Cu2   O12   S    
H8    O10   S    
C30   H33   S    
C3    C5    A    
C2    C53   A    
C35   O38   S    
C47   H18   S    
C20   C42   S    
H6    O8    S    
C6    C7    A    
C35   N1    A    
Cu2   O37   S    
C30   N4    S    
H15   O17   S    
C29   N3    S    
H29   O31   S    
C2    N2    A    
C19   C24   S    
C8    H2    S    
C20   O16   S    
C11   C13   A    
C36   N1    A    
Cu1   Cu2   S    
C5    C6    A    
Cu1   N4    S    
C51   H22   S    
C32   N4    S    
C4    O23   A    
C31   O26   S    
C18   C20   S    
C31   N3    S    
C11   C40   S    
C16   O34   A    
C7    O31   S    
C10   C11   A    
C26   C46   S    
Cu1   O23   S    
C44   O18   D    
C1    C24   S    
C22   C26   S    
C27   C28   S    
C14   C15   A    
C22   H12   S    
C29   H34   S    
C43   O15   D    
