data_mof_unit_68529.cif
_audit_creation_date              2012-12-10T18:05:41-0500
_audit_creation_method            fapswitch 2.2
_symmetry_space_group_name_H-M    P1
_symmetry_Int_Tables_number       1
_space_group_crystal_system       triclinic
_cell_length_a                    11.067339
_cell_length_b                    11.021865
_cell_length_c                    9.860277
_cell_angle_alpha                 88.752914
_cell_angle_beta                  91.748064
_cell_angle_gamma                 89.058913
_cell_volume                      1201.7631122

loop_
_atom_site_label
_atom_site_type_symbol
_atom_type_description
_atom_site_fract_x
_atom_site_fract_y
_atom_site_fract_z
_atom_type_partial_charge
C1    C     C_R   0.505457 0.262644 0.500704 0.812315
C2    C     C_R   0.503327 0.736868 0.499770 0.915003
C3    C     C_R   0.869912 0.506157 0.508132 -0.098337
C4    C     C_R   0.126888 0.502897 0.500598 -0.132182
C5    C     C_R   0.940568 0.471954 0.624319 0.099969
C6    C     C_R   0.054488 0.540569 0.387760 0.134422
C7    C     C_R   0.529887 0.061329 0.381236 0.339861
C8    C     C_R   0.484862 0.937238 0.617710 0.343079
C9    C     C_R   0.557129 0.936489 0.391591 0.377316
C10   C     C_R   0.520439 0.060046 0.623615 0.321415
C11   C     C_R   0.513367 0.870754 0.502008 -0.332059
C12   C     C_R   0.517484 0.127460 0.501399 -0.360964
C13   C     C_R   0.486304 0.396745 0.075605 -0.197591
C14   C     C_R   0.518578 0.602596 0.923202 -0.199188
C15   C     C_R   0.483621 0.396851 0.930213 0.556578
C16   C     C_R   0.509549 0.606033 0.070311 0.675512
C17   C     C_R   0.262477 0.499561 0.499077 0.761790
C18   C     C_R   0.736488 0.501512 0.502401 0.768111
C19   C     C_R   0.206369 0.651218 0.079203 -0.428350
C20   C     C_R   0.826205 0.291586 0.919692 -0.375997
C21   C     C_R   0.164022 0.648416 0.209944 0.473823
C22   C     C_R   0.873997 0.321378 0.793831 0.500914
C23   C     C_R   0.103763 0.545566 0.254234 -0.149275
C24   C     C_R   0.885796 0.443490 0.755223 -0.071875
C25   C     C_R   0.086591 0.444887 0.171432 0.332374
C26   C     C_R   0.841214 0.536510 0.838632 0.321740
C27   C     C_R   0.123047 0.451105 0.036183 0.339576
C28   C     C_R   0.805898 0.505745 0.971429 0.365955
C29   C     C_R   0.179280 0.557275 0.988192 0.308851
C30   C     C_R   0.796570 0.383281 0.012378 0.424995
C31   C     C_R   0.928657 0.541769 0.392157 -0.199283
C32   C     C_R   0.067211 0.464554 0.617045 -0.195869
Cu1   Cu    Cu3+1 0.500000 0.500020 0.640660 1.017212
Cu2   Cu    Cu3+1 0.500000 0.499980 0.359340 1.053951
H1    H     H_    0.876262 0.562637 0.300629 0.221709
H2    H     H_    0.118971 0.424859 0.701191 0.247182
H3    H     H_    0.476575 0.312199 0.129124 0.217999
H4    H     H_    0.539571 0.682699 0.864768 0.200385
N1    N     N_R   0.500030 0.500030 0.852070 -0.219656
N2    N     N_R   0.499970 0.499970 0.147930 -0.206734
O1    O     O_R   0.499990 0.319660 0.618740 -0.508369
O2    O     O_R   0.500010 0.680340 0.381260 -0.475759
O3    O     O_R   0.499990 0.319630 0.381170 -0.569877
O4    O     O_R   0.500010 0.680370 0.618830 -0.568990
O5    O     O_R   0.319650 0.500020 0.618780 -0.561375
O6    O     O_R   0.680350 0.499980 0.381220 -0.519965
O7    O     O_R   0.319640 0.500000 0.381210 -0.586902
O8    O     O_R   0.680360 0.500000 0.618790 -0.571544
O9    O     O_3   0.208679 0.562139 0.852439 -0.573249
C33   C     C_3   0.223405 0.681010 0.800993 -0.256321
H5    H     H_    0.317836 0.707261 0.818763 0.227905
H6    H     H_    0.159975 0.748505 0.843529 0.102903
H7    H     H_    0.204876 0.683179 0.690078 0.195279
O10   O     O_3   0.759475 0.362098 0.144960 -0.509772
C34   C     C_3   0.756542 0.238776 0.184965 -0.180827
H8    H     H_    0.729823 0.233304 0.292350 0.189982
H9    H     H_    0.846839 0.194085 0.180230 0.143576
H10   H     H_    0.688203 0.190289 0.123326 0.175679
O11   O     O_3   0.471453 0.288088 0.868914 -0.529386
C35   C     C_3   0.348599 0.266341 0.840044 -0.181113
H11   H     H_    0.334143 0.242809 0.732614 0.179152
H12   H     H_    0.287688 0.344715 0.855829 0.202394
H13   H     H_    0.323448 0.185269 0.899268 0.111791
O12   O     O_3   0.511231 0.714460 0.138842 -0.502596
C36   C     C_3   0.499977 0.818889 0.054752 -0.264033
H14   H     H_    0.474723 0.896635 0.116335 0.232181
H15   H     H_    0.426026 0.813714 0.977352 0.118269
H16   H     H_    0.588467 0.837373 0.009731 0.171187
H17   H     H_    0.257266 0.729044 0.049091 0.179409
H18   H     H_    0.822186 0.196396 0.946696 0.137388
O13   O     O_3   0.192000 0.739632 0.299512 -0.545719
C37   C     C_3   0.121906 0.844153 0.264201 -0.401923
H19   H     H_    0.023710 0.825588 0.269432 0.145093
H20   H     H_    0.143732 0.881098 0.162114 0.152597
H21   H     H_    0.142883 0.915374 0.338751 0.179884
O14   O     O_3   0.924762 0.232235 0.715591 -0.587834
C38   C     C_3   0.832314 0.169544 0.647239 -0.330141
H22   H     H_    0.761500 0.231752 0.600721 0.170259
H23   H     H_    0.792314 0.102176 0.716875 0.190264
H24   H     H_    0.872762 0.118700 0.563521 0.157505
O15   O     O_3   0.017059 0.349125 0.215982 -0.545386
C39   C     C_3   0.081547 0.274907 0.313547 -0.360797
H25   H     H_    0.034140 0.277176 0.410960 0.215585
H26   H     H_    0.177586 0.300051 0.331775 0.141693
H27   H     H_    0.080569 0.179468 0.280180 0.140341
O16   O     O_3   0.805793 0.650254 0.785439 -0.552304
C40   C     C_3   0.903524 0.717430 0.737097 -0.369305
H28   H     H_    0.992209 0.673030 0.757711 0.186007
H29   H     H_    0.904303 0.807146 0.785877 0.156627
H30   H     H_    0.890712 0.733998 0.626193 0.182381
O17   O     O_3   0.091041 0.363804 0.942524 -0.592741
C41   C     C_3   0.108566 0.243105 0.992202 -0.297799
H31   H     H_    0.120842 0.183378 0.904546 0.173731
H32   H     H_    0.027005 0.208452 0.040485 0.211402
H33   H     H_    0.188649 0.232630 0.062484 0.128755
O18   O     O_3   0.769777 0.592825 0.062530 -0.544970
C42   C     C_3   0.845949 0.694450 0.063699 -0.244310
H34   H     H_    0.851654 0.728523 0.167902 0.154171
H35   H     H_    0.805289 0.768915 0.999191 0.189680
H36   H     H_    0.940186 0.673580 0.034318 0.118622
O19   O     O_3   0.512908 0.113768 0.254328 -0.565312
C43   C     C_3   0.389041 0.104247 0.217357 -0.404419
H37   H     H_    0.379376 0.112925 0.105843 0.172822
H38   H     H_    0.336369 0.178723 0.262388 0.173270
H39   H     H_    0.349065 0.015501 0.246563 0.162505
O20   O     O_3   0.420558 0.885882 0.721198 -0.589506
C44   C     C_3   0.304416 0.942052 0.721025 -0.410163
H40   H     H_    0.243932 0.899907 0.644078 0.178661
H41   H     H_    0.303863 0.041432 0.701134 0.165783
H42   H     H_    0.266223 0.929567 0.822865 0.159747
O21   O     O_3   0.625712 0.881025 0.295761 -0.507730
C45   C     C_3   0.747384 0.916739 0.312303 -0.321888
H43   H     H_    0.798616 0.846481 0.373825 0.155701
H44   H     H_    0.760389 0.006487 0.360256 0.112772
H45   H     H_    0.787261 0.924194 0.210790 0.155511
O22   O     O_3   0.553810 0.118052 0.741793 -0.519217
C46   C     C_3   0.586535 0.039396 0.851196 -0.191751
H46   H     H_    0.640141 0.958804 0.820155 0.125382
H47   H     H_    0.503945 0.015515 0.905184 0.197421
H48   H     H_    0.644015 0.089075 0.923781 0.157351

loop_
_geom_bond_atom_site_label_1
_geom_bond_atom_site_label_2
_ccdc_geom_bond_type
C9    O21   S    
C34   H8    S    
O19   C43   S    
C27   C29   A    
Cu1   O5    S    
O21   C45   S    
Cu2   O2    S    
C22   O14   S    
C40   H28   S    
C45   H44   S    
C42   H34   S    
C29   O9    S    
C38   H22   S    
C30   O10   S    
Cu1   N1    S    
C43   H39   S    
C35   H13   S    
Cu2   N2    S    
C32   H2    S    
C19   C21   A    
C24   C26   A    
C46   H47   S    
O20   C44   S    
O22   C46   S    
C3    C18   S    
C35   H12   S    
C13   N2    A    
C14   N1    A    
C1    O3    A    
C2    O4    A    
C36   H15   S    
C33   H6    S    
C44   H40   S    
C27   O17   S    
Cu2   O6    S    
C14   C16   A    
C13   H3    S    
C5    C32   A    
C6    C31   A    
O11   C35   S    
Cu1   O8    S    
C25   O15   S    
C44   H41   S    
C20   H18   S    
C1    C12   S    
C37   H21   S    
C2    C11   S    
C18   O6    A    
C45   H43   S    
C42   H35   S    
Cu1   Cu2   S    
C38   H23   S    
C7    C12   A    
C33   H7    S    
O14   C38   S    
C4    C6    A    
C46   H48   S    
O17   C41   S    
O16   C40   S    
C20   C30   A    
C41   H33   S    
O15   C39   S    
C18   O8    A    
C35   H11   S    
C43   H38   S    
C14   H4    S    
C13   C15   A    
C26   O16   S    
C36   H16   S    
O18   C42   S    
C41   H32   S    
C33   H5    S    
C3    C31   A    
C9    C11   A    
C15   N1    A    
C4    C32   A    
C10   C12   A    
C16   N2    A    
C4    C17   S    
C37   H20   S    
C20   C22   A    
O9    C33   S    
C39   H26   S    
C34   H9    S    
C44   H42   S    
C22   C24   A    
C19   H17   S    
C19   C29   A    
C42   H36   S    
C10   O22   S    
C21   O13   S    
C38   H24   S    
C1    O1    A    
C7    C9    A    
O10   C34   S    
Cu1   O4    S    
C15   O11   S    
Cu2   O3    S    
C17   O7    A    
C17   O5    A    
C37   H19   S    
C3    C5    A    
C8    O20   S    
C25   C27   A    
C39   H27   S    
C26   C28   A    
C28   O18   S    
Cu1   O1    S    
O12   C36   S    
C21   C23   A    
O13   C37   S    
C36   H14   S    
C46   H46   S    
C34   H10   S    
C5    C24   S    
C2    O2    A    
C8    C11   A    
C6    C23   S    
C28   C30   A    
C41   H31   S    
C31   H1    S    
C23   C25   A    
C43   H37   S    
C8    C10   A    
C39   H25   S    
C7    O19   S    
C40   H30   S    
C40   H29   S    
Cu2   O7    S    
C16   O12   S    
C45   H45   S    
