data_mof_unit_19267.cif
_audit_creation_date              2013-03-05T15:42:18-0500
_audit_creation_method            fapswitch 2.2
_symmetry_space_group_name_H-M    P1
_symmetry_Int_Tables_number       1
_space_group_crystal_system       triclinic
_cell_length_a                    11.040453
_cell_length_b                    10.994289
_cell_length_c                    9.698949
_cell_angle_alpha                 89.840403
_cell_angle_beta                  102.561919
_cell_angle_gamma                 89.993114
_cell_volume                      1149.09017167

loop_
_atom_site_label
_atom_site_type_symbol
_atom_site_description
_atom_site_fract_x
_atom_site_fract_y
_atom_site_fract_z
_atom_type_partial_charge
O1    O     O_R   0.500020 0.321960 0.617050 -0.594970
O2    O     O_R   0.499980 0.321920 0.382890 -0.584178
C1    C     C_R   0.494363 0.265792 0.498602 0.814928
O3    O     O_R   0.320700 0.500020 0.574050 -0.547221
O4    O     O_R   0.320660 0.499980 0.339890 -0.582563
C2    C     C_R   0.262851 0.499114 0.442731 0.851176
Cu1   Cu    Cu3+1 0.500020 0.500020 0.638640 0.986802
Cu2   Cu    Cu3+1 0.499980 0.499980 0.361360 0.928560
O5    O     O_R   0.500020 0.678080 0.617110 -0.515692
O6    O     O_R   0.499980 0.678040 0.382950 -0.589084
O7    O     O_R   0.679340 0.500020 0.660110 -0.581140
O8    O     O_R   0.679300 0.499980 0.425950 -0.575511
C3    C     C_R   0.501186 0.734026 0.499715 0.874519
C4    C     C_R   0.737145 0.498416 0.557211 0.852315
H1    H     H_    0.882819 0.488233 0.374490 0.183137
H2    H     H_    0.116950 0.482204 0.624709 0.209269
C5    C     C_2   0.127931 0.495860 0.410402 -0.362610
C6    C     C_2   0.067241 0.487749 0.515007 -0.119673
H3    H     H_    0.922180 0.495331 0.699009 0.157116
C7    C     C_2   0.872062 0.494134 0.589317 -0.342139
C8    C     C_2   0.932613 0.489108 0.484374 -0.161782
H4    H     H_    0.077923 0.500744 0.300797 0.149982
C9    C     C_2   0.469560 0.934965 0.388414 0.061663
C10   C     C_2   0.516373 0.864178 0.500668 -0.364813
H5    H     H_    0.570971 0.904250 0.596825 0.153127
C11   C     C_2   0.507300 0.062531 0.400389 0.070620
C12   C     C_2   0.463600 0.136795 0.490977 -0.099777
C13   C     C_2   0.440532 0.577939 0.908290 0.426094
N1    N     N_2   0.498650 0.498660 0.846590 -0.341508
H6    H     H_    0.534716 0.422676 0.902547 0.153463
C14   C     C_2   0.431807 0.569963 0.061072 -0.147607
N2    N     N_2   0.498620 0.498630 0.152710 -0.307226
H7    H     H_    0.368125 0.631360 0.096781 0.174508
H8    H     H_    0.564811 0.445995 0.121858 0.183353
C15   C     C_3   0.383023 0.888545 0.254336 -0.341617
C16   C     C_3   0.305815 0.989394 0.166115 -0.377894
C17   C     C_3   0.209999 0.936481 0.043468 -0.799405
H9    H     H_    0.256528 0.883317 0.972824 0.304745
H10   H     H_    0.144302 0.876545 0.083686 0.248487
H11   H     H_    0.156584 0.011488 0.981381 0.235830
H12   H     H_    0.256284 0.042868 0.233784 0.223514
H13   H     H_    0.367561 0.051593 0.122566 0.223802
H14   H     H_    0.439089 0.841532 0.188298 0.220633
H15   H     H_    0.317084 0.822202 0.284330 0.200006
C18   C     C_3   0.601965 0.099617 0.314305 -0.387153
C19   C     C_3   0.729352 0.129592 0.408468 -0.334938
C20   C     C_3   0.820481 0.171031 0.319982 -0.836950
H16   H     H_    0.833897 0.098225 0.245530 0.253179
H17   H     H_    0.785426 0.254458 0.259376 0.250202
H18   H     H_    0.911548 0.192078 0.390253 0.245062
H19   H     H_    0.721757 0.202908 0.484430 0.210696
H20   H     H_    0.767145 0.047360 0.469997 0.217243
H21   H     H_    0.615704 0.023046 0.244412 0.200556
H22   H     H_    0.566604 0.175478 0.241095 0.212287
C21   C     C_3   0.374608 0.094155 0.582889 -0.397769
C22   C     C_3   0.249902 0.161980 0.547025 -0.362212
C23   C     C_3   0.161361 0.115385 0.636208 -0.818582
H23   H     H_    0.138551 0.018183 0.612430 0.269217
H24   H     H_    0.203974 0.125169 0.750471 0.256665
H25   H     H_    0.074145 0.169159 0.612052 0.235995
H26   H     H_    0.264489 0.260559 0.567809 0.232803
H27   H     H_    0.206026 0.149878 0.433463 0.209656
H28   H     H_    0.353221 0.995907 0.573269 0.240439
H29   H     H_    0.419510 0.110096 0.695558 0.216446
N3    N     N_R   0.379397 0.678870 0.829635 0.146273
O9    O     O_R   0.428652 0.786438 0.852181 -0.414000
O10   O     O_R   0.262825 0.669652 0.767951 -0.396353

loop_
_geom_bond_atom_site_label_1
_geom_bond_atom_site_label_2
_geom_bond_distance
_ccdc_geom_bond_type
O4    Cu2   1.945131 S    
C21   C22   1.537085 S    
C14   H7    1.084907 S    
N1    H6    1.026828 S    
Cu1   N1    2.020253 S    
C4    C7    1.454673 S    
C20   H17   1.111112 S    
C6    C8    1.451081 S    
C15   H14   1.111204 S    
C12   C21   1.535770 S    
C16   H13   1.111089 S    
C5    H4    1.087267 S    
Cu2   O8    1.942283 S    
C9    C10   1.344828 D    
C14   N2    1.288382 D    
C21   H29   1.111790 S    
C7    C8    1.334995 D    
C1    C12   1.456690 S    
C5    C6    1.334713 D    
C16   H12   1.110685 S    
C18   H21   1.113163 S    
Cu1   Cu2   2.689231 S    
C17   H10   1.110952 S    
H2    C6    1.087480 S    
O1    Cu1   1.969390 S    
C18   C19   1.537449 S    
C22   C23   1.526984 S    
Cu1   O7    1.945131 S    
C15   H15   1.112523 S    
C11   C12   1.363688 D    
C17   H9    1.109177 S    
O3    Cu1   1.942282 S    
O3    C2    1.294773 A    
C16   C17   1.526151 S    
O7    C4    1.296452 A    
O8    C4    1.294269 A    
C18   H22   1.108260 S    
O2    C1    1.292517 A    
C20   H18   1.109862 S    
C23   H23   1.111226 S    
O4    C2    1.295843 A    
C9    C15   1.525685 S    
C22   H27   1.110968 S    
C23   H24   1.111287 S    
C17   H11   1.110440 S    
Cu2   N2    2.020569 S    
C20   H16   1.110772 S    
C19   H20   1.111840 S    
H1    C8    1.087822 S    
C10   H5    1.088599 S    
Cu2   O6    1.969389 S    
N3    O9    1.300776 A    
C9    C11   1.460859 S    
Cu1   O5    1.968170 S    
C2    C5    1.454425 S    
O5    C3    1.295144 A    
C22   H26   1.108299 S    
C13   N1    1.303585 D    
C23   H25   1.110218 S    
C11   C18   1.527570 S    
N3    O10   1.300016 A    
C19   C20   1.526391 S    
C13   N3    1.428292 S    
C19   H19   1.108928 S    
O6    C3    1.287995 A    
C13   C14   1.508025 S    
O2    Cu2   1.968170 S    
H3    C7    1.087302 S    
C3    C10   1.440564 S    
C21   H28   1.105557 S    
O1    C1    1.295294 A    
C15   C16   1.537955 S    
N2    H8    1.026855 S    
