data_mof_unit_29182.cif
_audit_creation_date              2012-12-10T17:19:55-0500
_audit_creation_method            fapswitch 2.2
_symmetry_space_group_name_H-M    P1
_symmetry_Int_Tables_number       1
_space_group_crystal_system       triclinic
_cell_length_a                    9.594721
_cell_length_b                    10.838643
_cell_length_c                    15.374417
_cell_angle_alpha                 85.857442
_cell_angle_beta                  74.406166
_cell_angle_gamma                 90.142678
_cell_volume                      1535.56947205

loop_
_atom_site_label
_atom_site_type_symbol
_atom_type_description
_atom_site_fract_x
_atom_site_fract_y
_atom_site_fract_z
_atom_type_partial_charge
C1    C     C_R   0.996765 0.261911 0.507199 0.889023
C2    C     C_R   0.678012 0.538097 0.908716 0.095188
C3    C     C_R   0.777576 0.517759 0.961246 0.091071
C4    C     C_R   0.530060 0.557801 0.952828 0.065872
C5    C     C_R   0.480602 0.535193 0.048418 0.081743
C6    C     C_R   0.583848 0.521904 0.098434 -0.133256
C7    C     C_R   0.729983 0.513512 0.055445 -0.206648
C8    C     C_R   0.431764 0.605437 0.905638 -0.162972
C9    C     C_R   0.289447 0.628889 0.951521 -0.161953
C10   C     C_R   0.237404 0.595367 0.044037 0.108091
C11   C     C_R   0.330167 0.538291 0.091905 0.015367
C12   C     C_R   0.918799 0.506722 0.672220 0.896556
C13   C     C_R   0.093561 0.618303 0.089388 -0.215171
C14   C     C_R   0.040867 0.584427 0.181562 -0.267032
C15   C     C_R   0.268270 0.486501 0.181208 0.294256
C16   C     C_R   0.074850 0.101548 0.658867 0.341369
C17   C     C_R   0.136106 0.027393 0.716248 -0.133209
C18   C     C_R   0.152065 0.902191 0.706004 -0.208943
C19   C     C_R   0.104154 0.849485 0.639477 -0.170712
C20   C     C_R   0.050086 0.923290 0.576296 0.056960
C21   C     C_R   0.040962 0.053326 0.583051 0.017060
C22   C     C_R   0.990939 0.126492 0.516630 -0.091019
C23   C     C_R   0.999640 0.737087 0.501665 0.730730
C24   C     C_R   0.937316 0.069311 0.453238 -0.176467
C25   C     C_R   0.938560 0.942331 0.450687 -0.189390
C26   C     C_R   0.997602 0.869554 0.509663 -0.057461
C27   C     C_R   0.698417 0.664616 0.377118 -0.154742
C28   C     C_R   0.652930 0.745570 0.316641 -0.221073
C29   C     C_R   0.508938 0.747055 0.317151 -0.196458
C30   C     C_R   0.409578 0.667400 0.377987 -0.120269
C31   C     C_R   0.451516 0.582049 0.439973 0.217309
C32   C     C_R   0.601233 0.581359 0.439721 0.214910
C33   C     C_R   0.548998 0.422048 0.557272 -0.048665
C34   C     C_R   0.081797 0.501583 0.327570 0.826015
C35   C     C_R   0.401151 0.421877 0.557094 0.014317
C36   C     C_R   0.875609 0.515486 0.771683 -0.113842
C37   C     C_R   0.128084 0.519491 0.228234 -0.099233
C38   C     C_R   0.924376 0.503230 0.919177 -0.236809
C39   C     C_R   0.974924 0.504610 0.825287 0.418524
C40   C     C_R   0.728883 0.533720 0.814267 -0.297934
Cu1   Cu    Cu3+1 0.140660 0.499990 0.500010 1.006729
Cu2   Cu    Cu3+1 0.859340 0.500010 0.499990 0.956378
H1    H     H_    0.805757 0.501999 0.096308 0.159906
H2    H     H_    0.162627 0.065412 0.773236 0.184949
H3    H     H_    0.193924 0.844357 0.753213 0.168854
H4    H     H_    0.107499 0.750092 0.640640 0.184547
H5    H     H_    0.897405 0.900763 0.400213 0.142268
H6    H     H_    0.730174 0.807920 0.269252 0.155972
H7    H     H_    0.325583 0.357717 0.603757 0.192516
H8    H     H_    0.932349 0.609951 0.216340 0.163786
H9    H     H_    0.464666 0.633516 0.834171 0.158337
N1    N     N_R   0.648320 0.501210 0.499140 -0.206771
N2    N     N_R   0.352470 0.501290 0.499110 -0.201605
O1    O     O_R   0.118810 0.319640 0.500010 -0.539297
O2    O     O_R   0.881240 0.319660 0.500000 -0.577852
O3    O     O_R   0.055570 0.499980 0.629840 -0.508740
O4    O     O_R   0.818000 0.500010 0.629830 -0.586424
O5    O     O_R   0.118760 0.680340 0.500000 -0.617429
O6    O     O_R   0.881190 0.680360 0.499990 -0.596630
O7    O     O_R   0.182000 0.499990 0.370170 -0.559447
O8    O     O_R   0.944430 0.500020 0.370160 -0.605689
H10   H     H_    0.023221 0.666082 0.054172 0.146662
H11   H     H_    0.896967 0.123857 0.403629 0.162556
Cl1   Cl    Cl    0.011183 0.241038 0.701200 -0.642830
H12   H     H_    0.583768 0.358139 0.604209 0.156745
H13   H     H_    0.810858 0.670849 0.371977 0.187700
Cl2   Cl    Cl    0.348013 0.358740 0.227291 -0.618104
H14   H     H_    0.473596 0.810668 0.270174 0.163826
H15   H     H_    0.301588 0.676930 0.373336 0.187871
H16   H     H_    0.219048 0.671716 0.914074 0.161717
H17   H     H_    0.000460 0.489287 0.959585 0.177347
Cl3   Cl    Cl    0.163280 0.489681 0.780748 -0.641013
H18   H     H_    0.654072 0.539599 0.772943 0.179303
H19   H     H_    0.553693 0.524049 0.171265 0.192756

loop_
_geom_bond_atom_site_label_1
_geom_bond_atom_site_label_2
_ccdc_geom_bond_type
C23   O5    A    
C16   C21   A    
C35   N2    A    
C34   C37   S    
Cu1   Cu2   S    
C19   C20   A    
C4    C8    A    
C19   H4    S    
C33   H12   S    
C14   H8    S    
C33   N1    A    
C23   O6    A    
C28   C29   A    
Cu1   O5    S    
C5    C11   A    
C3    C7    A    
C30   C31   A    
C40   H18   S    
C18   C19   A    
C23   C26   S    
C15   C37   A    
C11   C15   A    
C32   N1    A    
C13   H10   S    
C3    C38   A    
C16   C17   A    
C35   H7    S    
C39   Cl3   S    
C7    H1    S    
C12   C36   S    
C9    C10   A    
C25   H5    S    
C1    C22   S    
C21   C22   A    
C34   O7    A    
Cu2   O4    S    
C6    H19   S    
C38   C39   A    
C36   C40   A    
C24   C25   A    
C8    C9    A    
C25   C26   A    
C34   O8    A    
C2    C4    A    
C1    O1    A    
Cu1   O3    S    
C29   C30   A    
Cu2   O2    S    
C29   H14   S    
C31   C32   A    
C8    H9    S    
C15   Cl2   S    
C17   C18   A    
C31   N2    A    
Cu2   O8    S    
Cu1   N2    S    
C12   O3    A    
C12   O4    A    
C24   H11   S    
C22   C24   A    
C18   H3    S    
C30   H15   S    
C38   H17   S    
C28   H6    S    
C27   C32   A    
C36   C39   A    
Cu1   O7    S    
C4    C5    A    
C10   C13   A    
Cu2   O6    S    
C6    C7    A    
C2    C3    A    
C1    O2    A    
C17   H2    S    
C27   H13   S    
C14   C37   A    
C5    C6    A    
C20   C26   A    
C33   C35   A    
Cu1   O1    S    
C10   C11   A    
C9    H16   S    
C2    C40   A    
C20   C21   A    
C27   C28   A    
C16   Cl1   S    
C13   C14   A    
Cu2   N1    S    
