data_mof_unit_48864.cif
_audit_creation_date              2012-12-10T17:08:14-0500
_audit_creation_method            fapswitch 2.2
_symmetry_space_group_name_H-M    P1
_symmetry_Int_Tables_number       1
_space_group_crystal_system       triclinic
_cell_length_a                    23.542985
_cell_length_b                    11.029825
_cell_length_c                    9.798306
_cell_angle_alpha                 111.187698
_cell_angle_beta                  97.658779
_cell_angle_gamma                 91.77401
_cell_volume                      2342.58064556

loop_
_atom_site_label
_atom_site_type_symbol
_atom_type_description
_atom_site_fract_x
_atom_site_fract_y
_atom_site_fract_z
_atom_type_partial_charge
C1    C     C_R   0.495935 0.253956 0.440448 0.858321
C2    C     C_R   0.503881 0.746042 0.559593 0.886701
C3    C     C_R   0.251041 0.561712 0.654306 -0.099097
C4    C     C_R   0.762266 0.437926 0.601116 -0.078288
C5    C     C_R   0.308827 0.572293 0.642253 0.354495
C6    C     C_R   0.702808 0.431808 0.585398 0.352217
C7    C     C_R   0.328035 0.498890 0.507219 -0.342215
C8    C     C_R   0.671746 0.490986 0.495102 -0.322540
C9    C     C_R   0.286497 0.424634 0.381702 0.193492
C10   C     C_R   0.701849 0.544068 0.409249 0.286451
C11   C     C_R   0.227223 0.440386 0.389188 0.372518
C12   C     C_R   0.761385 0.525930 0.406296 0.246540
C13   C     C_R   0.209899 0.499610 0.529391 0.064335
C14   C     C_R   0.791778 0.482871 0.512401 0.081721
C15   C     C_2   0.493515 0.114441 0.406756 -0.305433
C16   C     C_2   0.506096 0.885559 0.593291 -0.294793
C17   C     C_2   0.500926 0.069613 0.516549 -0.141459
C18   C     C_2   0.498525 0.930384 0.483502 -0.142061
C19   C     C_2   0.501940 0.516971 0.082310 -0.007918
C20   C     C_2   0.494466 0.489733 0.918637 -0.019948
C21   C     C_R   0.390786 0.498616 0.501517 0.865261
C22   C     C_R   0.609129 0.499547 0.498238 0.908133
C23   C     C_R   0.885498 0.602654 0.596228 0.685036
C24   C     C_R   0.119959 0.380449 0.516333 0.697865
C25   C     C_R   0.878562 0.370198 0.491859 0.663366
C26   C     C_R   0.125206 0.612485 0.595079 0.661694
C27   C     C_R   0.938782 0.369688 0.499919 -0.148327
C28   C     C_R   0.065959 0.613109 0.604158 -0.146104
C29   C     C_R   0.972712 0.490429 0.559711 -0.090052
C30   C     C_R   0.033026 0.492228 0.562466 -0.088065
C31   C     C_R   0.946338 0.609156 0.615099 -0.186988
C32   C     C_R   0.060183 0.373487 0.522342 -0.199168
C33   C     C_R   0.965880 0.251829 0.454078 0.352988
C34   C     C_R   0.039259 0.731077 0.658153 0.339001
C35   C     C_R   0.025928 0.253254 0.483039 0.373606
C36   C     C_R   0.981716 0.729049 0.680683 0.385012
Cu1   Cu    Cu3+1 0.509980 0.521810 0.644910 1.008974
Cu2   Cu    Cu3+1 0.490020 0.478190 0.355090 1.057195
H1    H     H_    0.554649 0.627589 0.935519 0.231443
H2    H     H_    0.448359 0.366679 0.063525 0.233345
H3    H     H_    0.237449 0.610074 0.760878 0.221144
H4    H     H_    0.785874 0.400855 0.678363 0.218342
H5    H     H_    0.490613 0.864149 0.368172 0.179225
H6    H     H_    0.508856 0.135846 0.631875 0.189378
H7    H     H_    0.514038 0.952039 0.708427 0.161085
H8    H     H_    0.485566 0.047968 0.291613 0.171233
H9    H     H_    0.462371 0.413412 0.844844 0.163887
H10   H     H_    0.530905 0.599266 0.156935 0.187658
N1    N     N_R   0.853542 0.485199 0.532735 -0.436290
N2    N     N_R   0.150069 0.497510 0.546838 -0.438559
N3    N     N_2   0.475010 0.445410 0.137370 -0.271078
N4    N     N_2   0.524990 0.554590 0.862630 -0.268703
O1    O     O_R   0.505330 0.332340 0.577400 -0.599119
O2    O     O_R   0.494670 0.667660 0.422600 -0.582821
O3    O     O_R   0.488470 0.295500 0.332650 -0.542306
O4    O     O_R   0.511530 0.704500 0.667350 -0.577178
O5    O     O_R   0.426310 0.518390 0.622390 -0.578135
O6    O     O_R   0.573690 0.481610 0.377610 -0.528314
O7    O     O_R   0.409450 0.481550 0.377650 -0.498055
O8    O     O_R   0.590550 0.518450 0.622350 -0.548490
O9    O     O_2   0.857719 0.711938 0.636055 -0.452190
O10   O     O_2   0.148197 0.271891 0.475839 -0.403639
O11   O     O_2   0.844797 0.257295 0.444288 -0.461813
O12   O     O_2   0.158248 0.725386 0.633853 -0.463850
O13   O     O_3   0.934586 0.133436 0.377568 -0.578500
H11   H     H_    0.910677 0.142122 0.290769 0.369676
O14   O     O_3   0.068674 0.850328 0.690683 -0.562301
H12   H     H_    0.081321 0.848332 0.597396 0.372121
S1    S     S_3+6 0.054865 0.102122 0.469957 0.134843
O15   O     O_2   0.078063 0.046421 0.326104 -0.200968
O16   O     O_2   0.102392 0.123666 0.597208 -0.188373
O17   O     O_3   0.004182 0.993750 0.475953 -0.417006
H13   H     H_    0.014514 0.907056 0.413182 0.373004
S2    S     S_3+6 0.957558 0.877929 0.796966 0.142057
O18   O     O_2   0.925025 0.941500 0.701947 -0.174476
O19   O     O_2   0.919080 0.850442 0.895048 -0.213907
O20   O     O_3   0.013328 0.981937 0.906558 -0.421805
H14   H     H_    0.995742 0.060468 0.965801 0.376975
O21   O     O_3   0.345092 0.654924 0.765558 -0.662806
H15   H     H_    0.373619 0.700933 0.731439 0.335466
O22   O     O_3   0.676779 0.367975 0.661618 -0.638216
H16   H     H_    0.639489 0.324123 0.601552 0.327010
S3    S     S_3+6 0.307663 0.300141 0.225723 0.112991
O23   O     O_2   0.259497 0.196135 0.144073 -0.151880
O24   O     O_2   0.325786 0.360402 0.121408 -0.210029
O25   O     O_3   0.363136 0.227572 0.280810 -0.519761
H17   H     H_    0.349332 0.194797 0.353336 0.337145
S4    S     S_3+6 0.666779 0.641897 0.318451 0.056860
O26   O     O_2   0.708789 0.739008 0.301857 -0.221736
O27   O     O_2   0.637392 0.553769 0.167562 -0.269555
O28   O     O_3   0.617953 0.726389 0.416397 -0.551944
H18   H     H_    0.601942 0.779676 0.360337 0.359050
S5    S     S_3+6 0.175176 0.400204 0.225911 0.105326
O29   O     O_2   0.128294 0.491612 0.254219 -0.294297
O30   O     O_2   0.202837 0.411949 0.101057 -0.193067
O31   O     O_3   0.145774 0.246559 0.176123 -0.419629
H19   H     H_    0.115717 0.233912 0.090053 0.395077
S6    S     S_3+6 0.797837 0.543490 0.264514 0.131339
O32   O     O_2   0.841860 0.445509 0.228676 -0.252767
O33   O     O_2   0.756405 0.519500 0.124997 -0.148321
O34   O     O_3   0.832168 0.693494 0.320363 -0.418133
H20   H     H_    0.813390 0.749648 0.402485 0.391874

loop_
_geom_bond_atom_site_label_1
_geom_bond_atom_site_label_2
_ccdc_geom_bond_type
S5    O29   D    
C27   C29   A    
C19   C20   S    
O22   H16   S    
C33   O13   S    
O20   H14   S    
C27   C33   A    
C10   S4    S    
O34   H20   S    
S2    O19   D    
Cu1   Cu2   S    
C21   O7    A    
C26   N2    A    
C22   O8    A    
C23   N1    A    
C14   N1    S    
C7    C9    A    
C25   O11   S    
S1    O16   D    
C26   O12   S    
C1    O1    A    
Cu2   O6    S    
Cu1   O4    S    
C3    H3    S    
Cu2   O3    S    
S2    O20   S    
C8    C22   S    
C1    C15   S    
C5    O21   S    
C2    C16   S    
C12   S6    S    
C3    C13   A    
Cu1   O1    S    
C11   S5    S    
H1    N4    S    
C28   C34   A    
S5    O30   D    
C6    O22   S    
C24   N2    A    
S2    O18   D    
O14   H12   S    
Cu1   O8    S    
C32   C35   A    
O21   H15   S    
C4    C6    A    
C2    O2    A    
O28   H18   S    
C5    C7    A    
Cu1   N4    S    
O25   H17   S    
C6    C8    A    
Cu2   N3    S    
C7    C21   S    
Cu2   O7    S    
C23   C31   A    
C16   H7    S    
S1    O17   S    
C24   C32   A    
C21   O5    A    
C29   C30   A    
S3    O23   D    
Cu2   O2    S    
S4    O28   S    
C29   C31   A    
O31   H19   S    
C17   C18   S    
C9    C11   A    
C10   C12   A    
C9    S3    S    
C16   C18   D    
S3    O24   D    
S4    O27   D    
S6    O32   D    
S5    O31   S    
S6    O33   D    
H2    N3    S    
C15   C17   D    
C36   S2    S    
C24   O10   S    
C19   H10   S    
C12   C14   A    
O17   H13   S    
C3    C5    A    
C34   O14   S    
C22   O6    A    
C25   C27   A    
S6    O34   S    
C26   C28   A    
C28   C30   A    
C1    O3    A    
C17   H6    S    
C20   N4    D    
C2    O4    A    
C18   H5    S    
C30   C32   A    
C11   C13   A    
C4    H4    S    
C33   C35   A    
C34   C36   A    
C4    C14   A    
S1    O15   D    
C25   N1    A    
C20   H9    S    
C13   N2    S    
C19   N3    D    
C23   O9    S    
S3    O25   S    
S4    O26   D    
C35   S1    S    
C8    C10   A    
O13   H11   S    
C31   C36   A    
C15   H8    S    
Cu1   O5    S    
