data_mof_unit_56911.cif
_audit_creation_date              2012-12-10T20:31:07-0500
_audit_creation_method            fapswitch 2.2
_symmetry_space_group_name_H-M    P1
_symmetry_Int_Tables_number       1
_space_group_crystal_system       triclinic
_cell_length_a                    14.985093
_cell_length_b                    10.674959
_cell_length_c                    9.849718
_cell_angle_alpha                 90.166468
_cell_angle_beta                  89.952728
_cell_angle_gamma                 90.131738
_cell_volume                      1575.60129302

loop_
_atom_site_label
_atom_site_type_symbol
_atom_type_description
_atom_site_fract_x
_atom_site_fract_y
_atom_site_fract_z
_atom_type_partial_charge
C1    C     C_R   0.504165 0.259952 0.499693 0.889609
C2    C     C_R   0.184925 0.455014 0.392443 -0.356570
C3    C     C_R   0.230892 0.508724 0.500975 -0.122417
C4    C     C_R   0.326711 0.502539 0.500245 0.942749
C5    C     C_R   0.186068 0.570381 0.607219 0.371103
C6    C     C_R   0.508199 0.064194 0.622070 0.103070
C7    C     C_R   0.519674 0.128432 0.500402 -0.114291
C8    C     C_R   0.548589 0.063114 0.383361 0.087599
C9    C     C_R   0.547002 0.932908 0.385120 -0.282414
C10   C     C_R   0.517636 0.871005 0.502134 -0.124717
C11   C     C_R   0.507383 0.936684 0.623007 0.119127
C12   C     C_R   0.906030 0.557420 0.611620 0.123390
C13   C     C_3   0.434588 0.930637 0.726608 -0.449809
C14   C     C_3   0.435469 0.072673 0.725815 -0.495401
C15   C     C_R   0.455443 0.408762 0.071042 0.235693
C16   C     C_R   0.502835 0.739960 0.500264 0.897959
C17   C     C_R   0.550401 0.583159 0.072232 -0.131706
C18   C     C_R   0.550372 0.583215 0.928128 -0.128572
C19   C     C_R   0.455490 0.408709 0.928347 0.205823
C20   C     C_3   0.357809 0.382533 0.922563 -0.496077
C21   C     C_3   0.357728 0.382926 0.076591 -0.531234
C22   C     C_R   0.673264 0.500259 0.499931 0.885103
C23   C     C_R   0.954436 0.406653 0.277374 -0.225861
C24   C     C_R   0.813757 0.553100 0.611454 -0.266708
C25   C     C_R   0.768871 0.502574 0.499839 -0.065716
C26   C     C_R   0.815078 0.455045 0.387970 -0.265204
C27   C     C_R   0.907426 0.456920 0.387376 0.116006
C28   C     C_R   0.953301 0.509119 0.499361 0.087018
C29   C     C_R   0.047050 0.406480 0.278837 -0.194369
C30   C     C_R   0.092954 0.458359 0.389328 0.125594
C31   C     C_R   0.046319 0.511919 0.499517 0.007264
C32   C     C_R   0.092469 0.566717 0.610301 0.006794
C33   C     C_R   0.044060 0.612463 0.722414 -0.214135
C34   C     C_R   0.951505 0.608066 0.722647 -0.218944
H1    H     H_    0.776829 0.590479 0.697239 0.154583
H2    H     H_    0.342952 0.289022 0.878161 0.193549
H3    H     H_    0.319312 0.462251 0.120497 0.225118
H4    H     H_    0.779177 0.414976 0.302571 0.161049
H5    H     H_    0.342780 0.289684 0.121228 0.199303
H6    H     H_    0.919623 0.366346 0.191231 0.147514
H7    H     H_    0.082796 0.365688 0.193872 0.148542
H8    H     H_    0.220936 0.409186 0.310794 0.171378
H9    H     H_    0.076690 0.649090 0.812065 0.160496
H10   H     H_    0.915478 0.643681 0.810036 0.144946
H11   H     H_    0.202922 0.711107 0.729769 0.320934
H12   H     H_    0.563621 0.881535 0.293461 0.164706
H13   H     H_    0.532805 0.098311 0.183229 0.179285
H14   H     H_    0.639843 0.099201 0.237474 0.175745
H15   H     H_    0.371798 0.889425 0.685863 0.214263
H16   H     H_    0.457985 0.890050 0.824087 0.204515
H17   H     H_    0.373119 0.114313 0.684799 0.198392
H18   H     H_    0.459424 0.114077 0.822906 0.204472
H19   H     H_    0.589677 0.651853 0.126889 0.141266
H20   H     H_    0.589598 0.651972 0.873806 0.140292
H21   H     H_    0.319140 0.461165 0.878323 0.263383
N1    N     N_R   0.499390 0.499140 0.142800 -0.105704
N2    N     N_R   0.499390 0.499180 0.857150 -0.101964
N3    N     N_3   0.574955 0.127134 0.261976 -0.429329
O1    O     O_R   0.500010 0.316790 0.614690 -0.626999
O2    O     O_R   0.500000 0.316760 0.385350 -0.595806
O3    O     O_R   0.367850 0.499990 0.614680 -0.568348
O4    O     O_R   0.367840 0.499950 0.385340 -0.638503
O5    O     O_R   0.500000 0.683240 0.614650 -0.615372
O6    O     O_R   0.499990 0.683210 0.385310 -0.627607
O7    O     O_R   0.632160 0.500050 0.614660 -0.630013
O8    O     O_R   0.632150 0.500010 0.385320 -0.626236
O9    O     O_3   0.235366 0.633900 0.704124 -0.782219
Zn1   Zn    Zn3+2 0.500010 0.500020 0.653130 0.964190
Zn2   Zn    Zn3+2 0.499990 0.499980 0.346870 0.950424

loop_
_geom_bond_atom_site_label_1
_geom_bond_atom_site_label_2
_ccdc_geom_bond_type
H11   O9    S    
C22   O7    A    
H14   N3    S    
C29   C30   A    
C16   O5    A    
C23   C27   A    
O1    Zn1   S    
C6    C14   S    
C9    C10   A    
C12   C24   A    
C18   N2    A    
C31   C32   A    
C21   H5    S    
C2    C30   A    
C5    O9    S    
O7    Zn1   S    
C8    N3    S    
C15   N1    A    
C5    C32   A    
C33   C34   A    
C25   C26   A    
C17   H19   S    
C21   H3    S    
C9    H12   S    
C10   C16   S    
O6    Zn2   S    
C32   C33   A    
H13   N3    S    
C15   C19   A    
C11   C13   S    
O3    Zn1   S    
C26   C27   A    
C6    C7    A    
C15   C21   S    
O2    Zn2   S    
C2    H8    S    
C20   H21   S    
C13   H15   S    
C23   C29   A    
C13   H16   S    
C6    C11   A    
C12   C28   A    
C17   C18   A    
C17   N1    A    
C1    O1    A    
C14   H17   S    
C30   C31   A    
C14   H18   S    
C24   H1    S    
C10   C11   A    
C18   H20   S    
N2    Zn1   S    
C12   C34   A    
C23   H6    S    
O8    Zn2   S    
C4    O4    A    
C7    C8    A    
C34   H10   S    
C24   C25   A    
N1    Zn2   S    
C1    O2    A    
C27   C28   A    
C20   H2    S    
O5    Zn1   S    
C22   O8    A    
C1    C7    S    
C2    C3    A    
C16   O6    A    
C29   H7    S    
C20   C21   S    
C13   C14   S    
C4    O3    A    
C19   N2    A    
C28   C31   A    
C26   H4    S    
C3    C4    S    
C19   C20   S    
O4    Zn2   S    
C8    C9    A    
C3    C5    A    
C22   C25   S    
C33   H9    S    
