data_mof_unit_44499.cif
_audit_creation_date              2012-12-10T17:27:06-0500
_audit_creation_method            fapswitch 2.2
_symmetry_space_group_name_H-M    P1
_symmetry_Int_Tables_number       1
_space_group_crystal_system       triclinic
_cell_length_a                    17.655006
_cell_length_b                    19.60493
_cell_length_c                    12.095596
_cell_angle_alpha                 90.109038
_cell_angle_beta                  89.05004
_cell_angle_gamma                 90.107868
_cell_volume                      4185.9998866

loop_
_atom_site_label
_atom_site_type_symbol
_atom_type_description
_atom_site_fract_x
_atom_site_fract_y
_atom_site_fract_z
_atom_type_partial_charge
C1    C     C_R   0.406157 0.104588 0.518354 0.876450
C2    C     C_R   0.537128 0.996396 0.023207 -0.124217
C3    C     C_1   0.827933 0.463317 0.018048 0.166104
C4    C     C_R   0.963497 0.493401 0.976514 -0.117558
C5    C     C_R   0.037035 0.496315 0.023287 -0.127146
C6    C     C_R   0.589906 0.008423 0.833539 0.255599
C7    C     C_R   0.409981 0.003026 0.165254 0.259214
C8    C     C_R   0.089696 0.508402 0.833953 0.255417
C9    C     C_R   0.909955 0.503460 0.165175 0.261811
C10   C     C_R   0.600740 0.000482 0.948802 -0.065470
C11   C     C_R   0.400435 0.990191 0.051104 -0.055414
C12   C     C_R   0.100600 0.500485 0.949142 -0.065505
C13   C     C_R   0.596453 0.896389 0.481106 0.880748
C14   C     C_R   0.900320 0.490259 0.051029 -0.055055
C15   C     C_R   0.456585 0.991619 0.857573 0.304662
C16   C     C_R   0.543931 0.992816 0.142298 0.305399
C17   C     C_R   0.956579 0.491356 0.857551 0.304074
C18   C     C_R   0.043779 0.492229 0.142209 0.306859
C19   C     C_R   0.642782 0.165183 0.472690 -0.229602
C20   C     C_R   0.353881 0.835618 0.528462 -0.224843
C21   C     C_R   0.359494 0.166387 0.527229 -0.233936
C22   C     C_R   0.646029 0.835182 0.472094 -0.228115
C23   C     C_R   0.142312 0.665298 0.472114 -0.230303
C24   C     C_R   0.594045 0.104501 0.481676 0.872894
C25   C     C_R   0.856037 0.334030 0.527868 -0.225546
C26   C     C_R   0.859069 0.666167 0.527793 -0.227057
C27   C     C_R   0.148604 0.337419 0.472420 -0.218491
C28   C     C_R   0.277951 0.761302 0.648270 0.183106
C29   C     C_R   0.730463 0.225866 0.352990 0.184162
C30   C     C_R   0.720176 0.758683 0.353624 0.186711
C31   C     C_R   0.279720 0.234982 0.647749 0.191920
C32   C     C_R   0.782266 0.257933 0.647373 0.183714
C33   C     C_R   0.231260 0.725546 0.353513 0.184697
C34   C     C_R   0.218889 0.257515 0.354642 0.187300
C35   C     C_R   0.403479 0.896614 0.518928 0.891687
C36   C     C_R   0.775803 0.731295 0.648382 0.183500
C37   C     C_R   0.340806 0.804366 0.632428 -0.087646
C38   C     C_R   0.663603 0.189343 0.366889 -0.087803
C39   C     C_R   0.658846 0.803346 0.368524 -0.094007
C40   C     C_R   0.342877 0.193775 0.632509 -0.091575
C41   C     C_R   0.844069 0.302156 0.631507 -0.088590
C42   C     C_R   0.165027 0.688031 0.365969 -0.085822
C43   C     C_R   0.158397 0.302899 0.370178 -0.100532
C44   C     C_R   0.840887 0.692389 0.633232 -0.096984
C45   C     C_R   0.317533 0.808417 0.434735 0.154301
C46   C     C_R   0.906026 0.604508 0.518568 0.875901
C47   C     C_R   0.675813 0.194727 0.567393 0.165469
C48   C     C_R   0.682233 0.808184 0.566323 0.155363
C49   C     C_R   0.325631 0.194970 0.432883 0.162577
C50   C     C_R   0.820219 0.306217 0.434012 0.152228
C51   C     C_R   0.173081 0.696558 0.567189 0.165372
C52   C     C_R   0.189021 0.314161 0.565523 0.158414
C53   C     C_R   0.826131 0.695432 0.433294 0.157852
C54   C     C_R   0.263049 0.756476 0.447598 -0.043047
C55   C     C_R   0.739589 0.237160 0.554971 -0.020100
C56   C     C_R   0.739347 0.758484 0.554259 -0.033783
C57   C     C_R   0.097466 0.397265 0.481022 0.884412
C58   C     C_R   0.263387 0.238979 0.446041 -0.019513
C59   C     C_R   0.764715 0.255161 0.446953 -0.041073
C60   C     C_R   0.236601 0.739359 0.555394 -0.019896
C61   C     C_R   0.242706 0.261638 0.553857 -0.046447
C62   C     C_R   0.763215 0.738721 0.446018 -0.024970
C63   C     C_3   0.277668 0.046177 0.206035 -0.873255
C64   C     C_3   0.724965 0.049638 0.782726 -0.869801
C65   C     C_3   0.775958 0.544323 0.204848 -0.878241
C66   C     C_3   0.219239 0.558280 0.783738 -0.855685
C67   C     C_3   0.668716 0.014282 0.230326 -0.651427
C68   C     C_R   0.093907 0.604545 0.481518 0.869142
C69   C     C_3   0.329838 0.024363 0.787355 -0.680520
C70   C     C_3   0.169083 0.510319 0.230640 -0.652451
C71   C     C_3   0.830198 0.523020 0.785166 -0.683958
C72   C     C_3   0.577001 0.232278 0.696045 -0.721726
C73   C     C_3   0.272291 0.876504 0.281465 -0.694194
C74   C     C_3   0.423811 0.228677 0.300297 -0.713548
C75   C     C_3   0.718666 0.881888 0.716468 -0.702457
C76   C     C_3   0.074975 0.739694 0.692241 -0.726400
C77   C     C_3   0.778577 0.375497 0.280992 -0.691408
C78   C     C_3   0.931042 0.720014 0.306281 -0.706002
C79   C     C_R   0.904118 0.396148 0.518764 0.892047
C80   C     C_3   0.240907 0.392155 0.701997 -0.723701
C81   C     C_1   0.615183 0.179734 0.272520 0.214124
C82   C     C_1   0.395091 0.809454 0.720632 0.196899
C83   C     C_1   0.390928 0.181635 0.726432 0.227242
C84   C     C_1   0.605376 0.809609 0.279470 0.223099
C85   C     C_1   0.118908 0.676753 0.269681 0.214763
C86   C     C_1   0.898483 0.308250 0.719400 0.199692
C87   C     C_1   0.890225 0.681952 0.726187 0.221374
C88   C     C_1   0.103665 0.308431 0.282557 0.223968
C89   C     C_3   0.742254 0.271606 0.841565 -0.727262
C90   C     C_R   0.463615 0.993465 0.976553 -0.118373
C91   C     C_3   0.244474 0.734661 0.144752 -0.745975
C92   C     C_3   0.249201 0.262166 0.154563 -0.742844
C93   C     C_3   0.774452 0.753645 0.853873 -0.765352
C94   C     C_3   0.236985 0.778635 0.841426 -0.728024
C95   C     C_3   0.740040 0.237426 0.144744 -0.751886
C96   C     C_3   0.753775 0.767826 0.154943 -0.740370
C97   C     C_3   0.282507 0.264949 0.851278 -0.755740
C98   C     C_1   0.677409 0.990907 0.985245 0.170419
C99   C     C_1   0.327686 0.963796 0.018347 0.170115
C100  C     C_1   0.177555 0.491922 0.985057 0.176949
H1    H     H_    0.351902 0.002145 0.319670 0.290999
H2    H     H_    0.749640 0.570116 0.277667 0.229717
H3    H     H_    0.734173 0.505840 0.177515 0.269612
H4    H     H_    0.786653 0.582507 0.138872 0.263432
H5    H     H_    0.147490 0.502151 0.680191 0.293899
H6    H     H_    0.239179 0.584314 0.707066 0.235398
H7    H     H_    0.267132 0.525674 0.809663 0.262373
H8    H     H_    0.206563 0.597317 0.847990 0.262965
H9    H     H_    0.633221 0.924242 0.154331 0.219476
H10   H     H_    0.726162 0.995302 0.208854 0.204649
H11   H     H_    0.669322 0.015236 0.321267 0.248567
H12   H     H_    0.252857 0.072216 0.279721 0.232060
H13   H     H_    0.662482 0.065354 0.193244 0.237395
H14   H     H_    0.366682 0.925769 0.825694 0.229160
H15   H     H_    0.274039 0.007010 0.819600 0.213864
H16   H     H_    0.321596 0.031315 0.697667 0.246183
H17   H     H_    0.343327 0.072747 0.829158 0.240314
H18   H     H_    0.131608 0.422156 0.151147 0.217853
H19   H     H_    0.225954 0.488964 0.211812 0.204008
H20   H     H_    0.167765 0.512578 0.321527 0.250843
H21   H     H_    0.165857 0.561133 0.191806 0.236582
H22   H     H_    0.867237 0.424604 0.825682 0.229441
H23   H     H_    0.233851 0.009957 0.177394 0.268247
H24   H     H_    0.774612 0.506766 0.819548 0.213813
H25   H     H_    0.821495 0.527862 0.695177 0.245378
H26   H     H_    0.844362 0.572288 0.823465 0.239961
H27   H     H_    0.637176 0.141623 0.709175 0.290928
H28   H     H_    0.561942 0.229011 0.785525 0.246030
H29   H     H_    0.528572 0.215491 0.645638 0.237152
H30   H     H_    0.591362 0.286276 0.677006 0.232834
H31   H     H_    0.386175 0.840315 0.297661 0.257437
H32   H     H_    0.287146 0.888927 0.194622 0.255719
H33   H     H_    0.263827 0.922549 0.332486 0.234738
H34   H     H_    0.290322 0.084585 0.141073 0.263474
H35   H     H_    0.217141 0.849927 0.281719 0.235156
H36   H     H_    0.360290 0.139313 0.291181 0.283120
H37   H     H_    0.436860 0.225370 0.210237 0.241948
H38   H     H_    0.472762 0.210208 0.347693 0.239798
H39   H     H_    0.412200 0.282799 0.321414 0.235460
H40   H     H_    0.609185 0.837038 0.698449 0.257079
H41   H     H_    0.700203 0.897974 0.800737 0.246337
H42   H     H_    0.725415 0.924545 0.658264 0.229977
H43   H     H_    0.776007 0.860261 0.721631 0.242286
H44   H     H_    0.127302 0.645705 0.708297 0.288180
H45   H     H_    0.646007 0.002862 0.679064 0.292930
H46   H     H_    0.059053 0.738298 0.781534 0.246142
H47   H     H_    0.025779 0.724970 0.641741 0.235039
H48   H     H_    0.093182 0.792449 0.671652 0.236237
H49   H     H_    0.891084 0.337560 0.299977 0.257762
H50   H     H_    0.794785 0.388686 0.194975 0.254524
H51   H     H_    0.770826 0.420671 0.334019 0.233807
H52   H     H_    0.722563 0.350658 0.279382 0.236614
H53   H     H_    0.854793 0.639503 0.291500 0.280703
H54   H     H_    0.944054 0.718518 0.216087 0.242370
H55   H     H_    0.976004 0.693166 0.351326 0.245083
H56   H     H_    0.749127 0.073202 0.706604 0.235467
H57   H     H_    0.928580 0.774243 0.333230 0.231690
H58   H     H_    0.128254 0.350186 0.708106 0.255331
H59   H     H_    0.231878 0.407839 0.789433 0.251856
H60   H     H_    0.243087 0.436363 0.645716 0.231764
H61   H     H_    0.297033 0.367386 0.695270 0.241860
H62   H     H_    0.810500 0.193242 0.776583 0.220433
H63   H     H_    0.704733 0.241410 0.898184 0.240711
H64   H     H_    0.708627 0.315008 0.809040 0.249157
H65   H     H_    0.790469 0.291702 0.889755 0.230091
H66   H     H_    0.326068 0.693779 0.256372 0.223065
H67   H     H_    0.765890 0.009875 0.807406 0.266916
H68   H     H_    0.288534 0.760539 0.093238 0.241983
H69   H     H_    0.194586 0.768766 0.149933 0.241663
H70   H     H_    0.228851 0.685999 0.103763 0.236988
H71   H     H_    0.189373 0.183905 0.238188 0.217618
H72   H     H_    0.299140 0.238035 0.113744 0.244896
H73   H     H_    0.264041 0.315585 0.175701 0.243618
H74   H     H_    0.202041 0.262499 0.094758 0.227369
H75   H     H_    0.694975 0.695111 0.763424 0.225127
H76   H     H_    0.735378 0.788283 0.899336 0.247115
H77   H     H_    0.827335 0.782469 0.835733 0.239296
H78   H     H_    0.719080 0.089752 0.846965 0.268495
H79   H     H_    0.787283 0.709489 0.907752 0.233775
H80   H     H_    0.302455 0.697291 0.779970 0.221059
H81   H     H_    0.197073 0.750770 0.897382 0.242121
H82   H     H_    0.206646 0.823232 0.806920 0.247704
H83   H     H_    0.285508 0.796838 0.890880 0.230658
H84   H     H_    0.821518 0.192848 0.251138 0.227160
H85   H     H_    0.783020 0.264807 0.093782 0.244885
H86   H     H_    0.689846 0.271104 0.153492 0.241039
H87   H     H_    0.723868 0.189863 0.101267 0.236048
H88   H     H_    0.695001 0.686458 0.232427 0.217097
H89   H     H_    0.851777 0.503240 0.319678 0.289663
H90   H     H_    0.804759 0.745269 0.114465 0.247474
H91   H     H_    0.767239 0.820996 0.179439 0.244375
H92   H     H_    0.707400 0.768696 0.093963 0.225659
H93   H     H_    0.188496 0.220303 0.764297 0.224845
H94   H     H_    0.244882 0.302432 0.893387 0.242504
H95   H     H_    0.336176 0.290741 0.828493 0.241210
H96   H     H_    0.294019 0.222779 0.909790 0.236397
N1    N     N_R   0.480750 0.000000 0.209750 -0.149725
N2    N     N_2   0.387442 0.973213 0.805694 -0.261343
N3    N     N_2   0.110523 0.464962 0.190407 -0.265672
N4    N     N_2   0.887712 0.472197 0.805784 -0.260760
N5    N     N_2   0.641115 0.188811 0.673957 -0.273312
N6    N     N_2   0.331349 0.834590 0.326685 -0.277757
N7    N     N_2   0.358595 0.186983 0.325177 -0.276743
N8    N     N_2   0.665231 0.832888 0.674261 -0.273135
N9    N     N_2   0.135967 0.692341 0.672564 -0.275412
N10   N     N_2   0.835617 0.331286 0.325799 -0.278455
N11   N     N_2   0.859419 0.686978 0.326508 -0.275172
N12   N     N_R   0.519250 0.000000 0.790250 -0.150487
N13   N     N_2   0.180978 0.345906 0.670825 -0.281581
N14   N     N_1   0.576813 0.172314 0.196832 -0.234126
N15   N     N_1   0.438419 0.812484 0.791252 -0.238558
N16   N     N_1   0.429002 0.172410 0.801810 -0.235024
N17   N     N_1   0.562654 0.813608 0.208254 -0.236529
N18   N     N_1   0.082333 0.668218 0.192384 -0.236660
N19   N     N_1   0.941964 0.312135 0.789684 -0.238140
N20   N     N_1   0.929535 0.674010 0.800657 -0.233560
N21   N     N_1   0.060127 0.311985 0.212306 -0.237059
N22   N     N_2   0.769570 0.227442 0.753323 -0.294095
N23   N     N_R   0.980750 0.500000 0.209750 -0.148975
N24   N     N_2   0.275016 0.720409 0.252917 -0.283716
N25   N     N_2   0.227625 0.222677 0.251364 -0.291370
N26   N     N_2   0.737945 0.730155 0.753982 -0.280735
N27   N     N_2   0.263240 0.732635 0.754994 -0.292361
N28   N     N_2   0.772203 0.220682 0.250802 -0.285089
N29   N     N_2   0.731488 0.726147 0.248889 -0.293789
N30   N     N_2   0.244362 0.237333 0.755201 -0.286831
N31   N     N_1   0.739681 0.982751 0.010815 -0.245904
N32   N     N_1   0.269162 0.941705 0.994692 -0.257230
N33   N     N_1   0.239992 0.484810 0.010072 -0.247649
N34   N     N_R   0.019250 0.500000 0.790250 -0.152335
N35   N     N_1   0.769738 0.440678 0.994079 -0.256248
N36   N     N_2   0.345239 0.009241 0.237098 -0.315806
N37   N     N_2   0.652313 0.018716 0.758269 -0.317634
N38   N     N_2   0.845509 0.510976 0.237192 -0.316066
N39   N     N_2   0.153860 0.516329 0.760176 -0.313650
N40   N     N_2   0.611287 0.967373 0.191414 -0.265414
O1    O     O_R   0.418020 0.076820 0.422210 -0.650164
O2    O     O_R   0.569630 0.923170 0.391410 -0.591504
O3    O     O_R   0.569630 0.076830 0.391410 -0.608726
O4    O     O_R   0.430370 0.923170 0.608590 -0.594419
O5    O     O_R   0.930370 0.576830 0.608590 -0.600026
O6    O     O_R   0.069630 0.423170 0.391410 -0.592977
O7    O     O_R   0.069630 0.576830 0.391410 -0.613217
O8    O     O_R   0.930370 0.423170 0.608590 -0.593141
O9    O     O_R   0.581980 0.923180 0.577790 -0.652070
O10   O     O_R   0.581980 0.076820 0.577790 -0.647658
O11   O     O_R   0.418020 0.923180 0.422210 -0.650068
O12   O     O_R   0.918020 0.576820 0.422210 -0.649913
O13   O     O_R   0.081980 0.423180 0.577790 -0.651662
O14   O     O_R   0.081980 0.576820 0.577790 -0.648370
O15   O     O_R   0.918020 0.423180 0.422210 -0.649142
O16   O     O_R   0.430370 0.076830 0.608590 -0.600935
Zn1   Zn    Zn3+2 0.491750 0.000000 0.375560 0.952103
Zn2   Zn    Zn3+2 0.508250 1.000000 0.624440 0.953776
Zn3   Zn    Zn3+2 0.991750 0.500000 0.375560 0.950103
Zn4   Zn    Zn3+2 0.008250 0.500000 0.624440 0.953772

loop_
_geom_bond_atom_site_label_1
_geom_bond_atom_site_label_2
_ccdc_geom_bond_type
C97   H94   S    
C29   N28   S    
C22   C48   A    
H62   N22   S    
C69   H16   S    
C1    C21   S    
C70   N3    S    
C17   N34   A    
H45   N37   S    
C63   H23   S    
O4    Zn2   S    
C31   C61   A    
C77   H50   S    
C24   O10   A    
C40   C83   S    
C66   H7    S    
C77   H51   S    
C49   N7    S    
C93   H79   S    
C1    O16   A    
C26   C44   A    
C71   N4    S    
C54   C60   A    
O15   Zn3   S    
C27   C52   A    
C7    C11   A    
C41   C86   S    
C74   H38   S    
C23   C42   A    
N23   Zn3   S    
C13   C22   S    
C72   H28   S    
C50   C59   A    
C96   H91   S    
O1    Zn1   S    
C100  N33   T    
C75   H42   S    
C39   C84   S    
C82   N15   T    
C64   H67   S    
C55   C59   A    
C52   C61   A    
H40   N8    S    
C19   C47   A    
C78   H55   S    
C80   H60   S    
C74   N7    S    
C16   N40   S    
C68   O7    A    
C91   N24   S    
O7    Zn3   S    
C88   N21   T    
C47   N5    S    
H80   N27   S    
C48   C56   A    
H58   N13   S    
C96   H90   S    
C63   H12   S    
C10   C98   S    
H31   N6    S    
C25   C50   A    
C75   H41   S    
C31   C40   A    
C78   N11   S    
C20   C35   S    
C8    N34   A    
C69   H15   S    
C73   H35   S    
C76   H47   S    
C70   H20   S    
C45   N6    S    
O11   Zn1   S    
C29   C38   A    
O3    Zn1   S    
C32   C41   A    
C71   H26   S    
C93   N26   S    
C94   H81   S    
C63   N36   S    
C44   C87   S    
C2    C16   A    
C32   C55   A    
C6    N12   A    
C99   N32   T    
C34   N25   S    
C9    N23   A    
C58   C61   A    
C81   N14   T    
C89   N22   S    
C15   N12   A    
N1    Zn1   S    
H53   N11   S    
O6    Zn3   S    
H5    N39   S    
C30   N29   S    
N12   Zn2   S    
C65   H2    S    
C66   H6    S    
C43   C88   S    
H18   N3    S    
C77   H52   S    
C21   C49   A    
H71   N25   S    
C83   N16   T    
C7    N36   S    
C28   C60   A    
O14   Zn4   S    
C17   N4    S    
C74   H37   S    
C67   N40   S    
O12   Zn3   S    
C91   H69   S    
O2    Zn1   S    
C95   H87   S    
C63   H34   S    
C29   C59   A    
C65   N38   S    
C72   H29   S    
C5    C12   A    
H88   N29   S    
C27   C57   S    
C3    N35   T    
O5    Zn4   S    
C15   N2    S    
C93   H77   S    
C78   H54   S    
C80   H59   S    
C79   O15   A    
C5    C18   A    
O10   Zn2   S    
C1    O1    A    
C18   N23   A    
C49   C58   A    
C23   C68   S    
C7    N1    A    
C9    C14   A    
C8    N39   S    
C57   O6    A    
C36   C56   A    
C19   C38   A    
C64   H78   S    
C53   C62   A    
C71   H24   S    
C78   H57   S    
C23   C51   A    
C70   H19   S    
C8    C12   A    
C74   H39   S    
C42   C85   S    
C70   H21   S    
C79   O8    A    
H89   N38   S    
H27   N5    S    
C89   H65   S    
C24   O3    A    
C75   H43   S    
H93   N30   S    
C4    C17   A    
C50   N10   S    
C67   H11   S    
C6    N37   S    
C73   H33   S    
C45   C54   A    
C30   C62   A    
C38   C81   S    
H14   N2    S    
C69   N2    S    
C56   C62   A    
C91   H68   S    
C36   C44   A    
C94   H83   S    
C33   C42   A    
C87   N20   T    
C67   H10   S    
C2    C10   A    
C26   C53   A    
H66   N24   S    
C84   N17   T    
C95   H85   S    
C47   C55   A    
C98   N31   T    
O9    Zn2   S    
C33   N24   S    
C68   O14   A    
C33   C54   A    
H84   N28   S    
C64   H56   S    
C92   N25   S    
C2    C90   A    
C89   H64   S    
C91   H70   S    
C9    N38   S    
C25   C79   S    
C36   N26   S    
C35   O11   A    
C71   H25   S    
C35   O4    A    
C20   C45   A    
C75   N8    S    
C66   H8    S    
C4    C5    A    
H49   N10   S    
C6    C10   A    
C97   H96   S    
C76   N9    S    
C51   N9    S    
C72   H30   S    
C13   O2    A    
O16   Zn2   S    
C3    C14   S    
C92   H73   S    
C73   N6    S    
C48   N8    S    
C93   H76   S    
N34   Zn4   S    
C95   N28   S    
C65   H4    S    
C66   N39   S    
C92   H74   S    
C96   N29   S    
C97   H95   S    
C19   C24   S    
C67   H13   S    
C46   O12   A    
C64   N37   S    
C85   N18   T    
C15   C90   A    
C20   C37   A    
C11   C90   A    
C96   H92   S    
C94   N27   S    
C21   C40   A    
C28   C37   A    
C92   H72   S    
C28   N27   S    
C22   C39   A    
C11   C99   S    
C69   H17   S    
C53   N11   S    
H75   N26   S    
C13   O9    A    
C97   N30   S    
H1    N36   S    
C4    C14   A    
C37   C82   S    
C80   H61   S    
C12   C100  S    
H44   N9    S    
C76   H46   S    
H9    N40   S    
C27   C43   A    
C76   H48   S    
O13   Zn4   S    
C52   N13   S    
C25   C41   A    
O8    Zn4   S    
C31   N30   S    
C80   N13   S    
C18   N3    S    
C34   C58   A    
C65   H3    S    
C86   N19   T    
C73   H32   S    
C51   C60   A    
C94   H82   S    
C46   O5    A    
H22   N4    S    
C77   N10   S    
C26   C46   S    
C57   O13   A    
C34   C43   A    
C89   H63   S    
H36   N7    S    
C32   N22   S    
C16   N1    A    
C95   H86   S    
C30   C39   A    
C72   N5    S    
