data_mof_unit_45047.cif
_audit_creation_date              2012-12-10T18:27:13-0500
_audit_creation_method            fapswitch 2.2
_symmetry_space_group_name_H-M    P1
_symmetry_Int_Tables_number       1
_space_group_crystal_system       triclinic
_cell_length_a                    14.967718
_cell_length_b                    13.996667
_cell_length_c                    27.733555
_cell_angle_alpha                 89.699428
_cell_angle_beta                  89.561509
_cell_angle_gamma                 90.194907
_cell_volume                      5809.84435848

loop_
_atom_site_label
_atom_site_type_symbol
_atom_type_description
_atom_site_fract_x
_atom_site_fract_y
_atom_site_fract_z
_atom_type_partial_charge
C1    C     C_R   0.327306 0.499814 0.500282 0.907235
C2    C     C_R   0.405973 0.489639 0.872494 -0.023457
C3    C     C_R   0.494200 0.502645 0.353050 -0.083376
C4    C     C_R   0.496821 0.500996 0.647113 -0.084293
C5    C     C_R   0.398725 0.494327 0.974347 0.044758
C6    C     C_R   0.540934 0.581344 0.025875 0.045036
C7    C     C_R   0.545382 0.576081 0.974935 0.044941
C8    C     C_R   0.398674 0.491126 0.025437 0.044696
C9    C     C_R   0.473675 0.533624 0.949439 0.071060
C10   C     C_R   0.469415 0.535539 0.050883 0.071047
C11   C     C_R   0.326548 0.458690 0.947038 -0.214890
C12   C     C_R   0.672811 0.500151 0.499643 0.953169
C13   C     C_R   0.606207 0.630371 0.052945 -0.215395
C14   C     C_R   0.330441 0.456125 0.897101 -0.140851
C15   C     C_R   0.604926 0.628310 0.102890 -0.140460
C16   C     C_R   0.499661 0.500277 0.405849 0.888988
C17   C     C_R   0.499575 0.499788 0.594177 0.879972
C18   C     C_R   0.331209 0.442901 0.052171 -0.214484
C19   C     C_R   0.620440 0.609769 0.948478 -0.214903
C20   C     C_R   0.813057 0.516865 0.455848 0.107710
C21   C     C_R   0.186801 0.483179 0.544052 0.116469
C22   C     C_R   0.768002 0.500366 0.499499 -0.176305
C23   C     C_R   0.469323 0.533066 0.101962 -0.052485
C24   C     C_R   0.232356 0.499133 0.500401 -0.190765
C25   C     C_R   0.812225 0.482724 0.542752 0.104868
C26   C     C_R   0.188377 0.513078 0.456721 0.120900
C27   C     C_R   0.905205 0.480292 0.542480 0.086017
C28   C     C_R   0.095340 0.513694 0.456657 0.078827
C29   C     C_R   0.953148 0.497721 0.499078 -0.041169
C30   C     C_R   0.047162 0.496735 0.499950 -0.048568
C31   C     C_R   0.907316 0.516098 0.455010 0.069406
C32   C     C_R   0.092887 0.479012 0.544009 0.086547
C33   C     C_R   0.950608 0.458765 0.585005 -0.258213
C34   C     C_R   0.477390 0.529495 0.898432 -0.052268
C35   C     C_R   0.050150 0.532148 0.413811 -0.243189
C36   C     C_R   0.043109 0.457089 0.586271 0.095833
C37   C     C_R   0.957689 0.533733 0.412325 0.095784
C38   C     C_R   0.564445 0.798686 0.474774 -0.061428
C39   C     C_R   0.434612 0.201439 0.524572 -0.054940
C40   C     C_R   0.435501 0.797589 0.525288 -0.059235
C41   C     C_R   0.565284 0.202401 0.475374 -0.041695
C42   C     C_R   0.404040 0.480128 0.177791 0.505820
C43   C     C_R   0.556019 0.557773 0.822992 0.504966
C44   C     C_R   0.433735 0.898294 0.525776 0.016274
C45   C     C_R   0.401151 0.484325 0.127395 -0.022264
C46   C     C_R   0.566566 0.101753 0.474539 0.010242
C47   C     C_R   0.566193 0.899349 0.474293 0.016123
C48   C     C_R   0.433331 0.100758 0.525441 0.010143
C49   C     C_R   0.499951 0.949420 0.500022 0.086242
C50   C     C_R   0.499942 0.050658 0.499997 0.087808
C51   C     C_R   0.367706 0.948850 0.551255 -0.200287
C52   C     C_R   0.632563 0.051236 0.449034 -0.204570
C53   C     C_R   0.632279 0.950862 0.448836 -0.199398
C54   C     C_R   0.367417 0.049243 0.551020 -0.209722
C55   C     C_R   0.538611 0.572042 0.178017 0.506284
C56   C     C_R   0.552867 0.564477 0.873260 -0.022812
C57   C     C_R   0.411759 0.484681 0.822210 0.506572
C58   C     C_R   0.495780 0.427187 0.274473 -0.184550
C59   C     C_R   0.504939 0.424065 0.725596 -0.176546
C60   C     C_R   0.505599 0.419938 0.324443 0.183874
C61   C     C_R   0.507321 0.417216 0.675356 0.176906
C62   C     C_R   0.473778 0.590310 0.330727 -0.284955
C63   C     C_R   0.483451 0.589252 0.670098 -0.286941
C64   C     C_R   0.464938 0.596387 0.281153 -0.102933
C65   C     C_R   0.480191 0.594647 0.719931 -0.113077
C66   C     C_R   0.476354 0.515134 0.253007 0.292685
C67   C     C_R   0.332553 0.439788 0.102142 -0.140934
C68   C     C_R   0.490734 0.512211 0.747602 0.298599
C69   C     C_3   0.744631 0.551948 0.613939 -0.770898
C70   C     C_3   0.256822 0.441486 0.386349 -0.770601
C71   C     C_3   0.441029 0.269496 0.649934 -0.735435
C72   C     C_3   0.622377 0.316336 0.352388 -0.769575
C73   C     C_3   0.734935 0.626949 0.401493 -0.709149
C74   C     C_3   0.253992 0.561954 0.612322 -0.750773
C75   C     C_R   0.623847 0.604132 0.898635 -0.140739
C76   C     C_R   0.538074 0.578323 0.127712 -0.022936
H1    H     H_    0.463935 0.654681 0.351585 0.179701
H2    H     H_    0.684284 0.089321 0.429199 0.139760
H3    H     H_    0.683793 0.913538 0.428853 0.142882
H4    H     H_    0.315773 0.086575 0.570898 0.145302
H5    H     H_    0.449818 0.664490 0.264442 0.149309
H6    H     H_    0.469074 0.662882 0.737163 0.146613
H7    H     H_    0.279770 0.401247 0.120916 0.188487
H8    H     H_    0.683011 0.630499 0.880070 0.188830
H9    H     H_    0.513220 0.360634 0.747653 0.140413
H10   H     H_    0.505557 0.364875 0.252047 0.143135
H11   H     H_    0.273836 0.427175 0.877841 0.188385
H12   H     H_    0.474664 0.654570 0.649591 0.180323
H13   H     H_    0.657213 0.665750 0.121988 0.188420
H14   H     H_    0.265158 0.433162 0.963036 0.142628
H15   H     H_    0.659001 0.672223 0.036714 0.142733
H16   H     H_    0.277397 0.404128 0.035658 0.142726
H17   H     H_    0.679279 0.638591 0.965176 0.142895
H18   H     H_    0.708418 0.422355 0.583547 0.240849
H19   H     H_    0.699034 0.599594 0.593595 0.250748
H20   H     H_    0.807559 0.590916 0.621898 0.252440
H21   H     H_    0.711984 0.531999 0.648665 0.249825
H22   H     H_    0.292148 0.572526 0.415498 0.238628
H23   H     H_    0.914576 0.442073 0.618035 0.184271
H24   H     H_    0.303183 0.395311 0.407039 0.253374
H25   H     H_    0.288788 0.460345 0.351295 0.252087
H26   H     H_    0.194269 0.401334 0.379027 0.250474
H27   H     H_    0.062681 0.362256 0.640483 0.186371
H28   H     H_    0.064515 0.478272 0.657382 0.193098
H29   H     H_    0.939870 0.621371 0.354993 0.192691
H30   H     H_    0.937693 0.503318 0.342007 0.186486
H31   H     H_    0.572431 0.288568 0.669839 0.221420
H32   H     H_    0.456561 0.202079 0.630757 0.232015
H33   H     H_    0.389487 0.308799 0.629234 0.240087
H34   H     H_    0.086366 0.546610 0.380576 0.184469
H35   H     H_    0.414135 0.251417 0.686336 0.236221
H36   H     H_    0.499184 0.272738 0.327501 0.227710
H37   H     H_    0.648622 0.370690 0.377630 0.245891
H38   H     H_    0.659026 0.321477 0.317449 0.234564
H39   H     H_    0.634180 0.244479 0.368171 0.224366
H40   H     H_    0.771449 0.483898 0.385120 0.237770
H41   H     H_    0.661597 0.629327 0.396641 0.241767
H42   H     H_    0.766927 0.650062 0.367138 0.242327
H43   H     H_    0.753866 0.678040 0.430272 0.230878
H44   H     H_    0.290890 0.429286 0.585639 0.221272
H45   H     H_    0.614439 0.758937 0.455098 0.131794
H46   H     H_    0.284660 0.546464 0.647828 0.251116
H47   H     H_    0.191097 0.602127 0.618569 0.247894
H48   H     H_    0.301033 0.606744 0.590768 0.229336
H49   H     H_    0.383668 0.241364 0.543574 0.132037
H50   H     H_    0.385464 0.756900 0.545012 0.130219
H51   H     H_    0.616313 0.243094 0.456487 0.139186
H52   H     H_    0.316241 0.910779 0.571288 0.142972
N1    N     N_R   0.472546 0.522935 0.201800 -0.348280
N2    N     N_2   0.527673 0.329872 0.345111 -0.282048
N3    N     N_2   0.761177 0.530148 0.413387 -0.310021
N4    N     N_2   0.235795 0.473075 0.587788 -0.279037
N5    N     N_R   0.486195 0.518060 0.798790 -0.349695
N6    N     N_R   0.500000 0.750030 0.500000 -0.104361
N7    N     N_R   0.500000 0.249970 0.500000 -0.099878
N8    N     N_2   0.763313 0.466525 0.586570 -0.323293
N9    N     N_2   0.237533 0.527850 0.412848 -0.321053
N10   N     N_3   0.085085 0.430530 0.630658 -0.414453
N11   N     N_3   0.916930 0.554605 0.366949 -0.461823
N12   N     N_2   0.521434 0.326445 0.653906 -0.287958
O1    O     O_R   0.367850 0.580280 0.500010 -0.631813
O2    O     O_2   0.628366 0.589981 0.798407 -0.566377
O3    O     O_2   0.343645 0.447155 0.796809 -0.566274
O4    O     O_2   0.605304 0.613359 0.203038 -0.566617
O5    O     O_R   0.632150 0.419720 0.499990 -0.640395
O6    O     O_R   0.632150 0.580280 0.499990 -0.615100
O7    O     O_R   0.367850 0.419720 0.500010 -0.634069
O8    O     O_R   0.500010 0.580260 0.428760 -0.638325
O9    O     O_R   0.499990 0.419740 0.571240 -0.593577
O10   O     O_R   0.499990 0.580260 0.571240 -0.632732
O11   O     O_R   0.500010 0.419740 0.428760 -0.584915
O12   O     O_2   0.339093 0.433822 0.202681 -0.570315
Zn1   Zn    Zn3+2 0.500000 0.607200 0.500000 0.933662
Zn2   Zn    Zn3+2 0.500000 0.392800 0.500000 0.955217

loop_
_geom_bond_atom_site_label_1
_geom_bond_atom_site_label_2
_ccdc_geom_bond_type
C44   C49   A    
C74   H48   S    
C63   C65   A    
C34   C56   A    
C23   C45   A    
C74   N4    S    
C63   H12   S    
C27   C29   A    
C41   H51   S    
C62   H1    S    
C17   O10   A    
C23   C76   A    
C26   N9    S    
C33   C36   A    
C73   N3    S    
C65   H6    S    
C70   H25   S    
C47   C49   A    
C39   N7    A    
C27   C33   A    
C67   H7    S    
H40   N3    S    
C72   H39   S    
N7    Zn2   S    
C39   H49   S    
C51   H52   S    
C32   C36   A    
C68   N5    S    
C35   C37   A    
C24   C26   A    
C14   H11   S    
C5    C11   A    
C11   C14   A    
C75   H8    S    
C3    C62   A    
N6    Zn1   S    
C15   H13   S    
C58   C60   A    
C46   C52   A    
C72   H38   S    
O11   Zn2   S    
C12   O6    A    
H31   N12   S    
C43   N5    A    
O7    Zn2   S    
C62   C64   A    
C25   N8    S    
C58   C66   A    
C28   C35   A    
C55   N1    A    
O10   Zn1   S    
C71   H35   S    
C45   C67   A    
H18   N8    S    
C41   C46   A    
C73   H42   S    
C42   N1    A    
C42   O12   S    
C19   H17   S    
O5    Zn2   S    
C47   C53   A    
C66   N1    S    
C3    C60   A    
C2    C34   A    
C48   C50   A    
C15   C76   A    
C56   C75   A    
C71   H32   S    
C13   H15   S    
C57   N5    A    
C71   H33   S    
C52   H2    S    
C58   H10   S    
C70   H24   S    
C54   H4    S    
C21   C32   A    
C59   C61   A    
C73   H41   S    
C57   O3    S    
H22   N9    S    
H27   N10   S    
C60   N2    S    
C18   C67   A    
C40   N6    A    
C4    C61   A    
C22   C25   A    
C8    C18   A    
C31   C37   A    
C33   H23   S    
C42   C45   A    
C64   C66   A    
C12   O5    A    
C69   H20   S    
C48   C54   A    
O9    Zn2   S    
C59   H9    S    
C21   N4    S    
C5    C9    A    
C29   C30   A    
C59   C68   A    
H29   N11   S    
C4    C63   A    
C65   C68   A    
C40   H50   S    
C38   C47   A    
C71   N12   S    
C35   H34   S    
C1    C24   S    
C55   C76   A    
C44   C51   A    
C74   H46   S    
C20   C22   A    
C69   N8    S    
C7    C19   A    
C13   C15   A    
C9    C34   A    
C12   C22   S    
C1    O7    A    
O8    Zn1   S    
C4    C17   S    
C20   N3    S    
C41   N7    A    
C52   C53   A    
C2    C57   A    
C7    C9    A    
C55   O4    S    
C53   H3    S    
H44   N4    S    
C17   O9    A    
C69   H19   S    
C6    C10   A    
C5    C8    A    
C70   H26   S    
C61   N12   S    
C72   N2    S    
C6    C7    A    
C10   C23   A    
C25   C27   A    
C46   C50   A    
C26   C28   A    
C16   O8    A    
C51   C54   A    
C18   H16   S    
C28   C30   A    
C29   C31   A    
C6    C13   A    
C30   C32   A    
C11   H14   S    
O1    Zn1   S    
H30   N11   S    
O6    Zn1   S    
C72   H37   S    
C19   C75   A    
H28   N10   S    
C74   H47   S    
C16   O11   A    
C38   N6    A    
C2    C14   A    
C64   H5    S    
C38   H45   S    
C1    O1    A    
C73   H43   S    
C43   C56   A    
C40   C44   A    
C70   N9    S    
C8    C10   A    
C49   C50   A    
C37   N11   S    
C21   C24   A    
C43   O2    S    
H36   N2    S    
C36   N10   S    
C3    C16   S    
C39   C48   A    
C20   C31   A    
C69   H21   S    
