data_mof_unit_27596.cif
_audit_creation_date              2012-12-10T17:58:19-0500
_audit_creation_method            fapswitch 2.2
_symmetry_space_group_name_H-M    P1
_symmetry_Int_Tables_number       1
_space_group_crystal_system       triclinic
_cell_length_a                    9.532502
_cell_length_b                    10.825514
_cell_length_c                    15.49358
_cell_angle_alpha                 89.438273
_cell_angle_beta                  74.440321
_cell_angle_gamma                 89.31336
_cell_volume                      1540.10621778

loop_
_atom_site_label
_atom_site_type_symbol
_atom_type_description
_atom_site_fract_x
_atom_site_fract_y
_atom_site_fract_z
_atom_type_partial_charge
C1    C     C_R   0.999445 0.262326 0.503364 0.885312
C2    C     C_R   0.000490 0.737713 0.496712 0.898820
C3    C     C_R   0.585060 0.519890 0.094737 -0.195086
C4    C     C_R   0.425228 0.424393 0.911094 -0.199920
C5    C     C_R   0.730642 0.533969 0.049520 -0.218791
C6    C     C_R   0.280130 0.407996 0.956646 -0.216886
C7    C     C_R   0.925735 0.069805 0.450143 -0.292294
C8    C     C_R   0.073605 0.930292 0.550441 -0.286519
C9    C     C_R   0.925345 0.941901 0.444393 0.467167
C10   C     C_R   0.073911 0.058224 0.556262 0.470987
C11   C     C_R   0.999308 0.871684 0.496069 -0.227598
C12   C     C_R   0.000234 0.128413 0.504394 -0.229901
C13   C     C_R   0.544034 0.450882 0.570351 -0.020577
C14   C     C_R   0.455953 0.549103 0.429644 0.006841
C15   C     C_R   0.395395 0.451767 0.570593 0.026569
C16   C     C_R   0.604561 0.548344 0.429444 0.051069
C17   C     C_R   0.918262 0.500420 0.672126 0.826452
C18   C     C_R   0.081754 0.498106 0.327961 0.838982
C19   C     C_R   0.873376 0.502338 0.770384 -0.023184
C20   C     C_R   0.127312 0.485902 0.230264 -0.032304
C21   C     C_R   0.924448 0.538631 0.912459 -0.200120
C22   C     C_R   0.083110 0.418078 0.091970 -0.194403
C23   C     C_R   0.972581 0.528599 0.819692 -0.153696
C24   C     C_R   0.031742 0.442917 0.183060 -0.198098
C25   C     C_R   0.727127 0.481887 0.814846 -0.228745
C26   C     C_R   0.273027 0.507085 0.185298 -0.213333
C27   C     C_R   0.676268 0.488118 0.908638 0.094784
C28   C     C_R   0.329184 0.477922 0.094295 0.092973
C29   C     C_R   0.777320 0.519911 0.957111 0.161481
C30   C     C_R   0.230600 0.435038 0.047348 0.157020
C31   C     C_R   0.527462 0.467762 0.955081 0.069239
C32   C     C_R   0.479888 0.489737 0.048981 0.070925
Cu1   Cu    Cu3+1 0.140660 0.500020 0.500000 1.016495
Cu2   Cu    Cu3+1 0.859340 0.499980 0.500000 1.002547
H1    H     H_    0.807037 0.557691 0.087303 0.148433
H2    H     H_    0.205975 0.373813 0.920364 0.164142
H3    H     H_    0.340188 0.546623 0.223407 0.141252
H4    H     H_    0.654128 0.465032 0.774202 0.141345
H5    H     H_    0.918602 0.425454 0.216892 0.155640
H6    H     H_    0.086229 0.544897 0.786479 0.155691
H7    H     H_    0.001953 0.563107 0.949201 0.147337
H8    H     H_    0.008076 0.383041 0.056717 0.151698
H9    H     H_    0.559789 0.530622 0.166261 0.136776
H10   H     H_    0.454037 0.398394 0.841628 0.141982
H11   H     H_    0.870178 0.124833 0.410407 0.210857
H12   H     H_    0.129486 0.875276 0.590003 0.209516
H13   H     H_    0.575074 0.410295 0.626602 0.119429
H14   H     H_    0.424920 0.589535 0.373339 0.125716
H15   H     H_    0.315482 0.413196 0.627323 0.159647
H16   H     H_    0.684415 0.586863 0.372695 0.144584
N1    N     N_R   0.352080 0.500030 0.499980 -0.165401
N2    N     N_R   0.647920 0.499970 0.500020 -0.165494
O1    O     O_R   0.118740 0.319660 0.500000 -0.510771
O2    O     O_R   0.881260 0.680340 0.500000 -0.519323
O3    O     O_R   0.881170 0.319630 0.500010 -0.595071
O4    O     O_R   0.118830 0.680370 0.499990 -0.589744
O5    O     O_R   0.055570 0.500030 0.629830 -0.578129
O6    O     O_R   0.944430 0.499970 0.370170 -0.586768
O7    O     O_R   0.818000 0.500000 0.629840 -0.605976
O8    O     O_R   0.182000 0.500000 0.370160 -0.602442
S1    S     S_3+6 0.836973 0.875541 0.369198 0.007261
O9    O     O_2   0.692227 0.826439 0.421829 -0.289164
O10   O     O_2   0.812523 0.971116 0.303515 -0.283373
O11   O     O_3   0.939518 0.760028 0.312399 -0.561378
H17   H     H_    0.884040 0.729144 0.271487 0.359601
S2    S     S_3+6 0.164161 0.124296 0.630644 0.003415
O12   O     O_2   0.079400 0.233104 0.678137 -0.320956
O13   O     O_2   0.181237 0.030053 0.699175 -0.297099
O14   O     O_3   0.329969 0.170089 0.570856 -0.518906
H18   H     H_    0.387878 0.176707 0.614985 0.359467

loop_
_geom_bond_atom_site_label_1
_geom_bond_atom_site_label_2
_ccdc_geom_bond_type
C21   C29   A    
S1    O11   S    
C19   C23   A    
C8    C10   A    
C26   H3    S    
C7    C9    A    
C9    S1    S    
C15   N1    A    
C25   H4    S    
Cu1   N1    S    
C13   N2    A    
C4    H10   S    
Cu1   O5    S    
C5    H1    S    
Cu2   N2    S    
C31   C32   A    
C13   C15   A    
O11   H17   S    
S1    O9    D    
Cu1   O4    S    
C28   C30   A    
Cu1   Cu2   S    
C1    O3    A    
Cu2   O3    S    
C20   C24   A    
C2    O4    A    
C15   H15   S    
C9    C11   A    
C3    H9    S    
C22   H8    S    
C1    C12   S    
C20   C26   A    
C17   O7    A    
C8    C11   A    
C21   H7    S    
C2    C11   S    
C10   C12   A    
C22   C24   A    
C18   O8    A    
C13   H13   S    
C17   C19   S    
C6    H2    S    
Cu2   O2    S    
Cu1   O8    S    
C18   C20   S    
O14   H18   S    
C10   S2    S    
C21   C23   A    
Cu1   O1    S    
C3    C32   A    
C19   C25   A    
C14   C16   A    
C7    C12   A    
C4    C31   A    
C27   C29   A    
S2    O13   D    
C27   C31   A    
C23   H6    S    
S2    O14   S    
C5    C29   A    
C7    H11   S    
C28   C32   A    
C24   H5    S    
S2    O12   D    
C4    C6    A    
C2    O2    A    
C17   O5    A    
C16   N2    A    
Cu2   O6    S    
C1    O1    A    
C14   H14   S    
C22   C30   A    
C8    H12   S    
C6    C30   A    
Cu2   O7    S    
C26   C28   A    
C18   O6    A    
S1    O10   D    
C14   N1    A    
C16   H16   S    
C3    C5    A    
C25   C27   A    
