data_mof_unit_15929.cif
_audit_creation_date              2012-12-11T15:18:35-0500
_audit_creation_method            fapswitch 2.2
_symmetry_space_group_name_H-M    P1
_symmetry_Int_Tables_number       1
_space_group_crystal_system       triclinic
_cell_length_a                    6.939688
_cell_length_b                    19.908567
_cell_length_c                    23.76987
_cell_angle_alpha                 93.514433
_cell_angle_beta                  91.554142
_cell_angle_gamma                 88.300202
_cell_volume                      3275.35498737

loop_
_atom_site_label
_atom_site_type_symbol
_atom_type_description
_atom_site_fract_x
_atom_site_fract_y
_atom_site_fract_z
_atom_type_partial_charge
O1    O     O_R   0.620100 0.812200 0.810870 -0.542320
O2    O     O_R   0.379900 0.187800 0.189130 -0.542319
O3    O     O_R   0.296960 0.671650 0.794750 -0.532787
O4    O     O_R   0.703040 0.328350 0.205250 -0.532787
O5    O     O_R   0.120160 0.687800 0.689130 -0.544354
O6    O     O_R   0.879840 0.312200 0.310870 -0.544354
C1    C     C_R   0.469669 0.646765 0.804500 0.699989
C2    C     C_R   0.530331 0.353235 0.195500 0.699989
O7    O     O_R   0.290810 0.810670 0.817290 -0.544555
O8    O     O_R   0.709190 0.189330 0.182710 -0.544555
O9    O     O_R   0.113980 0.827820 0.711840 -0.536346
O10   O     O_R   0.886020 0.172180 0.288160 -0.536346
C3    C     C_R   0.459535 0.832020 0.834168 0.712252
C4    C     C_R   0.540465 0.167980 0.165831 0.712252
O11   O     O_R   0.626290 0.672180 0.788160 -0.535275
O12   O     O_R   0.373710 0.327820 0.211840 -0.535275
O13   O     O_3   0.451520 0.755460 0.715370 -0.366685
O14   O     O_3   0.548480 0.244540 0.284630 -0.366684
V1    V     V_3+5 0.179200 0.748980 0.756420 1.459186
V2    V     V_3+5 0.820800 0.251020 0.243580 1.459186
O15   O     O_R   0.783880 0.828350 0.705250 -0.537325
O16   O     O_R   0.216120 0.171650 0.294750 -0.537325
C5    C     C_R   0.949175 0.852773 0.694842 0.730801
C6    C     C_R   0.050824 0.147227 0.305158 0.730801
O17   O     O_R   0.790030 0.689320 0.682700 -0.536437
O18   O     O_R   0.209970 0.310680 0.317300 -0.536437
C7    C     C_R   0.958951 0.668237 0.665646 0.704284
C8    C     C_R   0.041049 0.331763 0.334354 0.704284
V3    V     V_3+5 0.678400 0.751010 0.743570 1.468451
V4    V     V_3+5 0.321600 0.248990 0.256430 1.468451
O19   O     O_3   0.955950 0.744540 0.784620 -0.366061
O20   O     O_3   0.044050 0.255460 0.215380 -0.366061
C9    C     C_R   0.176145 0.427710 0.394854 -0.109682
C10   C     C_R   0.823855 0.572289 0.605146 -0.109682
C11   C     C_R   0.030896 0.380664 0.383995 -0.096441
C12   C     C_R   0.969104 0.619336 0.616005 -0.096441
C13   C     C_R   0.873305 0.381315 0.420043 -0.149940
C14   C     C_R   0.126695 0.618685 0.579957 -0.149940
C15   C     C_R   0.859893 0.428012 0.466962 0.032468
C16   C     C_R   0.140107 0.571988 0.533038 0.032468
C17   C     C_R   0.005724 0.475939 0.476854 0.017167
C18   C     C_R   0.994275 0.524061 0.523146 0.017167
C19   C     C_R   0.163439 0.475748 0.440531 0.087969
C20   C     C_R   0.836561 0.524252 0.559469 0.087969
C21   C     C_R   0.704845 0.428183 0.504329 0.375915
C22   C     C_R   0.295155 0.571817 0.495671 0.375915
C23   C     C_R   0.693953 0.476193 0.549782 -0.180598
C24   C     C_R   0.306046 0.523807 0.450218 -0.180598
H1    H     H_    0.297401 0.427781 0.367022 0.113881
H2    H     H_    0.702599 0.572219 0.632978 0.113881
H3    H     H_    0.762520 0.344689 0.411403 0.177642
H4    H     H_    0.237480 0.655310 0.588597 0.177642
H5    H     H_    0.573156 0.475847 0.577733 0.161142
H6    H     H_    0.426844 0.524153 0.422267 0.161142
C25   C     C_R   0.945258 0.914579 0.663431 -0.141420
C26   C     C_R   0.054742 0.085421 0.336568 -0.141420
C27   C     C_R   0.850567 0.032100 0.659804 0.713357
C28   C     C_R   0.149432 0.967900 0.340196 0.713358
C29   C     C_R   0.872672 0.974112 0.689384 -0.251774
C30   C     C_R   0.127328 0.025888 0.310616 -0.251775
C31   C     C_R   0.995849 0.913003 0.606614 -0.171699
C32   C     C_R   0.004151 0.086997 0.393385 -0.171699
C33   C     C_R   0.971353 0.971008 0.574245 -0.005839
C34   C     C_R   0.028647 0.028992 0.425755 -0.005839
C35   C     C_R   0.897257 0.031631 0.602020 -0.113605
C36   C     C_R   0.102743 0.968368 0.397979 -0.113605
C37   C     C_R   0.015170 0.970321 0.515239 0.030168
C38   C     C_R   0.984829 0.029679 0.484761 0.030168
C39   C     C_R   0.912212 0.088109 0.514276 -0.207637
C40   C     C_R   0.087788 0.911891 0.485724 -0.207637
C41   C     C_R   0.869738 0.089718 0.571183 0.432215
C42   C     C_R   0.130261 0.910282 0.428817 0.432215
H7    H     H_    0.951940 0.134952 0.411023 0.124682
H8    H     H_    0.048060 0.865048 0.588977 0.124682
H9    H     H_    0.168910 0.024432 0.266911 0.141259
H10   H     H_    0.831090 0.975568 0.733089 0.141259
H11   H     H_    0.885305 0.134542 0.494249 0.166728
H12   H     H_    0.114695 0.865458 0.505751 0.166728
C43   C     C_R   0.496601 0.584992 0.835605 -0.078600
C44   C     C_R   0.503399 0.415008 0.164395 -0.078601
C45   C     C_R   0.681756 0.481094 0.844330 -0.096240
C46   C     C_R   0.318243 0.518906 0.155670 -0.096240
C47   C     C_R   0.611121 0.532361 0.811679 -0.138442
C48   C     C_R   0.388879 0.467639 0.188321 -0.138442
C49   C     C_R   0.441294 0.582845 0.891987 -0.104438
C50   C     C_R   0.558705 0.417155 0.108013 -0.104438
C51   C     C_R   0.500366 0.528223 0.925127 0.115567
C52   C     C_R   0.499634 0.471777 0.074873 0.115567
C53   C     C_R   0.635505 0.480640 0.901344 0.068741
C54   C     C_R   0.364495 0.519360 0.098656 0.068741
C55   C     C_R   0.445873 0.522666 0.982528 -0.061396
C56   C     C_R   0.554127 0.477334 0.017472 -0.061396
C57   C     C_R   0.713398 0.440268 0.993532 0.391850
C58   C     C_R   0.286602 0.559732 0.006468 0.391850
C59   C     C_R   0.739536 0.437596 0.935665 -0.159427
C60   C     C_R   0.260464 0.562403 0.064335 -0.159427
H13   H     H_    0.856661 0.406376 0.918151 0.168408
H14   H     H_    0.143339 0.593624 0.081848 0.168408
H15   H     H_    0.628817 0.372554 0.089238 0.160314
H16   H     H_    0.371183 0.627446 0.910762 0.160314
H17   H     H_    0.342622 0.466451 0.231432 0.111985
H18   H     H_    0.657378 0.533549 0.768568 0.111985
H19   H     H_    0.781925 0.443813 0.825744 0.133573
H20   H     H_    0.218075 0.556187 0.174256 0.133573
C61   C     C_R   0.368098 0.077147 0.108477 -0.194884
C62   C     C_R   0.631902 0.922853 0.891523 -0.194884
C63   C     C_R   0.529286 0.118403 0.116576 -0.081076
C64   C     C_R   0.470714 0.881597 0.883424 -0.081076
C65   C     C_R   0.678864 0.111760 0.077580 -0.207983
C66   C     C_R   0.321136 0.888240 0.922420 -0.207983
C67   C     C_R   0.667204 0.065239 0.030750 0.089113
C68   C     C_R   0.332796 0.934761 0.969250 0.089113
C69   C     C_R   0.505893 0.023711 0.023338 0.057845
C70   C     C_R   0.494107 0.976289 0.976662 0.057845
C71   C     C_R   0.356322 0.029522 0.062516 0.088905
C72   C     C_R   0.643678 0.970478 0.937484 0.088905
C73   C     C_R   0.813852 0.059547 0.991077 -0.167449
C74   C     C_R   0.186148 0.940453 0.008923 -0.167449
C75   C     C_R   0.802309 0.012559 0.944906 -0.172940
C76   C     C_R   0.197691 0.987441 0.055094 -0.172940
H21   H     H_    0.252637 0.081411 0.138436 0.123765
H22   H     H_    0.747363 0.918589 0.861564 0.123765
H23   H     H_    0.803248 0.143397 0.083243 0.135064
H24   H     H_    0.196752 0.856603 0.916756 0.135063
H25   H     H_    0.938360 0.091172 0.995940 0.144240
H26   H     H_    0.061640 0.908828 0.004059 0.144240
H27   H     H_    0.918274 0.008869 0.915147 0.140929
H28   H     H_    0.081726 0.991131 0.084853 0.140929
Cl1   Cl    Cl    0.909551 0.407335 0.033231 -0.668547
Cl2   Cl    Cl    0.090449 0.592665 0.966769 -0.668547
Cl3   Cl    Cl    0.521957 0.368438 0.496721 -0.623257
Cl4   Cl    Cl    0.478043 0.631562 0.503278 -0.623257
Cl5   Cl    Cl    0.779887 0.167748 0.600615 -0.447806
Cl6   Cl    Cl    0.220113 0.832252 0.399385 -0.447806
F1    F     F_    0.779471 0.087865 0.688631 -0.606589
F2    F     F_    0.220529 0.912134 0.311369 -0.606589

loop_
_geom_bond_atom_site_label_1
_geom_bond_atom_site_label_2
_ccdc_geom_bond_type
C14   C16   A    
C33   C35   A    
C47   H18   S    
C25   C29   A    
C40   H12   S    
C63   C65   A    
C17   C18   A    
C39   H11   S    
C6    C26   S    
O4    C2    A    
V1    O19   S    
C74   C76   A    
C68   C70   A    
C15   C17   A    
C24   H6    S    
C61   C63   A    
O9    V1    S    
C58   Cl2   S    
C34   C38   A    
O16   C6    A    
C11   C13   A    
O3    C1    A    
C73   C75   A    
C22   Cl4   S    
C13   H3    S    
C50   C52   A    
C27   C29   A    
C14   H4    S    
C67   C73   A    
C28   C30   A    
O13   V3    S    
C31   C33   A    
C39   C41   A    
O7    C3    A    
C32   C34   A    
C66   H24   S    
O5    C7    A    
C28   C36   A    
C36   C42   A    
C52   C56   A    
C8    C11   S    
O8    V2    S    
C38   C39   A    
C43   C47   A    
C60   H14   S    
C44   C50   A    
C32   H7    S    
O3    V1    S    
O14   V4    S    
V4    O20   S    
C19   C24   A    
O14   V2    S    
C20   C23   A    
C44   C48   A    
C15   C21   A    
C45   C53   A    
C21   C23   A    
C5    C25   S    
C2    O12   A    
C48   H17   S    
C17   C19   A    
C62   H22   S    
C18   C20   A    
C3    C64   S    
C57   Cl1   S    
C45   C47   A    
O7    V1    S    
O11   V3    S    
C22   C24   A    
C49   C51   A    
O17   V3    S    
C13   C15   A    
C33   C37   A    
C10   H2    S    
C51   C55   A    
C37   C38   A    
C9    C19   A    
C10   C20   A    
O8    C4    A    
C55   C56   A    
C65   H23   S    
C1    O11   A    
C28   F2    S    
C35   C41   A    
O15   V3    S    
C26   C30   A    
C62   C72   A    
C34   C36   A    
C53   C59   A    
C16   C22   A    
C42   Cl6   S    
O10   V2    S    
O1    V3    S    
C61   H21   S    
C67   C69   A    
C58   C60   A    
C50   H15   S    
C4    C63   S    
C52   C54   A    
C21   Cl3   S    
C46   C48   A    
O15   C5    A    
C31   H8    S    
C26   C32   A    
O1    C3    A    
C12   C14   A    
C43   C49   A    
C1    C43   S    
C69   C70   A    
C45   H19   S    
C59   H13   S    
O16   V4    S    
C61   C71   A    
C27   C35   A    
C16   C18   A    
C41   Cl5   S    
C70   C72   A    
C76   H28   S    
C54   C60   A    
O5    V1    S    
C7    C12   S    
O17   C7    A    
O6    V2    S    
O10   C6    A    
C30   H9    S    
O18   C8    A    
C46   C54   A    
C72   C75   A    
C23   H5    S    
O2    V4    S    
C37   C40   A    
C65   C67   A    
V3    O19   S    
C49   H16   S    
V2    O20   S    
C55   C58   A    
C68   C74   A    
C9    C11   A    
C62   C64   A    
C25   C31   A    
O9    C5    A    
C56   C57   A    
O13   V1    S    
C64   C66   A    
C10   C12   A    
O2    C4    A    
C66   C68   A    
O4    V2    S    
O6    C8    A    
C57   C59   A    
C71   C76   A    
C9    H1    S    
C2    C44   S    
C51   C53   A    
C46   H20   S    
C27   F1    S    
C40   C42   A    
C74   H26   S    
C73   H25   S    
O12   V4    S    
C29   H10   S    
C69   C71   A    
O18   V4    S    
C75   H27   S    
