data_mof_unit_19278.cif
_audit_creation_date              2012-12-11T15:27:45-0500
_audit_creation_method            fapswitch 2.2
_symmetry_space_group_name_H-M    P1
_symmetry_Int_Tables_number       1
_space_group_crystal_system       triclinic
_cell_length_a                    23.126067
_cell_length_b                    7.311059
_cell_length_c                    15.466524
_cell_angle_alpha                 89.999988
_cell_angle_beta                  108.598686
_cell_angle_gamma                 90.0
_cell_volume                      2478.45118152

loop_
_atom_site_label
_atom_site_type_symbol
_atom_type_description
_atom_site_fract_x
_atom_site_fract_y
_atom_site_fract_z
_atom_type_partial_charge
O1    O     O_R   0.711000 0.648610 0.341170 -0.536160
O2    O     O_R   0.289000 0.351390 0.658830 -0.540155
O3    O     O_R   0.789000 0.148610 0.158830 -0.536160
O4    O     O_R   0.211000 0.851390 0.841170 -0.540155
O5    O     O_R   0.829650 0.322030 0.336650 -0.541880
O6    O     O_R   0.170350 0.677970 0.663350 -0.533050
O7    O     O_R   0.670350 0.822030 0.163350 -0.541881
O8    O     O_R   0.329650 0.177970 0.836650 -0.533050
C1    C     C_R   0.853441 0.486831 0.359125 0.720228
C2    C     C_R   0.146366 0.514602 0.641346 0.720072
C3    C     C_R   0.646559 0.986831 0.140875 0.720227
C4    C     C_R   0.353634 0.014602 0.858654 0.720073
O9    O     O_R   0.713950 0.319280 0.352070 -0.543476
O10   O     O_R   0.286050 0.680720 0.647930 -0.539612
O11   O     O_R   0.786050 0.819280 0.147930 -0.543476
O12   O     O_R   0.213950 0.180720 0.852070 -0.539612
O13   O     O_R   0.672470 0.142870 0.174360 -0.530926
O14   O     O_R   0.327530 0.857130 0.825640 -0.539967
O15   O     O_R   0.827530 0.642870 0.325640 -0.530925
O16   O     O_R   0.172470 0.357130 0.674360 -0.539967
C5    C     C_R   0.701238 0.486864 0.374700 0.697462
C6    C     C_R   0.298402 0.511767 0.624873 0.698569
C7    C     C_R   0.798762 0.986864 0.125300 0.697462
C8    C     C_R   0.201598 0.011767 0.875127 0.698568
O17   O     O_3   0.736530 0.478650 0.191680 -0.379340
O18   O     O_3   0.263470 0.521350 0.808320 -0.380071
O19   O     O_3   0.763470 0.978650 0.308320 -0.379339
O20   O     O_3   0.236530 0.021350 0.691680 -0.380071
V1    V     V_3+5 0.752500 0.206170 0.260820 1.451872
V2    V     V_3+5 0.247500 0.793830 0.739180 1.448854
V3    V     V_3+5 0.747500 0.706170 0.239180 1.451871
V4    V     V_3+5 0.252500 0.293830 0.760820 1.448854
C9    C     C_R   0.827233 0.992335 0.053234 -0.078915
C10   C     C_R   0.173832 0.000181 0.947947 -0.080407
C11   C     C_R   0.672767 0.492335 0.446766 -0.078916
C12   C     C_R   0.326168 0.500182 0.552053 -0.080408
C13   C     C_R   0.822700 0.044149 0.897486 -0.188551
C14   C     C_R   0.178741 0.029987 0.105139 -0.188449
C15   C     C_R   0.677300 0.544149 0.602513 -0.188551
C16   C     C_R   0.321259 0.529988 0.394861 -0.188449
C17   C     C_R   0.794263 0.047371 0.964406 -0.044913
C18   C     C_R   0.207068 0.043913 0.038359 -0.044064
C19   C     C_R   0.705737 0.547371 0.535594 -0.044913
C20   C     C_R   0.292932 0.543913 0.461641 -0.044064
C21   C     C_R   0.888250 0.937640 0.073730 -0.217589
C22   C     C_R   0.112821 0.944626 0.926103 -0.219207
C23   C     C_R   0.611750 0.437640 0.426270 -0.217589
C24   C     C_R   0.387179 0.444626 0.573896 -0.219206
C25   C     C_R   0.920870 0.966992 0.011524 0.074811
C26   C     C_R   0.080184 0.965922 0.988893 0.074789
C27   C     C_R   0.579130 0.466992 0.488476 0.074811
C28   C     C_R   0.419816 0.465922 0.511107 0.074789
C29   C     C_R   0.885277 0.004443 0.920471 0.109242
C30   C     C_R   0.115945 0.992602 0.080950 0.109735
C31   C     C_R   0.614723 0.504443 0.579530 0.109242
C32   C     C_R   0.384055 0.492602 0.419050 0.109735
C33   C     C_R   0.986686 0.963862 0.035952 -0.003400
C34   C     C_R   0.014292 0.966612 0.964272 -0.003081
C35   C     C_R   0.513314 0.463862 0.464048 -0.003400
C36   C     C_R   0.485707 0.466612 0.535728 -0.003081
C37   C     C_R   0.974703 0.988737 0.872001 -0.006094
C38   C     C_R   0.026246 0.976431 0.128662 -0.006901
C39   C     C_R   0.525297 0.488737 0.627999 -0.006094
C40   C     C_R   0.473754 0.476431 0.371338 -0.006901
C41   C     C_R   0.912020 0.007551 0.852516 -0.211524
C42   C     C_R   0.089127 0.989264 0.148809 -0.210869
C43   C     C_R   0.587980 0.507551 0.647484 -0.211524
C44   C     C_R   0.410873 0.489264 0.351191 -0.210869
H1    H     H_    0.883678 0.034742 0.782761 0.141291
H2    H     H_    0.117603 0.009020 0.219185 0.142336
H3    H     H_    0.616322 0.534743 0.717239 0.141291
H4    H     H_    0.382397 0.509021 0.280815 0.142336
H5    H     H_    0.092202 0.886275 0.859577 0.135689
H6    H     H_    0.908918 0.872340 0.138613 0.132333
H7    H     H_    0.407798 0.386275 0.640423 0.135689
H8    H     H_    0.591082 0.372339 0.361387 0.132333
H9    H     H_    0.796386 0.078192 0.827697 0.123078
H10   H     H_    0.205214 0.055561 0.175839 0.123026
H11   H     H_    0.703614 0.578193 0.672303 0.123078
H12   H     H_    0.294786 0.555562 0.324161 0.123026
C45   C     C_1   0.416038 0.010592 0.921421 -0.186291
C46   C     C_1   0.584452 0.997500 0.077431 -0.182742
C47   C     C_1   0.083962 0.510593 0.578579 -0.186292
C48   C     C_1   0.915548 0.497500 0.422569 -0.182742
C49   C     C_1   0.468996 0.008063 0.970914 -0.014424
C50   C     C_1   0.531615 0.003666 0.027618 -0.012288
C51   C     C_1   0.031004 0.508063 0.529086 -0.014424
C52   C     C_1   0.968385 0.503666 0.472382 -0.012289
C53   C     C_1   0.270725 0.094634 0.064529 0.284630
N1    N     N_1   0.321707 0.135263 0.085442 -0.371767
C54   C     C_1   0.730699 0.098498 0.939693 0.284180
N2    N     N_1   0.679790 0.139440 0.919954 -0.369883
C55   C     C_1   0.229275 0.594634 0.435471 0.284630
N3    N     N_1   0.178293 0.635263 0.414558 -0.371767
C56   C     C_1   0.769301 0.598499 0.560306 0.284180
N4    N     N_1   0.820210 0.639441 0.580045 -0.369883
C57   C     C_R   0.995369 0.031486 0.793890 0.081848
C58   C     C_R   0.985093 0.908148 0.720824 -0.140039
C59   C     C_R   0.006974 0.948162 0.648570 -0.128817
C60   C     C_R   0.038833 0.110660 0.649127 -0.085589
C61   C     C_R   0.047113 0.235789 0.720657 -0.094270
C62   C     C_R   0.024587 0.198095 0.791875 -0.133266
H13   H     H_    0.961396 0.780389 0.720931 0.137999
H14   H     H_    0.999727 0.852906 0.592648 0.127423
H15   H     H_    0.056861 0.138870 0.594041 0.123907
H16   H     H_    0.071322 0.362047 0.722808 0.107278
H17   H     H_    0.031690 0.295618 0.847058 0.119210
C63   C     C_R   0.005753 0.018517 0.207078 0.081139
C64   C     C_R   0.016046 0.894635 0.279927 -0.140007
C65   C     C_R   0.995666 0.936264 0.353474 -0.127311
C66   C     C_R   0.965278 0.100896 0.354480 -0.087022
C67   C     C_R   0.956700 0.226069 0.282913 -0.091203
C68   C     C_R   0.977637 0.186553 0.210292 -0.128898
H18   H     H_    0.038928 0.765743 0.278938 0.138356
H19   H     H_    0.003166 0.841002 0.409407 0.128514
H20   H     H_    0.948701 0.130741 0.410872 0.123725
H21   H     H_    0.933715 0.354148 0.281992 0.102492
H22   H     H_    0.970628 0.284663 0.155375 0.118334
C69   C     C_R   0.504631 0.531486 0.706110 0.081847
C70   C     C_R   0.514907 0.408148 0.779176 -0.140039
C71   C     C_R   0.493026 0.448162 0.851430 -0.128816
C72   C     C_R   0.461167 0.610660 0.850873 -0.085589
C73   C     C_R   0.452887 0.735789 0.779344 -0.094270
C74   C     C_R   0.475413 0.698094 0.708125 -0.133265
H23   H     H_    0.538604 0.280389 0.779069 0.137999
H24   H     H_    0.500273 0.352905 0.907352 0.127423
H25   H     H_    0.443140 0.638870 0.905959 0.123907
H26   H     H_    0.428679 0.862047 0.777193 0.107278
H27   H     H_    0.468310 0.795618 0.652942 0.119210
C75   C     C_R   0.494248 0.518517 0.292922 0.081139
C76   C     C_R   0.483954 0.394635 0.220074 -0.140007
C77   C     C_R   0.504335 0.436264 0.146527 -0.127311
C78   C     C_R   0.534723 0.600895 0.145521 -0.087023
C79   C     C_R   0.543301 0.726067 0.217088 -0.091203
C80   C     C_R   0.522363 0.686552 0.289708 -0.128897
H28   H     H_    0.461072 0.265743 0.221062 0.138356
H29   H     H_    0.496835 0.341001 0.090594 0.128514
H30   H     H_    0.551301 0.630739 0.089130 0.123725
H31   H     H_    0.566286 0.854146 0.218009 0.102492
H32   H     H_    0.529372 0.784663 0.344625 0.118334

loop_
_geom_bond_atom_site_label_1
_geom_bond_atom_site_label_2
_ccdc_geom_bond_type
O17   V3    S    
C47   C51   T    
C51   C52   S    
O1    C5    A    
C55   N3    T    
O19   V1    S    
O13   V1    S    
O3    C7    A    
C56   N4    T    
C10   C18   A    
C11   C23   A    
C57   C58   A    
C73   H26   S    
C25   C33   A    
C73   C74   A    
C49   C50   S    
O18   V4    S    
C60   H15   S    
C61   C62   A    
C74   H27   S    
C36   C39   A    
C40   C44   A    
O9    V1    S    
C23   H8    S    
C14   C18   A    
C67   H21   S    
O4    C8    A    
C25   C29   A    
C38   C63   S    
C58   H13   S    
C2    C47   S    
O1    V3    S    
C9    C21   A    
C63   C64   A    
O2    V4    S    
C72   H25   S    
O3    V1    S    
C65   C66   A    
C20   C55   S    
C28   C36   A    
C1    O15   A    
C15   C31   A    
C75   C80   A    
C2    O16   A    
C77   C78   A    
C7    C9    S    
O2    C6    A    
C19   C56   S    
C16   H12   S    
C66   H20   S    
C10   C22   A    
C21   C25   A    
C11   C19   A    
C16   C20   A    
C43   H3    S    
C57   C62   A    
C44   H4    S    
C13   C29   A    
C34   C37   A    
O11   C7    A    
C59   H14   S    
O15   V3    S    
C35   C36   A    
O12   C8    A    
C69   C74   A    
C24   H7    S    
O10   V2    S    
C67   C68   A    
O5    V1    S    
C3    C46   S    
C80   H32   S    
C39   C43   A    
O7    V3    S    
C38   C42   A    
C26   C34   A    
C33   C38   A    
C76   H28   S    
C54   N2    T    
C70   H23   S    
C15   C19   A    
C14   H10   S    
C16   C32   A    
C77   H29   S    
C32   C44   A    
C13   H9    S    
C8    C10   S    
C21   H6    S    
O8    V4    S    
C63   C68   A    
O7    C3    A    
O5    C1    A    
C39   C69   S    
C31   C43   A    
C59   C60   A    
C14   C30   A    
C24   C28   A    
O8    C4    A    
C35   C40   A    
O9    C5    A    
C62   H17   S    
C26   C30   A    
C71   C72   A    
C64   H18   S    
O14   V2    S    
O6    V2    S    
C40   C75   S    
C78   C79   A    
C12   C20   A    
C27   C35   A    
C76   C77   A    
C79   H31   S    
C29   C41   A    
C70   C71   A    
O16   V4    S    
C61   H16   S    
C3    O13   A    
C66   C67   A    
C17   C54   S    
C37   C57   S    
C48   C52   T    
O6    C2    A    
C23   C27   A    
C69   C70   A    
O11   V3    S    
C79   C80   A    
C5    C11   S    
O12   V4    S    
C6    C12   S    
C22   C26   A    
C18   C53   S    
C9    C17   A    
O10   C6    A    
O20   V2    S    
C75   C76   A    
C72   C73   A    
C71   H24   S    
C46   C50   T    
C64   C65   A    
C33   C34   A    
C42   H2    S    
C41   H1    S    
C60   C61   A    
C4    C45   S    
C12   C24   A    
C27   C31   A    
C13   C17   A    
C45   C49   T    
C1    C48   S    
C68   H22   S    
C37   C41   A    
C78   H30   S    
C58   C59   A    
C4    O14   A    
C53   N1    T    
C30   C42   A    
C65   H19   S    
C22   H5    S    
O4    V2    S    
C28   C32   A    
C15   H11   S    
