data_mof_unit_16109.cif
_audit_creation_date              2013-03-05T16:10:56-0500
_audit_creation_method            fapswitch 2.2
_symmetry_space_group_name_H-M    P1
_symmetry_Int_Tables_number       1
_space_group_crystal_system       triclinic
_cell_length_a                    15.424792
_cell_length_b                    14.907675
_cell_length_c                    9.927877
_cell_angle_alpha                 90.032225
_cell_angle_beta                  89.910556
_cell_angle_gamma                 89.105731
_cell_volume                      2282.61210255

loop_
_atom_site_label
_atom_site_type_symbol
_atom_site_description
_atom_site_fract_x
_atom_site_fract_y
_atom_site_fract_z
_atom_type_partial_charge
O1    O     O_R   0.091610 0.408380 0.614620 -0.588127
O2    O     O_R   0.908390 0.591620 0.385380 -0.587081
O3    O     O_R   0.908390 0.591620 0.614620 -0.645585
O4    O     O_R   0.091610 0.408380 0.385380 -0.638270
O5    O     O_R   0.908390 0.408380 0.385380 -0.597223
O6    O     O_R   0.091610 0.591620 0.614620 -0.612949
O7    O     O_R   0.091610 0.591620 0.385380 -0.590585
O8    O     O_R   0.908390 0.408380 0.614620 -0.576001
O9    O     O_R   0.591610 0.908380 0.614620 -0.640973
O10   O     O_R   0.408390 0.091620 0.385380 -0.593908
O11   O     O_R   0.408390 0.091620 0.614620 -0.579049
O12   O     O_R   0.591610 0.908380 0.385380 -0.592110
O13   O     O_R   0.408390 0.908380 0.385380 -0.580920
O14   O     O_R   0.591610 0.091620 0.614620 -0.568051
O15   O     O_R   0.591610 0.091620 0.385380 -0.582270
O16   O     O_R   0.408390 0.908380 0.614620 -0.602365
C1    C     C_R   0.119844 0.380519 0.499554 1.015211
C2    C     C_R   0.880084 0.619416 0.499686 1.008508
C3    C     C_R   0.879503 0.380765 0.499428 1.018447
C4    C     C_R   0.120577 0.619139 0.499320 1.014579
C5    C     C_R   0.619965 0.880649 0.500297 1.005672
C6    C     C_R   0.380256 0.119609 0.500434 1.011144
C7    C     C_R   0.379519 0.880799 0.500703 1.008581
C8    C     C_R   0.620523 0.119127 0.500462 1.017152
N1    N     N_R   0.000000 0.500000 0.857200 -0.120916
N2    N     N_R   0.000000 0.500000 0.142800 -0.123086
N3    N     N_R   0.500000 0.000000 0.857200 -0.098147
N4    N     N_R   0.500000 0.000000 0.142800 -0.090728
Zn1   Zn    Zn3+2 0.000000 0.500000 0.653120 1.061227
Zn2   Zn    Zn3+2 0.000000 0.500000 0.346880 1.069306
Zn3   Zn    Zn3+2 0.500000 0.000000 0.653120 1.086931
Zn4   Zn    Zn3+2 0.500000 0.000000 0.346880 1.095096
C9    C     C_R   0.975748 0.575307 0.072884 0.234635
C10   C     C_R   0.018657 0.423550 0.926686 0.196263
C11   C     C_R   0.022160 0.424102 0.069727 0.125145
C12   C     C_R   0.979734 0.576528 0.929402 0.120143
C13   C     C_R   0.481817 0.076858 0.072552 0.114901
C14   C     C_R   0.520226 0.923566 0.929932 0.125536
C15   C     C_R   0.516967 0.923169 0.073017 0.185304
C16   C     C_R   0.479115 0.076314 0.928151 0.169350
C17   C     C_R   0.806813 0.254350 0.389320 0.263546
C18   C     C_R   0.245319 0.687949 0.607313 0.221615
C19   C     C_R   0.194235 0.744971 0.388857 0.267096
C20   C     C_R   0.753931 0.312356 0.606624 0.218948
C21   C     C_R   0.167203 0.228703 0.551140 0.200724
C22   C     C_R   0.732814 0.664175 0.446661 0.210478
C23   C     C_R   0.833082 0.771617 0.549757 0.190807
C24   C     C_R   0.266985 0.335722 0.445522 0.195847
C25   C     C_R   0.255013 0.811846 0.392817 0.222303
C26   C     C_R   0.692618 0.245864 0.609604 0.268243
C27   C     C_R   0.745743 0.187658 0.392730 0.221993
C28   C     C_R   0.306138 0.754849 0.611244 0.264810
C29   C     C_R   0.767293 0.835985 0.552957 0.204625
C30   C     C_R   0.332888 0.271462 0.448360 0.204116
C31   C     C_R   0.233252 0.164636 0.554789 0.198048
C32   C     C_R   0.667015 0.728553 0.449791 0.198359
C33   C     C_R   0.188426 0.683854 0.497184 -0.328574
C34   C     C_R   0.811830 0.315841 0.497370 -0.328727
C35   C     C_R   0.814606 0.686485 0.497484 -0.340935
C36   C     C_R   0.185326 0.313476 0.497222 -0.351810
C37   C     C_R   0.687999 0.184138 0.502078 -0.333728
C38   C     C_R   0.311856 0.815959 0.502901 -0.327364
C39   C     C_R   0.314841 0.186761 0.502705 -0.344187
C40   C     C_R   0.685450 0.813614 0.502395 -0.349292
N5    N     N_3   0.942592 0.651492 0.145955 -0.355933
H1    H     H_    0.992195 0.675064 0.206227 0.267312
H2    H     H_    0.923037 0.704346 0.083681 0.229427
N6    N     N_3   0.035026 0.342386 0.853750 -0.338008
H3    H     H_    0.097383 0.319059 0.877761 0.215734
H4    H     H_    0.990460 0.294720 0.885745 0.262117
N7    N     N_3   0.050014 0.343398 0.134858 -0.401855
H5    H     H_    0.011162 0.332451 0.218564 0.285925
H6    H     H_    0.114534 0.350791 0.163830 0.237767
N8    N     N_3   0.961563 0.659277 0.862107 -0.394032
H7    H     H_    0.897725 0.658693 0.827612 0.233382
H8    H     H_    0.005480 0.668252 0.783736 0.278552
N9    N     N_3   0.466047 0.157912 0.146080 -0.350101
H9    H     H_    0.513233 0.204252 0.119404 0.243586
H10   H     H_    0.405005 0.183649 0.119579 0.200751
N10   N     N_3   0.547093 0.842538 0.864461 -0.399406
H11   H     H_    0.509050 0.832933 0.779707 0.285143
H12   H     H_    0.611998 0.848831 0.836552 0.235649
N11   N     N_3   0.532124 0.841812 0.145886 -0.339810
H13   H     H_    0.594065 0.817387 0.121328 0.218319
H14   H     H_    0.486730 0.794902 0.114328 0.262855
N12   N     N_3   0.452450 0.155069 0.856268 -0.344188
H15   H     H_    0.488581 0.209187 0.889782 0.243069
H16   H     H_    0.387485 0.168551 0.879902 0.199504
N13   N     N_R   0.865551 0.256234 0.277564 0.225602
O17   O     O_R   0.846382 0.306397 0.174235 -0.292722
O18   O     O_R   0.922448 0.191537 0.263364 -0.274935
N14   N     N_R   0.243049 0.623485 0.715077 0.259082
O19   O     O_R   0.257656 0.538829 0.690795 -0.311743
O20   O     O_R   0.228088 0.649625 0.838123 -0.252229
N15   N     N_R   0.136632 0.742632 0.276080 0.222516
O21   O     O_R   0.156345 0.691021 0.174407 -0.293854
O22   O     O_R   0.081616 0.808657 0.258472 -0.281133
N16   N     N_R   0.755491 0.377161 0.714059 0.258493
O23   O     O_R   0.742231 0.461897 0.688956 -0.315706
O24   O     O_R   0.768302 0.351262 0.837670 -0.255999
N17   N     N_R   0.082140 0.207651 0.600825 0.244683
O25   O     O_R   0.073022 0.164809 0.714009 -0.281614
O26   O     O_R   0.013906 0.225125 0.528131 -0.368229
N18   N     N_R   0.715317 0.574933 0.399912 0.235546
O27   O     O_R   0.653563 0.529126 0.455097 -0.233423
O28   O     O_R   0.751132 0.545339 0.289470 -0.302887
N19   N     N_R   0.918318 0.792780 0.598047 0.229399
O29   O     O_R   0.927903 0.835109 0.711605 -0.274840
O30   O     O_R   0.986171 0.775789 0.523893 -0.375586
N20   N     N_R   0.284423 0.425009 0.398975 0.237811
O31   O     O_R   0.345699 0.471053 0.454778 -0.230484
O32   O     O_R   0.249044 0.454515 0.288377 -0.325649
N21   N     N_R   0.257295 0.876303 0.285034 0.260996
O33   O     O_R   0.242113 0.960882 0.309163 -0.311090
O34   O     O_R   0.272792 0.850205 0.162120 -0.253910
N22   N     N_R   0.632656 0.244687 0.719749 0.240158
O35   O     O_R   0.651208 0.196199 0.825088 -0.302139
O36   O     O_R   0.574322 0.308328 0.729670 -0.283176
N23   N     N_R   0.743912 0.122982 0.285129 0.259924
O37   O     O_R   0.757750 0.038282 0.309816 -0.313669
O38   O     O_R   0.729985 0.148953 0.161834 -0.258068
N24   N     N_R   0.363850 0.757342 0.723949 0.225497
O39   O     O_R   0.343947 0.808424 0.826120 -0.289809
O40   O     O_R   0.420204 0.692395 0.740261 -0.276498
N25   N     N_R   0.784937 0.925348 0.599064 0.237196
O41   O     O_R   0.846729 0.970893 0.543480 -0.227674
O42   O     O_R   0.749098 0.955444 0.709180 -0.325595
N26   N     N_R   0.417671 0.292271 0.397242 0.245081
O43   O     O_R   0.426075 0.335589 0.284322 -0.290174
O44   O     O_R   0.486441 0.274000 0.468255 -0.358579
N27   N     N_R   0.216140 0.075659 0.602873 0.235079
O45   O     O_R   0.155582 0.028605 0.547101 -0.231708
O46   O     O_R   0.251042 0.047505 0.714618 -0.314732
N28   N     N_R   0.581877 0.707561 0.400817 0.244378
O47   O     O_R   0.572579 0.664928 0.287465 -0.282032
O48   O     O_R   0.513797 0.724843 0.474316 -0.369036

loop_
_geom_bond_atom_site_label_1
_geom_bond_atom_site_label_2
_geom_bond_distance
_ccdc_geom_bond_type
C17   N13   1.431909 S    
C21   C36   1.404680 A    
C8    C37   1.433291 S    
C22   C35   1.404207 A    
O2    C2    1.281576 A    
O13   Zn4   2.016809 S    
C25   N21   1.439338 S    
N15   O21   1.301601 A    
C27   C37   1.404665 A    
O14   Zn3   2.016807 S    
N26   O43   1.301375 A    
N18   O28   1.300771 A    
C9    N5    1.434407 S    
O15   Zn4   2.017352 S    
N9    H9    1.045193 S    
O10   C6    1.288176 A    
O16   Zn3   2.017354 S    
C24   C30   1.386203 A    
N17   O25   1.301336 A    
N8    H8    1.040899 S    
O8    Zn1   2.017354 S    
C24   N20   1.438439 S    
C17   C34   1.413644 A    
N21   O33   1.300876 A    
C13   C16   1.434295 A    
C14   C15   1.421365 A    
C29   C40   1.404198 A    
N12   H16   1.045248 S    
C30   C39   1.405084 A    
N3    C14   1.381156 A    
O14   C8    1.286928 A    
C9    C12   1.425838 A    
N22   O35   1.301308 A    
O13   C7    1.297250 A    
O3    C2    1.288711 A    
C10   C11   1.421238 A    
C16   N12   1.429561 S    
O3    Zn1   1.987561 S    
N20   O31   1.301110 A    
C5    C40   1.409964 S    
C6    C39   1.410363 S    
C20   N16   1.439176 S    
C7    C38   1.433717 S    
C20   C34   1.405444 A    
N6    H3    1.045586 S    
N5    H2    1.042962 S    
C31   C39   1.403955 A    
C19   N15   1.431180 S    
N19   O29   1.301421 A    
C32   C40   1.404479 A    
N13   O18   1.301296 A    
C26   N22   1.431381 S    
N1    C10   1.359727 A    
C23   C29   1.386029 A    
N9    H10   1.045263 S    
O11   Zn3   1.987561 S    
N17   O26   1.300171 A    
O7    Zn2   2.017352 S    
O12   Zn4   1.987561 S    
N19   O30   1.300254 A    
C28   N24   1.431740 S    
C18   C33   1.404940 A    
N14   O20   1.301215 A    
N18   O27   1.301126 A    
C24   C36   1.403979 A    
O9    Zn3   1.986417 S    
N23   O38   1.301201 A    
C3    C34   1.434701 S    
N1    Zn1   2.026081 S    
O8    C3    1.297171 A    
N8    H7    1.043200 S    
N3    Zn3   2.026081 S    
N4    Zn4   2.026081 S    
N10   H12   1.044012 S    
C10   N6    1.428638 S    
N7    H6    1.043833 S    
C22   N18   1.438427 S    
N12   H15   1.042344 S    
C19   C25   1.379717 A    
N28   O48   1.300199 A    
C1    C36   1.409976 S    
N4    C15   1.359976 A    
C30   N26   1.440414 S    
O12   C5    1.288506 A    
O7    C4    1.286194 A    
N2    C11   1.381869 A    
N2    C9    1.367718 A    
C27   N23   1.439226 S    
N11   H13   1.045553 S    
N3    C16   1.371559 A    
O1    Zn1   1.986417 S    
C21   C31   1.386067 A    
C29   N25   1.438538 S    
O4    C1    1.281968 A    
O15   C8    1.295832 A    
N11   H14   1.045566 S    
N2    Zn2   2.026081 S    
O16   C7    1.285771 A    
C31   N27   1.438140 S    
C21   N17   1.440274 S    
N25   O41   1.301130 A    
N24   O40   1.301380 A    
N27   O45   1.301076 A    
N13   O17   1.301499 A    
O5    Zn2   2.016809 S    
C20   C26   1.380962 A    
C12   N8    1.427376 S    
C25   C38   1.404113 A    
O1    C1    1.288187 A    
N10   H11   1.037727 S    
N27   O46   1.300799 A    
N26   O44   1.299990 A    
C32   N28   1.440001 S    
N23   O37   1.300802 A    
N15   O22   1.301572 A    
N28   O47   1.301324 A    
O5    C3    1.286345 A    
O6    C4    1.297264 A    
O11   C6    1.282169 A    
C23   N19   1.439684 S    
O2    Zn2   1.986417 S    
N24   O39   1.301502 A    
C15   N11   1.428859 S    
N7    H5    1.038285 S    
C11   N7    1.426802 S    
C28   C38   1.413494 A    
O9    C5    1.281666 A    
C13   N9    1.428759 S    
N4    C13   1.367233 A    
N14   O19   1.300850 A    
N22   O36   1.300922 A    
C18   N14   1.439258 S    
N5    H1    1.037552 S    
N16   O24   1.301162 A    
N20   O32   1.300700 A    
C19   C33   1.413551 A    
N1    C12   1.378525 A    
C23   C35   1.404355 A    
O10   Zn4   1.986417 S    
C2    C35   1.410245 S    
O6    Zn1   2.016807 S    
C14   N10   1.426882 S    
N6    H4    1.045565 S    
N16   O23   1.300808 A    
C22   C32   1.386208 A    
N25   O42   1.300709 A    
C26   C37   1.411582 A    
C4    C33   1.434547 S    
C17   C27   1.380630 A    
O4    Zn2   1.987561 S    
C18   C28   1.380406 A    
N21   O34   1.301240 A    
