data_mof_unit_32672.cif
_audit_creation_date              2012-12-11T14:26:43-0500
_audit_creation_method            fapswitch 2.2
_symmetry_space_group_name_H-M    P1
_symmetry_Int_Tables_number       1
_space_group_crystal_system       triclinic
_cell_length_a                    15.031173
_cell_length_b                    14.891779
_cell_length_c                    14.789261
_cell_angle_alpha                 109.507101
_cell_angle_beta                  109.18489
_cell_angle_gamma                 109.12388
_cell_volume                      2566.98280296

loop_
_atom_site_label
_atom_site_type_symbol
_atom_type_description
_atom_site_fract_x
_atom_site_fract_y
_atom_site_fract_z
_atom_type_partial_charge
C1    C     C_R   0.936452 0.753558 0.030871 -0.148270
C2    C     C_R   0.699450 0.138914 0.697754 0.138112
C3    C     C_R   0.031702 0.496462 0.680723 0.168919
C4    C     C_R   0.697098 0.498956 0.062590 -0.016779
C5    C     C_R   0.065228 0.589390 0.313039 -0.129414
C6    C     C_R   0.222811 0.407212 0.972814 -0.139732
C7    C     C_R   0.306809 0.790774 0.217918 -0.146436
C8    C     C_R   0.905670 0.196158 0.992812 -0.166908
C9    C     C_R   0.997797 0.196973 0.902423 -0.128714
C10   C     C_R   0.213628 0.790495 0.308026 -0.147019
C11   C     C_R   0.974105 0.407471 0.221481 -0.160775
C12   C     C_R   0.792072 0.199760 0.699183 -0.151243
C13   C     C_R   0.313562 0.590240 0.062887 -0.133767
C14   C     C_R   0.054208 0.497832 0.324162 0.070242
C15   C     C_R   0.324582 0.498093 0.046934 0.012162
C16   C     C_R   0.313681 0.841450 0.318487 0.137359
C17   C     C_R   0.933015 0.132343 0.928223 0.144024
C18   C     C_3   0.542293 0.511610 0.970252 -0.448121
C19   C     C_3   0.438399 0.508721 0.963765 -0.404254
C20   C     C_3   0.523874 0.388510 0.052685 -0.390247
C21   C     C_3   0.630529 0.596306 0.178257 0.104869
C22   C     C_3   0.601621 0.498730 0.068858 0.324967
C23   C     C_R   0.075699 0.589009 0.780924 -0.166458
C24   C     C_3   0.425734 0.497864 0.060060 0.349746
C25   C     C_3   0.422647 0.390404 0.053653 -0.399893
C26   C     C_3   0.524907 0.595166 0.171942 -0.414245
C27   C     C_2   0.424505 0.908935 0.510202 -0.126706
C28   C     C_2   0.411984 0.919371 0.420849 -0.196209
C29   C     C_2   0.524969 0.982281 0.613614 -0.119701
C30   C     C_2   0.617689 0.027835 0.613685 -0.190794
C31   C     C_2   0.068613 0.416182 0.533035 -0.171631
C32   C     C_2   0.052106 0.494695 0.590387 -0.275695
C33   C     C_2   0.085896 0.410482 0.438401 0.200523
C34   C     C_R   0.699623 0.408224 0.001095 -0.121885
C35   C     C_2   0.118309 0.500085 0.426736 0.126087
C36   C     C_2   0.925181 0.959428 0.831604 -0.117050
C37   C     C_2   0.885154 0.014503 0.881637 -0.190107
C38   C     C_2   0.924018 0.862820 0.837825 -0.113493
C39   C     C_2   0.912168 0.844352 0.917002 -0.188129
C40   C     C_R   0.984140 0.406636 0.691083 -0.126408
C41   C     C_R   0.788506 0.590482 0.092985 -0.165666
C42   C     C_R   0.701095 0.201373 0.791813 -0.115370
C43   C     C_R   0.029252 0.754236 0.939269 -0.117201
C44   C     C_R   0.955176 0.783173 0.957145 0.129180
H1    H     H_    0.200744 0.321963 0.936130 0.091993
H2    H     H_    0.842747 0.166298 0.012585 0.089119
H3    H     H_    0.018497 0.168956 0.838922 0.079109
H4    H     H_    0.941321 0.322287 0.198276 0.095657
H5    H     H_    0.377134 0.673654 0.105794 0.087770
H6    H     H_    0.522528 0.444815 0.891344 0.177219
H7    H     H_    0.594769 0.590318 0.978778 0.159063
H8    H     H_    0.440040 0.584805 0.966098 0.157581
H9    H     H_    0.821476 0.170502 0.644285 0.088686
H10   H     H_    0.368437 0.438528 0.883281 0.167090
H11   H     H_    0.496595 0.319964 0.971418 0.147602
H12   H     H_    0.351277 0.317137 0.977266 0.146489
H13   H     H_    0.531685 0.674483 0.180622 0.119256
H14   H     H_    0.512292 0.589260 0.239822 0.178660
H15   H     H_    0.417395 0.383414 0.124477 0.158659
H16   H     H_    0.132144 0.671342 0.805938 0.091637
H17   H     H_    0.476778 0.978707 0.420140 0.132534
H18   H     H_    0.063154 0.350935 0.552049 0.144326
H19   H     H_    0.055959 0.560777 0.573193 0.138383
H20   H     H_    0.978541 0.995978 0.804305 0.111867
H21   H     H_    0.826358 0.976386 0.902893 0.125293
H22   H     H_    0.955068 0.821002 0.792196 0.115926
H23   H     H_    0.645744 0.323270 0.970469 0.082744
H24   H     H_    0.882733 0.885570 0.965086 0.125529
H25   H     H_    0.953283 0.321831 0.634030 0.086351
H26   H     H_    0.816130 0.674753 0.148391 0.083490
H27   H     H_    0.648771 0.175578 0.824150 0.077969
H28   H     H_    0.064370 0.769265 0.889366 0.087797
N1    N     N_R   0.993980 0.704500 0.053430 -0.040988
N2    N     N_R   0.154170 0.443650 0.946570 -0.038073
N3    N     N_R   0.207180 0.704490 0.150760 -0.037283
N4    N     N_R   0.948740 0.295490 0.002840 -0.036722
N5    N     N_R   0.006020 0.295500 0.946570 -0.039710
N6    N     N_R   0.149890 0.704480 0.207030 -0.040306
N7    N     N_R   0.946310 0.443620 0.150760 -0.035594
N8    N     N_R   0.209610 0.556360 0.002840 -0.036068
N9    N     N_R   0.850110 0.295520 0.792970 -0.039432
N10   N     N_R   0.053690 0.556380 0.849240 -0.040785
N11   N     N_R   0.790390 0.443640 0.997160 -0.033846
N12   N     N_R   0.998260 0.443670 0.792970 -0.044313
N13   N     N_R   0.845830 0.556350 0.053430 -0.029507
N14   N     N_R   0.792820 0.295510 0.849240 -0.043346
N15   N     N_R   0.051260 0.704510 0.997160 -0.043813
N16   N     N_R   0.001740 0.556330 0.207030 -0.040639
Ni1   Ni    Ni4+2 0.997880 0.629240 0.129060 0.207405
Ni2   Ni    Ni4+2 0.002120 0.370760 0.870940 0.204296
Ni3   Ni    Ni4+2 0.129260 0.629260 0.000000 0.209002
Ni4   Ni    Ni4+2 0.870740 0.370740 0.000000 0.206482
H29   H     H_    0.884241 0.765790 0.063530 0.095325
H30   H     H_    0.367966 0.818012 0.195466 0.085374
H31   H     H_    0.188563 0.818859 0.367489 0.089467
C45   C     C_3   0.709491 0.608628 0.287437 -0.347156
C46   C     C_3   0.659361 0.552231 0.341771 -0.894286
H32   H     H_    0.631051 0.600859 0.387814 0.249622
H33   H     H_    0.591502 0.468378 0.281651 0.257097
H34   H     H_    0.722075 0.547352 0.402554 0.246393
H35   H     H_    0.765836 0.579836 0.274082 0.187949
H36   H     H_    0.761180 0.697265 0.349281 0.176268
H37   H     H_    0.675926 0.672402 0.178381 0.058155
H38   H     H_    0.565113 0.370428 0.115993 0.161394
H39   H     H_    0.357722 0.851048 0.509853 0.131728
H40   H     H_    0.518049 0.010900 0.687323 0.114770
H41   H     H_    0.624893 0.992661 0.540917 0.130123
C47   C     C_3   0.067029 0.302792 0.356215 -0.392004
C48   C     C_3   0.142294 0.265874 0.410717 -0.901934
H42   H     H_    0.227779 0.332230 0.456711 0.264432
H43   H     H_    0.121526 0.242264 0.467705 0.245912
H44   H     H_    0.133862 0.193322 0.346360 0.251234
H45   H     H_    0.981545 0.238837 0.317104 0.181917
H46   H     H_    0.084203 0.310824 0.290927 0.201307
C49   C     C_3   0.215925 0.607584 0.523673 -0.383308
C50   C     C_3   0.309240 0.639015 0.499297 -0.893124
H47   H     H_    0.332626 0.574225 0.483722 0.263624
H48   H     H_    0.286331 0.650297 0.426140 0.263218
H49   H     H_    0.380279 0.716666 0.571318 0.246721
H50   H     H_    0.194571 0.673689 0.542589 0.169681
H51   H     H_    0.245843 0.601091 0.599415 0.207989
H52   H     H_    0.117943 0.672862 0.377860 0.099685

loop_
_geom_bond_atom_site_label_1
_geom_bond_atom_site_label_2
_ccdc_geom_bond_type
C16   C28   S    
C21   C26   S    
C43   H28   S    
C49   H51   S    
C23   N10   A    
N15   Ni3   S    
C30   H41   S    
C27   C29   S    
C39   H24   S    
C40   N12   A    
C3    C23   A    
C25   H12   S    
C2    C12   A    
C46   H32   S    
C10   N6    A    
C47   C48   S    
N11   Ni4   S    
C36   C37   D    
C6    H1    S    
C24   C26   S    
C45   H36   S    
C48   H43   S    
C38   C39   D    
C11   C14   A    
C4    C41   A    
C27   H39   S    
C49   C50   S    
C8    N4    A    
C50   H47   S    
C18   C19   S    
C47   H46   S    
N1    N15   A    
C6    C15   A    
C5    N16   A    
C19   H8    S    
C38   H22   S    
C37   H21   S    
C31   C33   S    
C35   C49   S    
C42   N14   A    
N9    N14   A    
N3    Ni3   S    
C28   H17   S    
C13   N8    A    
N2    N8    A    
C21   C22   S    
C31   H18   S    
C11   H4    S    
C33   C47   S    
N12   Ni2   S    
C20   H11   S    
N7    N16   A    
C46   H33   S    
C18   H7    S    
C6    N2    A    
N6    Ni1   S    
C23   H16   S    
C4    C34   A    
N5    Ni2   S    
C40   H25   S    
C45   H35   S    
C24   C25   S    
C48   H44   S    
C14   C35   S    
N13   Ni1   S    
C7    N3    A    
N3    N6    A    
C5    H52   S    
N10   Ni3   S    
C47   H45   S    
C43   C44   A    
C29   C30   D    
C4    C22   S    
C1    C44   A    
C31   C32   D    
C45   C46   S    
C5    C14   A    
C17   C37   S    
N4    N5    A    
C26   H14   S    
N7    Ni4   S    
C11   N7    A    
N4    Ni4   S    
C13   H5    S    
N9    Ni2   S    
C19   H10   S    
C9    C17   A    
C15   C24   S    
N11   N13   A    
C20   C22   S    
C3    C40   A    
C9    H3    S    
N10   N12   A    
C13   C15   A    
C29   H40   S    
C34   N11   A    
C46   H34   S    
C18   H6    S    
C7    H30   S    
C7    C16   A    
C18   C22   S    
C12   H9    S    
C32   H19   S    
C34   H23   S    
C39   C44   S    
C20   H38   S    
C21   C45   S    
C41   N13   A    
C8    C17   A    
C50   H49   S    
C2    C30   S    
C1    N1    A    
N2    Ni2   S    
N8    Ni3   S    
C36   C38   S    
C19   C24   S    
C9    N5    A    
C43   N15   A    
C10   C16   A    
C48   H42   S    
C10   H31   S    
C2    C42   A    
C42   H27   S    
C33   C35   D    
C50   H48   S    
C12   N9    A    
C3    C32   S    
C26   H13   S    
C8    H2    S    
N1    Ni1   S    
C21   H37   S    
N16   Ni1   S    
C1    H29   S    
C49   H50   S    
C20   C25   S    
C27   C28   D    
N14   Ni4   S    
C25   H15   S    
C36   H20   S    
C41   H26   S    
