data_mof_unit_17197.cif
_audit_creation_date              2013-03-05T15:55:20-0500
_audit_creation_method            fapswitch 2.2
_symmetry_space_group_name_H-M    P1
_symmetry_Int_Tables_number       1
_space_group_crystal_system       triclinic
_cell_length_a                    27.70309
_cell_length_b                    10.52527
_cell_length_c                    9.938281
_cell_angle_alpha                 91.692843
_cell_angle_beta                  90.069001
_cell_angle_gamma                 92.729798
_cell_volume                      2893.26730926

loop_
_atom_site_label
_atom_site_type_symbol
_atom_site_description
_atom_site_fract_x
_atom_site_fract_y
_atom_site_fract_z
_atom_type_partial_charge
O1    O     O_R   0.500000 0.316780 0.614690 -0.642553
O2    O     O_R   0.500000 0.316750 0.385360 -0.629646
C1    C     C_R   0.504670 0.258905 0.498208 0.878515
O3    O     O_R   0.428760 0.500030 0.614650 -0.623826
O4    O     O_R   0.428750 0.500010 0.385320 -0.632977
C2    C     C_R   0.406098 0.499193 0.499832 0.884449
Zn1   Zn    Zn3+2 0.500000 0.500020 0.653130 0.943363
Zn2   Zn    Zn3+2 0.500000 0.499980 0.346870 0.980022
O5    O     O_R   0.500000 0.683250 0.614640 -0.623178
O6    O     O_R   0.500000 0.683220 0.385310 -0.556473
O7    O     O_R   0.571250 0.499990 0.614680 -0.631625
O8    O     O_R   0.571240 0.499970 0.385350 -0.597365
C3    C     C_R   0.490383 0.736135 0.502337 0.951709
C4    C     C_R   0.594081 0.497146 0.500095 0.908024
C5    C     C_R   0.174710 0.403811 0.491902 0.544870
O9    O     O_2   0.196398 0.292334 0.502833 -0.528195
N1    N     N_R   0.201809 0.515147 0.492510 -0.352568
C6    C     C_R   0.181756 0.630504 0.481631 0.545162
C7    C     C_R   0.278702 0.513986 0.375833 -0.120995
C8    C     C_R   0.328629 0.509355 0.376734 -0.178792
C9    C     C_R   0.327520 0.495679 0.620365 -0.198734
C10   C     C_R   0.277413 0.500785 0.619658 0.233930
C11   C     C_R   0.253081 0.510181 0.496722 0.255866
C12   C     C_R   0.102665 0.522148 0.465180 -0.090267
C13   C     C_R   0.124700 0.404925 0.478723 -0.013069
C14   C     C_R   0.096396 0.291351 0.480361 -0.115587
C15   C     C_R   0.131144 0.637823 0.467459 -0.041897
C16   C     C_R   0.353414 0.500785 0.499092 -0.075303
H1    H     H_    0.346050 0.488418 0.715646 0.195021
H2    H     H_    0.112364 0.201071 0.496481 0.185862
C17   C     C_R   0.647399 0.494560 0.497996 -0.134336
C18   C     C_R   0.974386 0.407916 0.410100 -0.034821
C19   C     C_R   0.977600 0.637014 0.460599 0.035824
C20   C     C_R   0.950399 0.520895 0.438331 0.054734
C21   C     C_R   0.947734 0.300273 0.357270 0.119060
C22   C     C_R   0.897270 0.291112 0.372192 0.151816
C23   C     C_R   0.872522 0.401029 0.415612 -0.055507
C24   C     C_R   0.899362 0.517431 0.444657 -0.123008
C25   C     C_R   0.875435 0.629543 0.483430 -0.024811
C26   C     C_R   0.824783 0.620229 0.497449 0.546231
N2    N     N_R   0.799865 0.508163 0.469224 -0.337835
C27   C     C_R   0.821707 0.401164 0.426610 0.560991
C28   C     C_R   0.726144 0.463808 0.599686 0.182744
C29   C     C_R   0.675202 0.454587 0.608219 0.104961
C30   C     C_R   0.670805 0.531589 0.379336 -0.222426
C31   C     C_R   0.720763 0.535793 0.368878 0.185070
C32   C     C_R   0.748361 0.503641 0.479940 0.233963
O10   O     O_2   0.793528 0.296855 0.393947 -0.555201
C33   C     C_R   0.024402 0.406476 0.436801 0.082597
C34   C     C_R   0.051933 0.522734 0.450299 0.086434
C35   C     C_R   0.028750 0.638902 0.451474 0.015545
C36   C     C_R   0.046895 0.292383 0.461261 -0.174542
H3    H     H_    0.026136 0.203320 0.469672 0.165177
O11   O     O_2   0.211152 0.736322 0.484842 -0.529997
C37   C     C_R   0.107854 0.754409 0.453525 0.175958
H4    H     H_    0.347730 0.513244 0.281790 0.191668
H5    H     H_    0.259741 0.520839 0.281143 0.166102
C38   C     C_R   0.953214 0.746871 0.496381 -0.189772
C39   C     C_R   0.903061 0.745428 0.508248 0.194705
O12   O     O_2   0.799877 0.720987 0.539136 -0.551418
C40   C     C_R   0.057366 0.752851 0.446394 -0.194199
H6    H     H_    0.973001 0.834792 0.522825 0.146972
H7    H     H_    0.650108 0.557247 0.293086 0.204282
H8    H     H_    0.040905 0.842413 0.432428 0.150785
C41   C     C_R   0.531045 0.114426 0.737503 -0.110815
H9    H     H_    0.555091 0.197835 0.732701 0.151884
C42   C     C_R   0.522489 0.063163 0.863047 -0.192302
H10   H     H_    0.538769 0.108794 0.952066 0.161846
C43   C     C_R   0.490694 0.957989 0.874172 -0.178617
H11   H     H_    0.481140 0.924612 0.972507 0.192835
C44   C     C_R   0.471355 0.895797 0.758882 0.246947
C45   C     C_R   0.484908 0.939269 0.629745 0.007706
C46   C     C_R   0.508517 0.059040 0.620703 0.034038
C47   C     C_R   0.507963 0.120566 0.495832 -0.168871
C48   C     C_R   0.495308 0.050170 0.376342 0.137248
C49   C     C_R   0.473778 0.929068 0.386972 0.184213
C50   C     C_R   0.476586 0.867987 0.509159 -0.215923
C51   C     C_R   0.435357 0.334826 0.134691 -0.199481
H12   H     H_    0.434212 0.327928 0.241435 0.222219
C52   C     C_R   0.403098 0.253675 0.062208 -0.220226
H13   H     H_    0.378309 0.190122 0.114993 0.195681
C53   C     C_R   0.403146 0.253101 0.922749 0.189483
C54   C     C_R   0.435366 0.333981 0.855222 -0.170255
H14   H     H_    0.433379 0.328291 0.748320 0.215003
C55   C     C_R   0.468280 0.418046 0.925303 0.098561
C56   C     C_R   0.468301 0.418205 0.069571 0.117393
N3    N     N_R   0.499540 0.498800 0.142780 -0.143682
C57   C     C_R   0.529895 0.581183 0.074493 0.218107
C58   C     C_R   0.530157 0.580823 0.931287 0.167218
N4    N     N_R   0.499520 0.498720 0.857170 -0.122238
C59   C     C_3   0.134826 0.882390 0.446138 -0.703129
H15   H     H_    0.110187 0.961017 0.431171 0.198311
H16   H     H_    0.154696 0.904736 0.541629 0.275698
H17   H     H_    0.160072 0.882329 0.359474 0.271057
C60   C     C_3   0.881115 0.870129 0.547626 -0.763073
H18   H     H_    0.855246 0.896359 0.468940 0.261765
H19   H     H_    0.862910 0.862371 0.646678 0.279358
H20   H     H_    0.908610 0.950216 0.557681 0.207819
C61   C     C_3   0.744537 0.575195 0.239225 -0.798382
H21   H     H_    0.717563 0.596646 0.161280 0.244641
H22   H     H_    0.768287 0.661918 0.257550 0.250615
H23   H     H_    0.766531 0.497375 0.198790 0.254807
C62   C     C_3   0.509885 0.092878 0.237918 -0.830098
H24   H     H_    0.526953 0.013568 0.182650 0.247998
H25   H     H_    0.477769 0.118622 0.180565 0.253551
H26   H     H_    0.537748 0.172045 0.240637 0.251632
I1    I     I_    0.240138 0.496151 0.805492 -0.247570
I2    I     I_    0.413235 0.761085 0.790438 -0.260522
I3    I     I_    0.433249 0.840778 0.222838 -0.319653
I4    I     I_    0.577238 0.717192 0.180207 -0.373977
I5    I     I_    0.354468 0.129841 0.812431 -0.256583
C63   C     C_3   0.564824 0.673956 0.864626 -0.775013
H27   H     H_    0.563794 0.670857 0.755551 0.291919
H28   H     H_    0.556785 0.772478 0.896312 0.237202
H29   H     H_    0.602456 0.655808 0.894096 0.222610
C64   C     C_3   0.650945 0.396061 0.729221 -0.795013
H30   H     H_    0.675626 0.343640 0.792360 0.256335
H31   H     H_    0.634820 0.470714 0.793294 0.252783
H32   H     H_    0.622658 0.324526 0.694948 0.221696
I6    I     I_    0.771800 0.423461 0.765896 -0.322706
C65   C     C_3   0.871334 0.162735 0.345696 -0.725143
H33   H     H_    0.896169 0.084325 0.330804 0.227709
H34   H     H_    0.849617 0.135584 0.435011 0.261466
H35   H     H_    0.848163 0.165458 0.254707 0.277298
I7    I     I_    0.981050 0.175410 0.212256 -0.374873

loop_
_geom_bond_atom_site_label_1
_geom_bond_atom_site_label_2
_geom_bond_distance
_ccdc_geom_bond_type
C38   H6    1.078361 S    
C31   C61   1.507858 S    
C48   C49   1.388263 A    
C19   C38   1.403746 A    
C26   O12   1.347880 S    
N2    C27   1.360573 A    
C60   H18   1.109760 S    
C35   C40   1.408026 A    
C12   C15   1.418495 A    
C4    C17   1.478789 S    
C8    H4    1.083266 S    
C63   H28   1.107670 S    
C60   H20   1.111040 S    
C55   C56   1.433733 A    
C7    H5    1.083104 S    
Zn1   O7    2.010959 S    
C58   C63   1.507427 S    
N1    C11   1.424436 S    
C22   C23   1.428790 A    
C23   C24   1.424445 A    
O4    C2    1.300308 A    
O7    C4    1.303566 A    
C15   C37   1.423531 A    
C5    C13   1.392087 A    
C10   I1    2.117727 S    
C41   C46   1.414355 A    
C64   H30   1.105006 S    
C43   C44   1.396116 A    
C46   C47   1.417059 A    
C23   C27   1.412180 A    
C21   I7    2.159379 S    
C1    C47   1.462733 S    
O5    C3    1.294839 A    
C65   H35   1.110165 S    
C37   C59   1.512715 S    
C2    C16   1.460430 S    
C61   H21   1.111056 S    
C49   I3    2.142821 S    
C41   C42   1.390095 A    
C28   I6    2.143887 S    
C57   I4    2.145279 S    
C51   C56   1.407346 A    
O1    Zn1   1.955021 S    
C44   I2    2.123954 S    
C48   C62   1.509389 S    
C39   C60   1.513838 S    
O3    Zn1   2.009835 S    
C63   H27   1.083848 S    
C19   C20   1.416494 A    
C12   C34   1.413335 A    
C3    C50   1.456586 S    
C17   C29   1.423478 A    
C42   H10   1.081696 S    
C18   C21   1.410204 A    
C12   C13   1.412214 A    
C52   C53   1.385818 A    
C47   C48   1.415764 A    
C59   H15   1.110749 S    
C51   H12   1.065873 S    
C45   C46   1.397612 A    
C8    C16   1.403094 A    
C34   C35   1.407696 A    
C38   C39   1.393937 A    
C30   C31   1.386723 A    
Zn1   N4    2.028312 S    
C9    H1    1.082990 S    
C30   H7    1.078749 S    
O1    C1    1.301586 A    
C21   C22   1.405065 A    
C18   C20   1.410798 A    
C40   H8    1.079053 S    
C7    C11   1.396786 A    
C28   C29   1.412776 A    
C45   C50   1.407828 A    
C14   C36   1.384772 A    
C59   H16   1.110041 S    
C54   H14   1.063546 S    
Zn2   O8    2.009832 S    
C33   C36   1.406267 A    
C25   C39   1.423783 A    
N1    C6    1.366146 A    
N2    C32   1.429544 S    
C62   H25   1.104868 S    
C27   O10   1.347898 S    
C49   C50   1.394500 A    
C65   H33   1.106105 S    
O3    C2    1.301325 A    
C26   N2    1.359747 A    
C54   C55   1.408755 A    
C9    C16   1.404393 A    
O8    C4    1.305283 A    
C14   H2    1.083118 S    
C25   C26   1.409334 A    
C36   H3    1.081593 S    
C56   N3    1.374760 A    
C42   C43   1.388548 A    
C5    N1    1.361116 A    
C31   C32   1.400731 A    
C61   H22   1.109925 S    
C20   C24   1.414119 A    
O2    Zn2   1.977168 S    
C6    C15   1.414993 A    
C52   H13   1.082631 S    
O6    C3    1.307850 A    
O4    Zn2   2.010961 S    
C55   N4    1.376175 A    
C60   H19   1.109999 S    
C19   C35   1.419247 A    
C64   H32   1.106794 S    
Zn2   N3    2.027996 S    
C53   I5    2.109378 S    
C7    C8    1.386336 A    
O2    C1    1.301042 A    
C13   C14   1.398562 A    
C44   C45   1.420188 A    
C59   H17   1.110148 S    
C24   C25   1.424270 A    
C37   C40   1.399685 A    
C64   H31   1.107692 S    
C22   C65   1.515710 S    
C62   H26   1.108254 S    
C51   C52   1.391600 A    
C41   H9    1.078701 S    
C43   H11   1.077313 S    
C18   C33   1.411344 A    
C65   H34   1.109701 S    
C6    O11   1.347635 S    
Zn1   O5    1.977170 S    
C61   H23   1.110100 S    
C57   C58   1.423146 A    
C29   C64   1.511116 S    
N3    C57   1.373422 A    
Zn2   O6    1.955020 S    
C33   C34   1.413567 A    
C17   C30   1.402833 A    
C62   H24   1.110504 S    
C10   C11   1.402994 A    
C53   C54   1.390897 A    
C58   N4    1.378669 A    
C9    C10   1.391731 A    
C28   C32   1.406242 A    
C63   H29   1.109360 S    
C5    O9    1.350558 S    
