data_mof_unit_29850.cif
_audit_creation_date              2012-12-11T15:54:47-0500
_audit_creation_method            fapswitch 2.2
_symmetry_space_group_name_H-M    P1
_symmetry_Int_Tables_number       1
_space_group_crystal_system       triclinic
_cell_length_a                    17.486367
_cell_length_b                    24.277896
_cell_length_c                    15.038657
_cell_angle_alpha                 89.982967
_cell_angle_beta                  125.876952
_cell_angle_gamma                 89.986668
_cell_volume                      5173.12972385

loop_
_atom_site_label
_atom_site_type_symbol
_atom_type_description
_atom_site_fract_x
_atom_site_fract_y
_atom_site_fract_z
_atom_type_partial_charge
C1    C     C_R   0.902025 0.875223 0.091407 -0.135597
C2    C     C_R   0.901769 0.123929 0.091702 -0.143544
C3    C     C_R   0.402019 0.375230 0.091407 -0.135613
C4    C     C_R   0.401764 0.623919 0.091703 -0.143501
C5    C     C_R   0.056720 0.847499 0.908634 -0.151126
C6    C     C_R   0.055433 0.152888 0.908759 -0.154272
C7    C     C_R   0.556713 0.347497 0.908634 -0.151132
C8    C     C_R   0.555447 0.652881 0.908752 -0.154197
C9    C     C_R   0.147624 0.152788 0.091241 -0.149605
C10   C     C_R   0.148185 0.847364 0.091344 -0.150983
C11   C     C_R   0.647629 0.652786 0.091238 -0.149620
C12   C     C_R   0.648180 0.347363 0.091344 -0.150987
C13   C     C_R   0.324437 0.999988 0.272796 -0.010437
C14   C     C_R   0.824437 0.499988 0.272796 -0.010440
C15   C     C_R   0.053938 0.001470 0.730823 0.027242
C16   C     C_R   0.553958 0.501463 0.730843 0.027274
C17   C     C_R   0.117106 0.815682 0.999979 -0.007928
C18   C     C_R   0.115713 0.184696 0.999867 -0.007393
C19   C     C_R   0.617096 0.315679 0.999979 -0.007926
C20   C     C_R   0.615726 0.684689 0.999859 -0.007412
C21   C     C_3   0.067068 0.063455 0.505584 0.072884
C22   C     C_3   0.948299 0.980824 0.429471 0.080509
C23   C     C_3   0.567435 0.563412 0.505854 0.072856
C24   C     C_3   0.448318 0.480948 0.429483 0.080504
C25   C     C_3   0.091983 0.058881 0.621923 -0.464769
C26   C     C_3   0.952632 0.991746 0.532740 -0.513794
C27   C     C_3   0.592391 0.558784 0.622212 -0.464582
C28   C     C_3   0.452672 0.491890 0.532758 -0.513818
C29   C     C_3   0.124088 0.964434 0.539816 -0.508573
C30   C     C_3   0.624027 0.464307 0.539798 -0.508591
C31   C     C_3   0.042441 0.003772 0.452515 0.238418
C32   C     C_3   0.542554 0.503764 0.452597 0.238347
C33   C     C_3   0.056299 0.002563 0.634635 0.371483
C34   C     C_3   0.556380 0.502539 0.634701 0.371492
C35   C     C_R   0.809340 0.123667 0.907599 -0.138075
C36   C     C_R   0.809584 0.875924 0.907316 -0.139903
C37   C     C_R   0.309337 0.623663 0.907600 -0.138084
C38   C     C_R   0.309583 0.375925 0.907316 -0.139885
C39   C     C_3   0.121592 0.957733 0.640106 -0.428799
C40   C     C_3   0.621452 0.457594 0.640033 -0.428907
C41   C     C_3   0.650776 0.179330 0.896550 -0.403842
C42   C     C_3   0.651277 0.819517 0.893890 -0.404316
C43   C     C_3   0.150773 0.679325 0.896556 -0.403850
C44   C     C_3   0.151268 0.319525 0.893898 -0.404300
C45   C     C_3   0.096739 0.729368 0.896477 -0.407131
C46   C     C_3   0.096605 0.270029 0.894310 -0.407438
C47   C     C_3   0.596733 0.229365 0.896479 -0.407143
C48   C     C_3   0.596611 0.770025 0.894308 -0.407444
C49   C     C_3   0.301331 0.735706 0.000184 -0.395848
C50   C     C_3   0.302184 0.263601 0.002822 -0.398211
C51   C     C_3   0.801331 0.235714 0.000189 -0.395857
C52   C     C_3   0.802197 0.763597 0.002824 -0.398220
C53   C     C_3   0.754139 0.178948 0.102455 -0.406783
C54   C     C_3   0.751111 0.821845 0.099572 -0.407491
C55   C     C_3   0.254143 0.678947 0.102462 -0.406750
C56   C     C_3   0.251112 0.321851 0.099581 -0.407481
C57   C     C_3   0.754971 0.181114 0.999640 0.405256
C58   C     C_3   0.754667 0.818407 0.998777 0.404977
C59   C     C_3   0.254970 0.681108 0.999643 0.405259
C60   C     C_3   0.254660 0.318412 0.998781 0.404979
C61   C     C_3   0.163501 0.765319 0.999965 0.408828
C62   C     C_3   0.162380 0.234777 0.999347 0.407703
C63   C     C_3   0.663495 0.265319 0.999962 0.408848
C64   C     C_3   0.662390 0.734770 0.999340 0.407713
C65   C     C_3   0.247854 0.784916 0.000520 -0.397218
C66   C     C_3   0.247928 0.214710 0.002659 -0.395047
C67   C     C_3   0.747841 0.284921 0.000506 -0.397220
C68   C     C_3   0.747934 0.714704 0.002642 -0.395050
C69   C     C_3   0.200217 0.728961 0.102767 -0.407780
C70   C     C_3   0.197328 0.271944 0.100518 -0.404812
C71   C     C_3   0.700222 0.228963 0.102771 -0.407790
C72   C     C_3   0.697344 0.771933 0.100517 -0.404814
C73   C     C_3   0.477017 0.948315 0.358720 -0.403104
C74   C     C_3   0.476941 0.051639 0.358532 -0.403630
C75   C     C_3   0.977018 0.448315 0.358719 -0.403102
C76   C     C_3   0.976940 0.551639 0.358533 -0.403629
C77   C     C_R   0.745014 0.954205 0.695142 -0.151151
C78   C     C_R   0.744958 0.045827 0.695127 -0.150658
C79   C     C_R   0.245014 0.454204 0.695142 -0.151153
C80   C     C_R   0.244958 0.545827 0.695127 -0.150662
C81   C     C_3   0.581011 0.948210 0.459103 -0.406619
C82   C     C_3   0.580963 0.051739 0.458856 -0.407521
C83   C     C_3   0.081012 0.448210 0.459101 -0.406622
C84   C     C_3   0.080962 0.551740 0.458858 -0.407525
C85   C     C_3   0.433981 0.000020 0.470133 -0.396121
C86   C     C_3   0.933981 0.500018 0.470134 -0.396124
C87   C     C_3   0.426142 0.999988 0.361869 0.404740
C88   C     C_3   0.926142 0.499989 0.361869 0.404741
C89   C     C_3   0.601913 0.000011 0.530832 0.408621
C90   C     C_3   0.101913 0.500011 0.530832 0.408625
C91   C     C_3   0.536776 0.000066 0.568846 -0.396935
C92   C     C_3   0.036776 0.500064 0.568847 -0.396936
C93   C     C_R   0.040286 0.046748 0.298389 -0.195835
C94   C     C_R   0.034269 0.954880 0.297338 -0.130643
C95   C     C_R   0.540349 0.546744 0.298429 -0.195788
C96   C     C_R   0.534300 0.454879 0.297355 -0.130658
C97   C     C_R   0.812493 0.862446 0.999045 -0.005380
C98   C     C_R   0.812207 0.136778 0.999524 -0.009959
C99   C     C_R   0.312489 0.362450 0.999045 -0.005419
C100  C     C_R   0.312201 0.636770 0.999525 -0.009960
C101  C     C_R   0.698577 0.000022 0.631733 -0.008974
C102  C     C_R   0.198577 0.500022 0.631732 -0.008970
C103  C     C_R   0.039142 0.001894 0.352829 0.058246
C104  C     C_R   0.539237 0.501889 0.352893 0.058271
C105  C     C_R   0.268015 0.953823 0.246851 -0.139721
C106  C     C_R   0.267979 0.046163 0.246794 -0.139849
C107  C     C_R   0.768015 0.453823 0.246851 -0.139721
C108  C     C_R   0.767979 0.546163 0.246795 -0.139845
C109  C     C_R   0.023465 0.046821 0.757920 -0.139228
C110  C     C_R   0.025052 0.954663 0.757568 -0.143045
C111  C     C_R   0.523424 0.546820 0.757861 -0.139171
C112  C     C_R   0.525058 0.454660 0.757580 -0.143110
H1    H     H_    0.931715 0.865624 0.175636 0.083734
H2    H     H_    0.931334 0.132567 0.176287 0.098010
H3    H     H_    0.431701 0.365638 0.175637 0.083762
H4    H     H_    0.431323 0.632543 0.176293 0.097961
H5    H     H_    0.063094 0.095002 0.637106 0.162432
H6    H     H_    0.908220 0.027800 0.520983 0.162578
H7    H     H_    0.563818 0.594970 0.637661 0.162362
H8    H     H_    0.408425 0.528019 0.521078 0.162530
H9    H     H_    0.169844 0.061825 0.683993 0.145178
H10   H     H_    0.921026 0.955449 0.545251 0.150997
H11   H     H_    0.670278 0.561549 0.684234 0.145169
H12   H     H_    0.420884 0.455655 0.545169 0.151045
H13   H     H_    0.193622 0.981535 0.566589 0.173191
H14   H     H_    0.118630 0.922715 0.506323 0.163800
H15   H     H_    0.693639 0.481313 0.566657 0.173195
H16   H     H_    0.618418 0.422598 0.506194 0.163797
H17   H     H_    0.194155 0.961417 0.717211 0.161800
H18   H     H_    0.094670 0.915992 0.638662 0.156324
H19   H     H_    0.694020 0.461137 0.717174 0.161806
H20   H     H_    0.594293 0.415901 0.638393 0.156327
H21   H     H_    0.646160 0.180633 0.819752 0.142846
H22   H     H_    0.648566 0.816913 0.818392 0.144716
H23   H     H_    0.146150 0.680617 0.819754 0.142842
H24   H     H_    0.148552 0.316927 0.818396 0.144701
H25   H     H_    0.616535 0.140514 0.895717 0.153069
H26   H     H_    0.616248 0.858637 0.889987 0.153094
H27   H     H_    0.116528 0.640514 0.895737 0.153074
H28   H     H_    0.116240 0.358643 0.890007 0.153099
H29   H     H_    0.535285 0.215318 0.894710 0.151307
H30   H     H_    0.534491 0.784609 0.890658 0.151366
H31   H     H_    0.035279 0.715330 0.894692 0.151305
H32   H     H_    0.034477 0.284609 0.890646 0.151360
H33   H     H_    0.069076 0.753153 0.820144 0.143886
H34   H     H_    0.069959 0.245576 0.819013 0.145869
H35   H     H_    0.569050 0.253149 0.820140 0.143879
H36   H     H_    0.569952 0.745574 0.819006 0.145873
H37   H     H_    0.301988 0.738163 0.926662 0.152465
H38   H     H_    0.304982 0.260416 0.930873 0.153427
H39   H     H_    0.802004 0.238171 0.926678 0.152463
H40   H     H_    0.805009 0.760415 0.930886 0.153430
H41   H     H_    0.753260 0.131369 0.822577 0.087630
H42   H     H_    0.753625 0.868411 0.822209 0.088897
H43   H     H_    0.253258 0.631366 0.822579 0.087632
H44   H     H_    0.253625 0.368410 0.822209 0.088889
H45   H     H_    0.222802 0.810987 0.927193 0.153032
H46   H     H_    0.223978 0.188233 0.930191 0.154137
H47   H     H_    0.722778 0.310984 0.927167 0.153038
H48   H     H_    0.723979 0.688236 0.930163 0.154143
H49   H     H_    0.826715 0.180031 0.179623 0.151754
H50   H     H_    0.822942 0.821816 0.177928 0.141812
H51   H     H_    0.326722 0.680037 0.179628 0.151676
H52   H     H_    0.322946 0.321811 0.177934 0.141811
H53   H     H_    0.720496 0.140095 0.102674 0.155818
H54   H     H_    0.715719 0.860660 0.096356 0.159246
H55   H     H_    0.220510 0.640093 0.102694 0.155821
H56   H     H_    0.215738 0.360670 0.096382 0.159199
H57   H     H_    0.640153 0.214870 0.103712 0.151498
H58   H     H_    0.636412 0.786145 0.099664 0.151617
H59   H     H_    0.140140 0.714866 0.103691 0.151494
H60   H     H_    0.136392 0.286162 0.099650 0.151619
H61   H     H_    0.249246 0.752479 0.179527 0.145771
H62   H     H_    0.245896 0.248973 0.178236 0.144122
H63   H     H_    0.749262 0.252482 0.179527 0.145779
H64   H     H_    0.745924 0.748962 0.178231 0.144135
H65   H     H_    0.376054 0.737845 0.073889 0.154847
H66   H     H_    0.376226 0.261800 0.078022 0.152255
H67   H     H_    0.876048 0.237855 0.073904 0.154851
H68   H     H_    0.876233 0.761796 0.078034 0.152256
H69   H     H_    0.296739 0.810539 0.074523 0.154072
H70   H     H_    0.296023 0.189367 0.077463 0.152573
H71   H     H_    0.796720 0.310553 0.074497 0.154073
H72   H     H_    0.796026 0.689354 0.077436 0.152573
H73   H     H_    0.444065 0.909701 0.360686 0.144426
H74   H     H_    0.443964 0.090266 0.360436 0.143029
H75   H     H_    0.944066 0.409702 0.360684 0.144433
H76   H     H_    0.943963 0.590266 0.360437 0.143029
H77   H     H_    0.472565 0.948049 0.281816 0.152609
H78   H     H_    0.472427 0.051881 0.281589 0.152325
H79   H     H_    0.972565 0.448050 0.281814 0.152609
H80   H     H_    0.972427 0.551882 0.281590 0.152324
H81   H     H_    0.628019 0.947475 0.431867 0.150323
H82   H     H_    0.627920 0.052358 0.431546 0.149805
H83   H     H_    0.128020 0.447478 0.431865 0.150329
H84   H     H_    0.127919 0.552361 0.431548 0.149804
H85   H     H_    0.732466 0.911659 0.669408 0.083550
H86   H     H_    0.732299 0.088387 0.669386 0.082384
H87   H     H_    0.232465 0.411659 0.669408 0.083544
H88   H     H_    0.232299 0.588387 0.669385 0.082381
H89   H     H_    0.593820 0.909816 0.506190 0.145906
H90   H     H_    0.593819 0.090178 0.505783 0.143973
H91   H     H_    0.093822 0.409816 0.506188 0.145905
H92   H     H_    0.093818 0.590179 0.505786 0.143972
H93   H     H_    0.398465 0.963068 0.474358 0.153284
H94   H     H_    0.398326 0.036958 0.474187 0.152419
H95   H     H_    0.898465 0.463067 0.474357 0.153283
H96   H     H_    0.898326 0.536957 0.474188 0.152419
H97   H     H_    0.550657 0.963130 0.620338 0.153714
H98   H     H_    0.550552 0.037078 0.620067 0.153134
H99   H     H_    0.050658 0.463128 0.620337 0.153713
H100  H     H_    0.050552 0.537076 0.620069 0.153135
H101  H     H_    0.060991 0.088537 0.326856 0.110476
H102  H     H_    0.043631 0.912696 0.324624 0.075433
H103  H     H_    0.561104 0.588526 0.326914 0.110491
H104  H     H_    0.543650 0.412692 0.324617 0.075439
H105  H     H_    0.289102 0.911171 0.262251 0.088739
H106  H     H_    0.289005 0.088814 0.262108 0.087969
H107  H     H_    0.789102 0.411171 0.262250 0.088742
H108  H     H_    0.789005 0.588814 0.262109 0.087970
H109  H     H_    0.029926 0.089836 0.747116 0.090077
H110  H     H_    0.031576 0.912317 0.740974 0.089016
H111  H     H_    0.529736 0.589832 0.746872 0.090011
H112  H     H_    0.531598 0.412312 0.741014 0.089048
H113  H     H_    0.014113 0.834744 0.823763 0.082929
H114  H     H_    0.011500 0.166037 0.824133 0.083977
H115  H     H_    0.514104 0.334742 0.823763 0.082924
H116  H     H_    0.511525 0.666026 0.824123 0.083965
H117  H     H_    0.190222 0.165777 0.175980 0.082293
H118  H     H_    0.190407 0.834305 0.176055 0.083087
H119  H     H_    0.690224 0.665778 0.175975 0.082303
H120  H     H_    0.690402 0.334304 0.176055 0.083095
H121  H     H_    0.132330 0.077381 0.515302 0.119959
H122  H     H_    0.949402 0.935190 0.421584 0.126951
H123  H     H_    0.632725 0.577255 0.515550 0.119954
H124  H     H_    0.449249 0.435311 0.421513 0.127031
N1    N     N_R   0.950530 0.896220 0.057200 -0.034840
N2    N     N_R   0.950530 0.103780 0.057200 -0.034050
N3    N     N_R   0.450530 0.396220 0.057200 -0.034842
N4    N     N_R   0.450530 0.603780 0.057200 -0.034060
N5    N     N_R   0.893330 0.103780 0.942800 -0.035021
N6    N     N_R   0.893330 0.896220 0.942800 -0.035379
N7    N     N_R   0.393330 0.603780 0.942800 -0.035029
N8    N     N_R   0.393330 0.396220 0.942800 -0.035377
N9    N     N_R   0.818150 0.971400 0.792440 -0.031111
N10   N     N_R   0.818150 0.028600 0.792440 -0.031155
N11   N     N_R   0.318150 0.471400 0.792440 -0.031109
N12   N     N_R   0.318150 0.528600 0.792440 -0.031155
N13   N     N_R   0.025710 0.028600 0.207560 -0.034128
N14   N     N_R   0.025710 0.971400 0.207560 -0.034804
N15   N     N_R   0.525710 0.528600 0.207560 -0.034153
N16   N     N_R   0.525710 0.471400 0.207560 -0.034814
N17   N     N_R   0.181850 0.971400 0.207560 -0.036727
N18   N     N_R   0.181850 0.028600 0.207560 -0.036218
N19   N     N_R   0.681850 0.471400 0.207560 -0.036723
N20   N     N_R   0.681850 0.528600 0.207560 -0.036216
N21   N     N_R   0.974290 0.028600 0.792440 -0.037751
N22   N     N_R   0.974290 0.971400 0.792440 -0.037337
N23   N     N_R   0.474290 0.528600 0.792440 -0.037753
N24   N     N_R   0.474290 0.471400 0.792440 -0.037341
N25   N     N_R   0.049470 0.896220 0.942800 -0.031124
N26   N     N_R   0.049470 0.103780 0.942800 -0.031691
N27   N     N_R   0.549470 0.396220 0.942800 -0.031123
N28   N     N_R   0.549470 0.603780 0.942800 -0.031682
N29   N     N_R   0.106670 0.103780 0.057200 -0.030794
N30   N     N_R   0.106670 0.896220 0.057200 -0.031301
N31   N     N_R   0.606670 0.603780 0.057200 -0.030797
N32   N     N_R   0.606670 0.396220 0.057200 -0.031299
Ni1   Ni    Ni4+2 0.065600 0.934400 0.131190 0.204392
Ni2   Ni    Ni4+2 0.065600 0.065600 0.131190 0.203723
Ni3   Ni    Ni4+2 0.565600 0.434400 0.131190 0.204393
Ni4   Ni    Ni4+2 0.565600 0.565600 0.131190 0.203718
Ni5   Ni    Ni4+2 0.934400 0.065600 0.868810 0.205016
Ni6   Ni    Ni4+2 0.934400 0.934400 0.868810 0.205334
Ni7   Ni    Ni4+2 0.434400 0.565600 0.868810 0.205012
Ni8   Ni    Ni4+2 0.434400 0.434400 0.868810 0.205329
C113  C     C_3   0.989603 0.108759 0.439337 -0.337838
C114  C     C_3   0.031824 0.166731 0.465678 -1.002770
H125  H     H_    0.070062 0.175980 0.554384 0.266752
H126  H     H_    0.081306 0.170832 0.442517 0.256928
H127  H     H_    0.974400 0.197461 0.418209 0.256685
H128  H     H_    0.949394 0.103330 0.349714 0.186004
H129  H     H_    0.936688 0.107424 0.457696 0.191211
C115  C     C_3   0.850282 0.999658 0.325913 -0.377071
C116  C     C_3   0.823063 0.975672 0.216906 -0.912405
H130  H     H_    0.854325 0.000120 0.183473 0.280287
H131  H     H_    0.844762 0.931890 0.226413 0.250161
H132  H     H_    0.745248 0.977754 0.155591 0.240454
H133  H     H_    0.795633 0.984733 0.336079 0.191027
H134  H     H_    0.841671 0.044740 0.318452 0.184777
C117  C     C_3   0.490151 0.608827 0.439815 -0.337817
C118  C     C_3   0.532615 0.666736 0.466325 -1.002712
H135  H     H_    0.570957 0.675913 0.555071 0.266732
H136  H     H_    0.582055 0.670780 0.443090 0.256939
H137  H     H_    0.475316 0.697553 0.419016 0.256686
H138  H     H_    0.449873 0.603476 0.350171 0.185901
H139  H     H_    0.437272 0.607554 0.458232 0.191239
C119  C     C_3   0.350387 0.499895 0.325943 -0.377025
C120  C     C_3   0.323072 0.475876 0.216916 -0.912316
H140  H     H_    0.354405 0.500248 0.183481 0.280289
H141  H     H_    0.344624 0.432064 0.226389 0.250135
H142  H     H_    0.245264 0.478042 0.155612 0.240449
H143  H     H_    0.295672 0.485086 0.336092 0.191014
H144  H     H_    0.341972 0.544988 0.318526 0.184768

loop_
_geom_bond_atom_site_label_1
_geom_bond_atom_site_label_2
_ccdc_geom_bond_type
C55   C59   S    
C15   C109  A    
C77   C101  A    
C117  C118  S    
C105  N17   A    
C42   C58   S    
C42   C48   S    
N1    N6    A    
C46   C62   S    
C115  C116  S    
C50   H66   S    
C86   C88   S    
C62   C70   S    
N2    Ni2   S    
C17   C61   S    
C22   H122  S    
C19   C63   S    
C32   C104  S    
C79   C102  A    
C36   C97   A    
C51   C57   S    
C8    N28   A    
C76   H76   S    
C84   H92   S    
C66   H70   S    
C115  H134  S    
N9    N10   A    
C78   C101  A    
C5    N25   A    
C112  H112  S    
C1    H1    S    
C91   H98   S    
C73   C81   S    
C44   C46   S    
C49   H65   S    
C11   C20   A    
C94   H102  S    
C82   H90   S    
C14   C88   S    
C9    N29   A    
N29   Ni2   S    
C24   C32   S    
C21   C113  S    
N31   Ni4   S    
C90   C92   S    
C52   C58   S    
C107  H107  S    
C14   C107  A    
C63   C71   S    
C7    C19   A    
C96   C104  A    
C119  C120  S    
C53   C71   S    
C109  H109  S    
C56   H52   S    
C30   H15   S    
C68   H72   S    
C11   H119  S    
C89   C101  S    
N13   Ni2   S    
C13   C106  A    
C86   H95   S    
C26   H6    S    
C47   H29   S    
C96   H104  S    
C42   H22   S    
C118  H136  S    
C55   H51   S    
N25   N30   A    
C116  H131  S    
C22   C115  S    
C105  H105  S    
C2    H2    S    
C46   H34   S    
C7    H115  S    
C5    H113  S    
C83   H83   S    
C81   H81   S    
C61   C65   S    
C67   H47   S    
C78   H86   S    
C68   H48   S    
C25   H9    S    
C16   C111  A    
C72   H58   S    
C113  H128  S    
C29   H13   S    
N22   Ni6   S    
C93   C103  A    
C41   H21   S    
C8    H116  S    
C85   H93   S    
C21   C31   S    
N13   N14   A    
C82   C89   S    
C24   H124  S    
C64   C68   S    
C110  N22   A    
C23   C117  S    
N17   N18   A    
C10   H118  S    
N21   N22   A    
C90   C102  S    
C16   C34   S    
C7    N27   A    
C74   C87   S    
C89   C91   S    
C43   C59   S    
C23   H123  S    
C74   H78   S    
C113  C114  S    
C59   C100  S    
C29   C39   S    
C84   C90   S    
C51   H67   S    
C94   N14   A    
C47   H35   S    
C41   C57   S    
C62   C66   S    
C48   H30   S    
N12   Ni7   S    
C28   H8    S    
C18   C62   S    
C46   H32   S    
N25   Ni6   S    
C39   H17   S    
C1    N1    A    
C80   C102  A    
N9    Ni6   S    
C79   N11   A    
C75   H79   S    
C12   N32   A    
C76   H80   S    
C50   C66   S    
C26   C33   S    
C13   C87   S    
C71   H57   S    
C41   C47   S    
C107  N19   A    
C6    N26   A    
C51   C67   S    
C70   H62   S    
C55   C69   S    
C67   H71   S    
C40   H19   S    
C35   N5    A    
C92   H100  S    
N7    Ni7   S    
C21   C25   S    
C10   N30   A    
C24   C28   S    
N30   Ni1   S    
N15   Ni4   S    
C73   H73   S    
C28   H12   S    
N16   Ni3   S    
C49   C59   S    
C36   N6    A    
C112  N24   A    
C84   H84   S    
N28   N31   A    
C78   N10   A    
C119  H143  S    
C120  H142  S    
C28   C34   S    
N24   Ni8   S    
C3    C99   A    
C9    C18   A    
N8    Ni8   S    
C114  H125  S    
N14   Ni1   S    
C37   C100  A    
N23   N24   A    
C25   C33   S    
C44   H24   S    
C37   N7    A    
C42   H26   S    
C106  N18   A    
C55   H55   S    
C91   H97   S    
C76   C84   S    
N26   N29   A    
C36   H42   S    
N15   N16   A    
N2    N5    A    
C69   H61   S    
C74   C82   S    
C47   C63   S    
C48   C64   S    
C5    C17   A    
C69   H59   S    
N5    Ni5   S    
C70   H60   S    
C73   C87   S    
C21   H121  S    
N17   Ni1   S    
C114  H127  S    
C80   N12   A    
N23   Ni7   S    
C35   C98   A    
C41   H25   S    
C81   C89   S    
C14   C108  A    
C51   H39   S    
C44   H28   S    
C108  N20   A    
C15   C110  A    
C54   H54   S    
C111  N23   A    
N27   N32   A    
C30   H16   S    
C79   H87   S    
C93   H101  S    
C35   H41   S    
C13   C105  A    
C86   H96   S    
C53   C57   S    
N19   Ni3   S    
N4    N7    A    
C56   C60   S    
C120  H140  S    
C116  H130  S    
C52   H40   S    
C4    N4    A    
C33   C39   S    
C83   H91   S    
C106  H106  S    
C94   C103  A    
C45   H33   S    
C96   N16   A    
C95   N15   A    
C110  H110  S    
C16   C112  A    
N26   Ni5   S    
C4    H4    S    
N10   Ni5   S    
C75   H75   S    
C38   C99   A    
C81   H89   S    
N3    Ni3   S    
C65   H45   S    
C38   N8    A    
C23   C32   S    
C117  H138  S    
C50   C60   S    
C43   C45   S    
C3    H3    S    
C75   C83   S    
C44   C60   S    
C57   C98   S    
C6    H114  S    
C12   C19   A    
C45   C61   S    
C71   H63   S    
C72   H64   S    
C82   H82   S    
C108  H108  S    
C22   C26   S    
C45   H31   S    
C11   N31   A    
N1    Ni1   S    
C26   H10   S    
N11   Ni8   S    
C77   H85   S    
C73   H77   S    
C3    N3    A    
C74   H74   S    
C95   H103  S    
C37   H43   S    
C38   H44   S    
C60   C99   S    
C85   C91   S    
C65   H69   S    
N20   Ni4   S    
C8    C20   A    
C49   C65   S    
C34   C40   S    
C118  H135  S    
C116  H132  S    
C10   C17   A    
C80   H88   S    
C9    H117  S    
C43   H27   S    
N3    N8    A    
C23   C27   S    
C76   C88   S    
C52   C68   S    
C113  H129  S    
C29   H14   S    
C109  N21   A    
C58   C97   S    
C93   N13   A    
C85   H94   S    
C12   H120  S    
C85   C87   S    
C27   C34   S    
C6    C18   A    
C63   C67   S    
N28   Ni7   S    
C22   C31   S    
C53   H53   S    
N6    Ni6   S    
C1    C97   A    
C27   H11   S    
C2    N2    A    
C111  H111  S    
N18   Ni2   S    
C31   C103  S    
C20   C64   S    
C52   H68   S    
C24   C119  S    
C50   H38   S    
N32   Ni3   S    
C56   H56   S    
C30   C40   S    
C119  H144  S    
C54   H50   S    
C43   H23   S    
C120  H141  S    
C56   C70   S    
C4    C100  A    
C114  H126  S    
N19   N20   A    
C66   H46   S    
C95   C104  A    
C54   C58   S    
C61   C69   S    
C83   C90   S    
C118  H137  S    
C25   H5    S    
C115  H133  S    
N11   N12   A    
C39   H18   S    
C27   H7    S    
N21   Ni5   S    
C49   H37   S    
N4    Ni4   S    
C29   C31   S    
C86   C92   S    
C30   C32   S    
C53   H49   S    
C48   H36   S    
C77   N9    A    
C64   C72   S    
C40   H20   S    
C117  H139  S    
C75   C88   S    
C54   C72   S    
C2    C98   A    
N27   Ni8   S    
C92   H99   S    
C15   C33   S    
