data_mof_unit_56625.cif
_audit_creation_date              2012-12-11T21:09:53-0500
_audit_creation_method            fapswitch 2.2
_symmetry_space_group_name_H-M    P1
_symmetry_Int_Tables_number       1
_space_group_crystal_system       triclinic
_cell_length_a                    8.29786
_cell_length_b                    19.010522
_cell_length_c                    26.919176
_cell_angle_alpha                 99.864707
_cell_angle_beta                  92.320117
_cell_angle_gamma                 88.05765
_cell_volume                      4178.62951827

loop_
_atom_site_label
_atom_site_type_symbol
_atom_type_description
_atom_site_fract_x
_atom_site_fract_y
_atom_site_fract_z
_atom_type_partial_charge
Ba1   Ba    Ba6+2 0.160260 0.465850 0.521400 1.718396
Ba2   Ba    Ba6+2 0.649930 0.534160 0.478640 1.720745
C1    C     C_3   0.411829 0.258710 0.693565 -0.356575
C2    C     C_R   0.991626 0.727552 0.518538 0.062094
C3    C     C_R   0.132450 0.816969 0.462037 -0.159752
C4    C     C_3   0.971799 0.271400 0.628487 0.369213
C5    C     C_R   0.197873 0.747959 0.462990 0.029372
C6    C     C_R   0.661228 0.181490 0.534577 -0.137521
C7    C     C_R   0.602341 0.250319 0.531518 0.007329
C8    C     C_R   0.887635 0.200999 0.486260 -0.133560
C9    C     C_R   0.828703 0.271995 0.485010 0.017543
C10   C     C_R   0.018351 0.847927 0.498196 0.001687
C11   C     C_R   0.116926 0.701840 0.487343 -0.187782
C12   C     C_3   0.438312 0.287625 0.645320 0.334651
C13   C     C_R   0.813657 0.155609 0.516115 0.006062
C14   C     C_R   0.691007 0.296480 0.510182 -0.247196
C15   C     C_R   0.255147 0.963192 0.495748 -0.079180
C16   C     C_3   0.005295 0.203167 0.650020 -0.366488
C17   C     C_R   0.361933 0.013224 0.485709 -0.066626
C18   C     C_R   0.315104 0.084403 0.492842 0.017519
C19   C     C_R   0.163572 0.105067 0.511019 -0.070417
C20   C     C_R   0.042822 0.055721 0.510503 0.010744
C21   C     C_R   0.089567 0.981198 0.503413 0.058392
C22   C     C_R   0.883796 0.080414 0.523664 -0.018958
C23   C     C_3   0.483912 0.313325 0.399594 0.319103
C24   C     C_R   0.792854 0.029584 0.542890 0.042024
C25   C     C_R   0.819665 0.955171 0.525402 0.031845
C26   C     C_R   0.973179 0.928376 0.506791 0.003909
C27   C     C_R   0.687893 0.048787 0.583292 -0.085758
C28   C     C_3   0.838947 0.617361 0.630980 0.306337
C29   C     C_R   0.579413 0.000079 0.594815 -0.040738
C30   C     C_R   0.575943 0.931793 0.566426 -0.048617
C31   C     C_R   0.692816 0.910152 0.530746 -0.124588
C32   C     C_R   0.388622 0.480006 0.179966 0.605430
C33   C     C_R   0.132180 0.533637 0.164150 0.609905
C34   C     C_3   0.568939 0.243190 0.377592 0.314737
C35   C     C_2   0.087125 0.562435 0.275794 -0.107119
C36   C     C_3   0.065499 0.572474 0.332455 -0.096459
C37   C     C_1   0.278054 0.483616 0.335724 -0.017437
C38   C     C_2   0.324509 0.488988 0.290292 -0.076336
C39   C     C_2   0.210973 0.519978 0.253697 0.172223
C40   C     C_3   0.809140 0.634319 0.687182 -0.374965
C41   C     C_R   0.330076 0.515611 0.098247 -0.084920
C42   C     C_R   0.435933 0.484968 0.130971 -0.020735
C43   C     C_R   0.587948 0.459076 0.114154 -0.022729
C44   C     C_R   0.177302 0.540220 0.115030 -0.094969
C45   C     C_3   0.834904 0.724808 0.371780 0.369961
C46   C     C_2   0.142309 0.511724 0.354374 -0.218827
C47   C     C_2   0.635940 0.463170 0.631912 -0.237774
C48   C     C_R   0.571951 0.493814 0.981008 0.045136
C49   C     C_R   0.295511 0.534899 0.962025 0.043547
C50   C     C_R   0.451915 0.511301 0.945814 0.059171
C51   C     C_R   0.729125 0.475454 0.963761 -0.041160
C52   C     C_3   0.029473 0.279019 0.360096 0.675420
C53   C     C_R   0.764111 0.470908 0.913189 -0.041840
C54   C     C_R   0.644471 0.484321 0.877607 -0.021364
C55   C     C_R   0.487171 0.502984 0.893638 -0.075866
C56   C     C_3   0.816405 0.793618 0.349772 0.286621
C57   C     C_R   0.364276 0.511718 0.857461 -0.045785
C58   C     C_R   0.399625 0.500208 0.805764 0.589406
C59   C     C_R   0.679238 0.479184 0.826248 0.588051
C60   C     C_2   0.692640 0.422033 0.715551 -0.091933
C61   C     C_3   0.726081 0.411294 0.660007 -0.106102
C62   C     C_1   0.529692 0.510230 0.654406 -0.003093
C63   C     C_2   0.515257 0.523689 0.703926 -0.076822
C64   C     C_3   0.961296 0.204233 0.343976 -0.286186
C65   C     C_2   0.591797 0.475228 0.736845 0.223299
C66   C     C_R   0.529073 0.492255 0.031464 0.041121
C67   C     C_3   0.356603 0.694009 0.346073 0.321026
C68   C     C_R   0.374043 0.518359 0.047948 0.016653
C69   C     C_R   0.262260 0.546558 0.014501 -0.062109
C70   C     C_R   0.634109 0.463044 0.065723 -0.087780
C71   C     C_R   0.074872 0.574488 0.083418 -0.082785
C72   C     C_R   0.173840 0.539788 0.924647 -0.037635
C73   C     C_R   0.207233 0.529092 0.873583 -0.053810
C74   C     C_R   0.121016 0.583347 0.035480 0.382067
C75   C     C_3   0.271881 0.687792 0.646591 0.690133
C76   C     C_3   0.268609 0.685085 0.703356 0.268284
C77   C     C_3   0.967182 0.339494 0.291721 0.276706
C78   C     C_3   0.383877 0.713136 0.294514 -0.323255
C79   C     C_3   0.158368 0.732639 0.779369 0.233397
C80   C     C_3   0.858758 0.775224 0.263597 0.196187
C81   C     C_R   0.956778 0.801251 0.528536 -0.042606
H1    H     H_    0.409381 0.345981 0.652217 0.064092
H2    H     H_    0.288958 0.273542 0.707195 0.157601
H3    H     H_    0.392320 0.695429 0.720113 0.015116
H4    H     H_    0.231910 0.630720 0.707503 -0.023294
H5    H     H_    0.567824 0.278033 0.636918 -0.057722
H6    H     H_    0.500500 0.282022 0.723358 0.070602
H7    H     H_    0.577627 0.347773 0.420943 -0.064466
H8    H     H_    0.392038 0.303975 0.426320 0.044347
H9    H     H_    0.644964 0.223420 0.407116 -0.084486
H10   H     H_    0.645643 0.253479 0.347159 0.017377
H11   H     H_    0.428627 0.199669 0.686836 0.113600
H12   H     H_    0.692205 0.663926 0.693770 0.119201
H13   H     H_    0.940522 0.158524 0.626624 0.070740
H14   H     H_    0.770482 0.731840 0.407753 0.025891
H15   H     H_    0.965426 0.716093 0.380349 -0.096422
H16   H     H_    0.688859 0.802025 0.336822 0.044959
H17   H     H_    0.842559 0.838997 0.380648 0.014646
H18   H     H_    0.226605 0.703656 0.353762 -0.022375
H19   H     H_    0.389703 0.636591 0.344878 0.024916
H20   H     H_    0.304188 0.681310 0.265615 0.069650
H21   H     H_    0.511068 0.701372 0.284044 0.131303
H22   H     H_    0.022431 0.265143 0.590362 0.071002
H23   H     H_    0.808007 0.584292 0.703063 0.073107
H24   H     H_    0.355575 0.770771 0.295029 0.140413
H25   H     H_    0.882112 0.820799 0.560132 0.098622
H26   H     H_    0.180410 0.847535 0.435914 0.085668
H27   H     H_    0.579444 0.149349 0.549659 0.057533
H28   H     H_    0.989021 0.182351 0.463324 0.099740
H29   H     H_    0.158267 0.646768 0.484617 0.060008
H30   H     H_    0.644821 0.350222 0.509488 0.059131
H31   H     H_    0.307713 0.911723 0.498930 0.091666
H32   H     H_    0.484489 0.997457 0.475701 0.091670
H33   H     H_    0.399202 0.123542 0.486735 0.118625
H34   H     H_    0.906393 0.667366 0.707186 0.176367
H35   H     H_    0.838653 0.277621 0.624599 -0.088496
H36   H     H_    0.140789 0.159180 0.528343 0.116944
H37   H     H_    0.691914 0.100714 0.607063 0.063568
H38   H     H_    0.495329 0.015943 0.624665 0.098433
H39   H     H_    0.485605 0.895167 0.572971 0.152059
H40   H     H_    0.688153 0.857402 0.509092 0.114858
H41   H     H_    0.453001 0.493123 0.286826 0.151318
H42   H     H_    0.672945 0.435362 0.138559 0.139339
H43   H     H_    0.744734 0.383340 0.737317 0.107168
H44   H     H_    0.885168 0.454687 0.901702 0.094818
H45   H     H_    0.137208 0.272427 0.384267 0.102854
H46   H     H_    0.829119 0.465333 0.988608 0.053610
H47   H     H_    0.135448 0.188601 0.649724 0.147131
H48   H     H_    0.751351 0.440168 0.055740 0.068114
H49   H     H_    0.013268 0.597354 0.256102 0.139174
H50   H     H_    0.963081 0.599831 0.097689 0.169367
H51   H     H_    0.049810 0.549166 0.934176 0.138943
H52   H     H_    0.108723 0.534178 0.846673 0.165801
H53   H     H_    0.465571 0.574320 0.722006 0.037526
H54   H     H_    0.088353 0.492682 0.385582 0.073208
H55   H     H_    0.656153 0.458111 0.591890 0.078342
H56   H     H_    0.908140 0.185859 0.376426 0.034486
H57   H     H_    0.963123 0.210017 0.689229 0.120485
H58   H     H_    0.729042 0.594460 0.610809 0.015842
H59   H     H_    0.939505 0.577453 0.624732 0.065897
H60   H     H_    0.937702 0.393131 0.313526 0.054146
H61   H     H_    0.855999 0.308058 0.283286 0.031666
H62   H     H_    0.014668 0.347625 0.255252 0.066110
H63   H     H_    0.444547 0.763577 0.576093 0.356565
H64   H     H_    0.122290 0.679110 0.785752 0.033536
H65   H     H_    0.069117 0.772518 0.797707 0.097228
H66   H     H_    0.278607 0.746003 0.797710 0.053196
H67   H     H_    0.058483 0.165436 0.329914 0.192559
H68   H     H_    0.622317 0.109117 0.311373 0.329097
H69   H     H_    0.764885 0.815676 0.256181 0.052239
H70   H     H_    0.806853 0.721212 0.258174 0.064614
H71   H     H_    0.953047 0.773858 0.235362 0.090295
H72   H     H_    0.924615 0.759195 0.045210 0.377861
H73   H     H_    0.869180 0.202914 0.312962 0.077657
H74   H     H_    0.162490 0.664673 0.626713 -0.038359
N1    N     N_R   0.244029 0.511536 0.198950 -0.414935
N2    N     N_R   0.556682 0.485067 0.790415 -0.428880
O1    O     O_2   0.103290 0.325410 0.465600 -0.477392
O2    O     O_2   0.741761 0.528560 0.325373 -0.465599
O3    O     O_3   0.768180 0.667758 0.337633 -0.610453
O4    O     O_3   0.857760 0.414170 0.470020 -0.452512
O5    O     O_3   0.459840 0.537690 0.560170 -0.452122
O6    O     O_2   0.582520 0.462630 0.379680 -0.443477
O7    O     O_3   0.411118 0.344014 0.360043 -0.593077
O8    O     O_2   0.530158 0.757477 0.479320 -0.498291
O9    O     O_3   0.452486 0.736586 0.382782 -0.601892
O10   O     O_2   0.475504 0.445060 0.204693 -0.596318
O11   O     O_2   0.819241 0.470330 0.813572 -0.594646
O12   O     O_3   0.410673 0.652484 0.625199 -0.685813
O13   O     O_2   0.991058 0.544956 0.174731 -0.608694
O14   O     O_2   0.289791 0.502667 0.774402 -0.567203
O15   O     O_3   0.374170 0.371120 0.556000 -0.470775
O16   O     O_2   0.280466 0.248342 0.507630 -0.490182
O17   O     O_3   0.913301 0.327505 0.385339 -0.684287
O18   O     O_3   0.339345 0.252875 0.605507 -0.608405
O19   O     O_2   0.227790 0.537410 0.620340 -0.499829
O20   O     O_3   0.969630 0.407570 0.582610 -0.486912
O21   O     O_2   0.041039 0.471311 0.676217 -0.434939
O22   O     O_3   0.088074 0.304110 0.317555 -0.620786
O23   O     O_3   0.042324 0.329891 0.660413 -0.575416
O24   O     O_2   0.112714 0.813574 0.644237 -0.246248
O25   O     O_2   0.397163 0.819292 0.672460 -0.275097
O26   O     O_3   0.329678 0.779473 0.577017 -0.563478
O27   O     O_3   0.157259 0.736336 0.727469 -0.602424
O28   O     O_2   0.319113 0.162734 0.391285 -0.330962
O29   O     O_2   0.344866 0.192480 0.306511 -0.256585
O30   O     O_3   0.543474 0.097614 0.335259 -0.473571
O31   O     O_3   0.930897 0.794000 0.312205 -0.644542
O32   O     O_2   0.126858 0.684366 0.975592 -0.272176
O33   O     O_2   0.864826 0.632566 0.985885 -0.313338
O34   O     O_2   0.707020 0.674640 0.534420 -0.453212
O35   O     O_3   0.985091 0.721862 0.060393 -0.501956
O36   O     O_3   0.952550 0.585840 0.530020 -0.506095
O37   O     O_3   0.436140 0.628890 0.444040 -0.466426
O38   O     O_3   0.878609 0.680202 0.614214 -0.589923
O39   O     O_3   0.350480 0.462320 0.439870 -0.477877
O40   O     O_3   0.840680 0.592440 0.417430 -0.481705
P1    P     P_3+3 0.926760 0.336170 0.451740 0.962306
P2    P     P_3+3 0.399470 0.558680 0.614150 0.962119
P3    P     P_3+3 0.945888 0.407811 0.646548 1.000108
P4    P     P_3+3 0.883550 0.663840 0.548300 1.021449
P5    P     P_3+3 0.852674 0.588131 0.352259 0.986266
P6    P     P_3+3 0.399322 0.279513 0.550238 0.932206
P7    P     P_3+3 0.402959 0.437126 0.377156 1.008472
P8    P     P_3+3 0.402332 0.719295 0.441902 0.963410
S1    S     S_3+6 0.276755 0.778390 0.636396 -0.035521
S2    S     S_3+6 0.435347 0.173741 0.352134 -0.069660
S3    S     S_3+6 0.022828 0.655961 0.011691 -0.080017

loop_
_geom_bond_atom_site_label_1
_geom_bond_atom_site_label_2
_ccdc_geom_bond_type
C76   H4    S    
C53   C54   A    
C47   C61   S    
C61   P3    S    
C57   C73   A    
O39   P7    S    
C16   H13   S    
H63   O26   S    
C58   O14   D    
C17   C18   A    
C49   C72   A    
C12   H1    S    
C62   P2    S    
Ba1   P2    S    
C14   H30   S    
C77   H62   S    
C75   C76   S    
C25   C31   A    
C78   H24   S    
C24   C25   A    
C35   C36   S    
C45   H15   S    
C46   H54   S    
C4    O23   S    
Ba1   O36   S    
C7    C14   A    
C22   C24   A    
C64   H67   S    
C11   H29   S    
O21   P3    D    
C8    C13   A    
C59   N2    Am   
C69   C74   A    
C73   H52   S    
C55   C57   A    
C1    H2    S    
C18   H33   S    
C37   P7    S    
C72   H51   S    
C81   H25   S    
Ba2   O36   S    
O29   S2    D    
C52   O17   S    
C2    C11   A    
C9    P1    S    
O2    P5    D    
O23   P3    S    
C45   O3    S    
C34   H10   S    
C77   H60   S    
C64   H56   S    
Ba1   O39   S    
Ba1   O5    S    
C43   H42   S    
C6    C7    A    
C63   C65   S    
Ba1   O19   S    
C56   O31   S    
O15   P6    S    
C48   C50   A    
C58   N2    Am   
C68   C69   A    
C76   O27   S    
O6    P7    D    
C36   C46   S    
C75   O12   S    
C34   S2    S    
C52   O22   S    
C34   H9    S    
C57   C58   A    
C47   C62   D    
C36   P5    S    
C47   H55   S    
C80   O31   S    
C43   C70   A    
O24   S1    D    
C80   H70   S    
O26   S1    S    
C49   C69   A    
O17   P1    S    
C38   H41   S    
C15   H31   S    
C51   C53   A    
C4    C16   S    
C27   H37   S    
Ba1   O15   S    
C23   H8    S    
C48   C51   A    
C72   C73   A    
Ba2   P4    S    
C78   H20   S    
C40   H12   S    
C12   O18   S    
O28   S2    D    
C56   H17   S    
C29   H38   S    
C3    C10   A    
O1    P1    D    
C50   C55   A    
C75   S1    S    
Ba2   O5    S    
C37   C38   D    
C60   H43   S    
C2    P4    S    
O32   S3    D    
C79   H64   S    
C67   H19   S    
C52   H45   S    
O25   S1    D    
C49   C50   A    
C10   C81   A    
O3    P5    S    
O8    P8    D    
H68   O30   S    
O12   P2    S    
C41   C42   A    
C60   C61   S    
C30   H39   S    
O35   S3    S    
C40   H23   S    
C9    C14   A    
C29   C30   A    
O20   P3    S    
C17   H32   S    
C66   C70   A    
C79   H65   S    
C23   H7    S    
O9    P8    S    
C32   C42   A    
C8    H28   S    
C54   C59   A    
C15   C21   A    
C21   C26   A    
C16   H57   S    
C28   H58   S    
Ba2   O6    S    
O33   S3    D    
C1    C12   S    
C33   O13   D    
C60   C65   D    
C5    P8    S    
C13   C22   S    
C78   H21   S    
O4    P1    S    
C41   C68   A    
C8    C9    A    
O30   S2    S    
O40   P5    S    
C71   C74   A    
C20   C22   A    
C16   H47   S    
Ba1   P1    S    
C51   H46   S    
C54   C55   A    
O16   P6    D    
C32   N1    Am   
C79   O27   S    
C42   C43   A    
C70   H48   S    
C3    C5    A    
C74   S3    S    
C38   C39   S    
Ba2   O39   S    
Ba1   O1    S    
C56   H16   S    
C71   H50   S    
C32   O10   D    
C28   H59   S    
Ba2   O4    S    
C53   H44   S    
C35   H49   S    
C40   H34   S    
C52   C64   S    
C67   H18   S    
C23   O7    S    
C6    C13   A    
O34   P4    D    
C77   H61   S    
C45   H14   S    
C1    H6    S    
Ba2   O34   S    
C62   C63   D    
O37   P8    S    
C67   O9    S    
C12   H5    S    
C19   H36   S    
H72   O35   S    
C7    P6    S    
C30   C31   A    
C45   C56   S    
C64   H73   S    
Ba1   O20   S    
C76   H3    S    
C2    C81   A    
C3    H26   S    
Ba2   O40   S    
C79   H66   S    
Ba1   Ba2   S    
C15   C17   A    
C4    H22   S    
O18   P6    S    
O38   P4    S    
C1    H11   S    
Ba2   O37   S    
C35   C39   D    
C41   C44   A    
C33   N1    Am   
C63   H53   S    
O5    P2    S    
C23   C34   S    
C39   N1    S    
C80   H71   S    
C77   O22   S    
C5    C11   A    
C28   O38   S    
O36   P4    S    
C18   C19   A    
Ba1   O4    S    
C24   C27   A    
C27   C29   A    
O19   P2    D    
C6    H27   S    
C25   C26   A    
C31   H40   S    
C66   C68   A    
C20   C21   A    
C28   C40   S    
C67   C78   S    
C65   N2    S    
C59   O11   D    
O7    P7    S    
C10   C26   S    
C19   C20   A    
C33   C44   A    
C48   C66   A    
C4    H35   S    
C44   C71   A    
C80   H69   S    
C75   H74   S    
C37   C46   D    
