data_mof_unit_48195.cif
_audit_creation_date              2012-10-26T20:22:33-0400
_audit_creation_method            fapswitch 2.2
_symmetry_space_group_name_H-M    P1
_symmetry_Int_Tables_number       1
_space_group_crystal_system       triclinic
_cell_length_a                    9.581644
_cell_length_b                    10.791635
_cell_length_c                    17.445455
_cell_angle_alpha                 91.978546
_cell_angle_beta                  87.042598
_cell_angle_gamma                 90.335491
_cell_volume                      1800.39656825

loop_
_atom_site_label
_atom_site_type_symbol
_atom_type_description
_atom_site_fract_x
_atom_site_fract_y
_atom_site_fract_z
_atom_type_partial_charge
C1    C     C_R   0.500194 0.737519 0.498890 0.575326
C2    C     C_R   0.077557 0.419254 0.452818 0.299711
C3    C     C_R   0.071908 0.581310 0.547082 0.367805
C4    C     C_R   0.928299 0.417021 0.454059 0.354255
C5    C     C_R   0.483304 0.497841 0.649717 0.564593
C6    C     C_R   0.516762 0.498977 0.350193 0.567096
C7    C     C_R   0.477609 0.492631 0.733905 0.035649
C8    C     C_R   0.522341 0.491488 0.265798 0.031096
C9    C     C_R   0.600259 0.504586 0.775526 0.286629
C10   C     C_R   0.398390 0.492415 0.225061 0.286075
C11   C     C_R   0.589125 0.507326 0.855613 -0.086942
C12   C     C_R   0.499565 0.262608 0.501473 0.571586
C13   C     C_R   0.406667 0.472007 0.145685 -0.084586
C14   C     C_R   0.459356 0.490777 0.894454 0.002073
C15   C     C_R   0.536488 0.463084 0.105248 0.000260
C16   C     C_R   0.339245 0.473974 0.853261 -0.128592
C17   C     C_R   0.659088 0.465508 0.145388 -0.128585
C18   C     C_R   0.348483 0.473508 0.773569 -0.182552
C19   C     C_R   0.652191 0.478768 0.225110 -0.163200
C20   C     C_2   0.446286 0.495671 0.978251 -0.125104
C21   C     C_2   0.546492 0.452462 0.021070 -0.122291
C22   C     C_3   0.815435 0.418907 0.749181 -0.079259
C23   C     C_R   0.585990 0.937276 0.547772 -0.114527
C24   C     C_3   0.202924 0.612870 0.242731 -0.059560
C25   C     C_3   0.123410 0.660277 0.667349 -0.043289
C26   C     C_3   0.870155 0.213970 0.425085 -0.037281
C27   C     C_R   0.411543 0.063226 0.453742 -0.121524
C28   C     C_R   0.585793 0.065751 0.550525 0.194389
C29   C     C_R   0.411154 0.934718 0.451308 0.222612
C30   C     C_R   0.498961 0.128866 0.502555 -0.022822
C31   C     C_R   0.499673 0.871469 0.498422 -0.006146
C32   C     C_R   0.922743 0.581765 0.546530 0.303153
Cl1   Cl    Cl    0.689050 0.143374 0.617968 -0.635172
Cl2   Cl    Cl    0.303106 0.857384 0.386138 -0.598257
Cl3   Cl    Cl    0.829971 0.692497 0.604623 -0.541567
Cl4   Cl    Cl    0.171539 0.321585 0.386294 -0.539492
Cu1   Cu    Cu3+1 0.359340 0.499980 0.500000 1.124301
Cu2   Cu    Cu3+1 0.640660 0.500020 0.500000 1.116363
H1    H     H_    0.748683 0.478440 0.254832 0.171537
H2    H     H_    0.345712 0.111890 0.416253 0.206918
H3    H     H_    0.758384 0.329013 0.743564 0.172260
H4    H     H_    0.863094 0.427337 0.805851 0.089713
H5    H     H_    0.901335 0.417125 0.704105 0.145499
H6    H     H_    0.158517 0.601004 0.185349 0.088288
H7    H     H_    0.275055 0.694205 0.243897 0.157528
H8    H     H_    0.114890 0.633129 0.285047 0.182847
H9    H     H_    0.225281 0.675897 0.693542 0.132704
H10   H     H_    0.082892 0.567910 0.684628 0.080614
H11   H     H_    0.052740 0.733884 0.692156 0.187740
H12   H     H_    0.254313 0.457608 0.743113 0.122189
H13   H     H_    0.771767 0.164791 0.412108 0.143191
H14   H     H_    0.887302 0.202806 0.487210 0.156767
H15   H     H_    0.953974 0.166216 0.389510 0.179923
H16   H     H_    0.640903 0.412192 0.993743 0.120965
H17   H     H_    0.351573 0.536718 0.004358 0.116484
H18   H     H_    0.238305 0.460669 0.882846 0.117929
H19   H     H_    0.760297 0.457471 0.114981 0.122843
H20   H     H_    0.310322 0.461550 0.116490 0.113834
H21   H     H_    0.681916 0.525501 0.887103 0.112437
H22   H     H_    0.650523 0.888922 0.585915 0.219088
N1    N     N_R   0.147930 0.499970 0.499980 -0.262456
N2    N     N_R   0.852070 0.500030 0.500020 -0.261889
O1    O     O_R   0.381260 0.680340 0.500000 -0.413008
O2    O     O_3   0.268536 0.503020 0.263373 -0.496762
O3    O     O_3   0.142769 0.673032 0.587124 -0.495200
O4    O     O_3   0.858665 0.338918 0.404002 -0.523914
O5    O     O_R   0.618740 0.319660 0.500000 -0.459755
O6    O     O_R   0.618830 0.680370 0.500010 -0.477600
O7    O     O_R   0.381170 0.319630 0.499990 -0.483170
O8    O     O_R   0.367440 0.500000 0.613600 -0.531127
O9    O     O_R   0.632560 0.500000 0.386400 -0.495984
O10   O     O_R   0.605010 0.500030 0.613600 -0.408677
O11   O     O_R   0.394990 0.499970 0.386400 -0.400493
O12   O     O_3   0.729519 0.522011 0.738193 -0.513486

loop_
_geom_bond_atom_site_label_1
_geom_bond_atom_site_label_2
_ccdc_geom_bond_type
C26   H13   S    
C2    C4    A    
C12   O7    A    
C16   H18   S    
C12   O5    A    
C5    O8    A    
C26   H14   S    
C27   C29   A    
C5    C7    S    
Cu1   O7    S    
C25   H9    S    
C21   H16   S    
Cu1   N1    S    
C22   H5    S    
C2    N1    A    
C1    C31   S    
C27   H2    S    
C7    C18   A    
C24   H8    S    
C7    C9    A    
C28   C30   A    
C32   N2    A    
C29   C31   A    
Cu2   O10   S    
C22   H4    S    
Cu1   O8    S    
C20   C21   D    
C27   C30   A    
C4    O4    S    
C23   H22   S    
C9    C11   A    
C25   H10   S    
C4    N2    A    
C3    O3    S    
C19   H1    S    
C20   H17   S    
C11   H21   S    
C24   H7    S    
C1    O1    A    
C8    C10   A    
Cu1   O1    S    
Cu1   Cu2   S    
Cu2   O6    S    
C28   Cl1   S    
C24   O2    S    
C5    O10   A    
C25   H11   S    
C3    N1    A    
C13   C15   A    
C3    C32   A    
C24   H6    S    
C11   C14   A    
C14   C16   A    
C22   H3    S    
C9    O12   S    
C22   O12   S    
C23   C31   A    
C8    C19   A    
C26   H15   S    
C14   C20   S    
C15   C21   S    
C1    O6    A    
C25   O3    S    
Cu2   O5    S    
C18   H12   S    
C6    O11   A    
C16   C18   A    
C2    Cl4   S    
C15   C17   A    
Cu1   O11   S    
Cu2   O9    S    
C6    C8    S    
C13   H20   S    
C17   C19   A    
C23   C28   A    
C12   C30   S    
C29   Cl2   S    
C10   O2    S    
C32   Cl3   S    
C17   H19   S    
C6    O9    A    
Cu2   N2    S    
C10   C13   A    
C26   O4    S    
