data_mof_unit_23770.cif
_audit_creation_date              2012-12-11T15:24:35-0500
_audit_creation_method            fapswitch 2.2
_symmetry_space_group_name_H-M    P1
_symmetry_Int_Tables_number       1
_space_group_crystal_system       triclinic
_cell_length_a                    22.954838
_cell_length_b                    6.944772
_cell_length_c                    20.661153
_cell_angle_alpha                 89.994598
_cell_angle_beta                  93.224239
_cell_angle_gamma                 90.000477
_cell_volume                      3288.50698908

loop_
_atom_site_label
_atom_site_type_symbol
_atom_type_description
_atom_site_fract_x
_atom_site_fract_y
_atom_site_fract_z
_atom_type_partial_charge
O1    O     O_R   0.188030 0.379840 0.189340 -0.545452
O2    O     O_R   0.811970 0.620160 0.810660 -0.545453
O3    O     O_R   0.311970 0.879840 0.310660 -0.545454
O4    O     O_R   0.688030 0.120160 0.689340 -0.545455
O5    O     O_R   0.307090 0.708420 0.185790 -0.534166
O6    O     O_R   0.692910 0.291580 0.814210 -0.534162
O7    O     O_R   0.192910 0.208420 0.314210 -0.534154
O8    O     O_R   0.807090 0.791580 0.685790 -0.534160
C1    C     C_R   0.326703 0.540782 0.170693 0.749370
C2    C     C_R   0.673295 0.459218 0.829305 0.749344
C3    C     C_R   0.173295 0.040771 0.329304 0.749391
C4    C     C_R   0.826703 0.959228 0.670694 0.749389
O9    O     O_R   0.188180 0.709480 0.181650 -0.518398
O10   O     O_R   0.811820 0.290520 0.818350 -0.518382
O11   O     O_R   0.311820 0.209480 0.318350 -0.518407
O12   O     O_R   0.688180 0.790520 0.681650 -0.518417
O13   O     O_R   0.192210 0.880960 0.306500 -0.542656
O14   O     O_R   0.807790 0.119040 0.693500 -0.542660
O15   O     O_R   0.307790 0.380960 0.193500 -0.542662
O16   O     O_R   0.692210 0.619040 0.806500 -0.542656
C5    C     C_R   0.168797 0.540407 0.164388 0.775784
C6    C     C_R   0.831202 0.459593 0.835615 0.775766
C7    C     C_R   0.331201 0.040397 0.335614 0.775801
C8    C     C_R   0.668801 0.959604 0.664383 0.775802
O17   O     O_3   0.251460 0.546730 0.290970 -0.364248
O18   O     O_3   0.748540 0.453270 0.709030 -0.364257
O19   O     O_3   0.248540 0.046730 0.209030 -0.364251
O20   O     O_3   0.751460 0.953270 0.790970 -0.364236
V1    V     V_3+5 0.249730 0.821120 0.242400 1.499547
V2    V     V_3+5 0.750270 0.178880 0.757600 1.499566
V3    V     V_3+5 0.250270 0.321120 0.257600 1.499527
V4    V     V_3+5 0.749730 0.678880 0.742400 1.499519
C9    C     C_R   0.569207 0.061270 0.629445 -0.271227
C10   C     C_R   0.430797 0.938721 0.370549 -0.271225
C11   C     C_R   0.930784 0.561381 0.870562 -0.271155
C12   C     C_R   0.069209 0.438645 0.129448 -0.271166
C13   C     C_R   0.620759 0.970890 0.613704 -0.127318
C14   C     C_R   0.379245 0.029110 0.386290 -0.127316
C15   C     C_R   0.879248 0.470863 0.886292 -0.127333
C16   C     C_R   0.120751 0.529140 0.113713 -0.127360
C17   C     C_R   0.625783 0.892937 0.551042 0.319308
C18   C     C_R   0.374223 0.107065 0.448952 0.319299
C19   C     C_R   0.874240 0.392795 0.948944 0.319303
C20   C     C_R   0.125764 0.607196 0.051057 0.319293
C21   C     C_R   0.578539 0.912724 0.503024 -0.004702
C22   C     C_R   0.421465 0.087259 0.496970 -0.004716
C23   C     C_R   0.921473 0.412641 0.996969 -0.004705
C24   C     C_R   0.078525 0.587387 0.003038 -0.004718
C25   C     C_R   0.524939 0.994984 0.522011 0.008845
C26   C     C_R   0.475065 0.004995 0.477983 0.008854
C27   C     C_R   0.975062 0.495005 0.977989 0.008847
C28   C     C_R   0.024934 0.505026 0.022019 0.008842
C29   C     C_R   0.521077 0.068603 0.585118 0.111037
C30   C     C_R   0.478926 0.931379 0.414876 0.111042
C31   C     C_R   0.978915 0.568723 0.914888 0.111036
C32   C     C_R   0.021079 0.431312 0.085121 0.111037
C33   C     C_R   0.581591 0.852124 0.437232 0.000658
C34   C     C_R   0.418413 0.147848 0.562762 0.000672
C35   C     C_R   0.918419 0.352006 0.062762 0.000734
C36   C     C_R   0.081574 0.648062 0.937249 0.000704
C37   C     C_R   0.531516 0.856403 0.395380 -0.231250
C38   C     C_R   0.468488 0.143576 0.604614 -0.231244
C39   C     C_R   0.968493 0.356265 0.104615 -0.231221
C40   C     C_R   0.031498 0.643799 0.895397 -0.231221
H1    H     H_    0.565866 0.119413 0.677860 0.118996
H2    H     H_    0.434137 0.880579 0.322134 0.118991
H3    H     H_    0.934115 0.619618 0.822155 0.119006
H4    H     H_    0.065875 0.380419 0.177858 0.118999
H5    H     H_    0.534418 0.808376 0.345646 0.116842
H6    H     H_    0.465585 0.191603 0.654348 0.116836
H7    H     H_    0.965592 0.308195 0.154350 0.116826
H8    H     H_    0.034397 0.691898 0.845666 0.116832
C41   C     C_3   0.037066 0.135714 0.522208 0.051968
C42   C     C_3   0.962924 0.864252 0.477780 0.051960
C43   C     C_3   0.462922 0.635718 0.977766 0.051946
C44   C     C_3   0.537068 0.364278 0.022222 0.051955
C45   C     C_3   0.021506 0.951664 0.559694 -0.166956
C46   C     C_3   0.978484 0.048302 0.440293 -0.166946
C47   C     C_3   0.478479 0.451642 0.940301 -0.167006
C48   C     C_3   0.521511 0.548353 0.059687 -0.167019
H9    H     H_    0.039360 0.912301 0.608959 0.121051
H10   H     H_    0.960630 0.087665 0.391029 0.121050
H11   H     H_    0.460619 0.412224 0.891045 0.121091
H12   H     H_    0.539371 0.587766 0.108944 0.121089
H13   H     H_    0.051304 0.690938 0.494513 0.141838
H14   H     H_    0.948688 0.309028 0.505477 0.141821
H15   H     H_    0.448693 0.190953 0.005524 0.141782
H16   H     H_    0.551297 0.809044 0.994466 0.141799
C49   C     C_1   0.871895 0.968559 0.624706 -0.180015
C50   C     C_1   0.128100 0.031437 0.375287 -0.180019
C51   C     C_1   0.628099 0.468528 0.875287 -0.180061
C52   C     C_1   0.371896 0.531468 0.124707 -0.180050
C53   C     C_3   0.971770 0.169196 0.502885 -0.166302
C54   C     C_3   0.028221 0.830770 0.497103 -0.166312
C55   C     C_3   0.528219 0.669208 0.997078 -0.166269
C56   C     C_3   0.471771 0.330788 0.002911 -0.166259
C57   C     C_3   0.956443 0.984250 0.539708 0.108588
C58   C     C_3   0.043547 0.015717 0.460280 0.108590
C59   C     C_3   0.543543 0.484237 0.960276 0.108602
C60   C     C_3   0.456448 0.515758 0.039713 0.108603
C61   C     C_1   0.909921 0.975823 0.586331 -0.071854
C62   C     C_1   0.090071 0.024161 0.413659 -0.071848
C63   C     C_1   0.590069 0.475795 0.913658 -0.071849
C64   C     C_1   0.409924 0.524198 0.086333 -0.071857
Cl1   Cl    Cl    0.690458 0.762949 0.537209 -0.692580
Cl2   Cl    Cl    0.309550 0.237088 0.462783 -0.692609
Cl3   Cl    Cl    0.809613 0.262557 0.962758 -0.692513
Cl4   Cl    Cl    0.190418 0.737327 0.037232 -0.692436
C65   C     C_R   0.636448 0.805332 0.406387 0.170374
C66   C     C_R   0.646612 0.617860 0.384036 -0.084838
C67   C     C_R   0.696908 0.577319 0.351309 -0.133502
C68   C     C_R   0.736851 0.723857 0.339981 -0.088355
C69   C     C_R   0.726792 0.910909 0.361690 -0.103134
C70   C     C_R   0.676646 0.952103 0.394556 -0.081205
H17   H     H_    0.615610 0.503808 0.391925 0.107329
H18   H     H_    0.704773 0.432589 0.334406 0.099254
H19   H     H_    0.775551 0.692569 0.314270 0.113957
H20   H     H_    0.757639 0.024240 0.352638 0.096283
H21   H     H_    0.668887 0.098103 0.410410 0.106195
C71   C     C_R   0.363552 0.194592 0.593606 0.170391
C72   C     C_R   0.323349 0.047787 0.605402 -0.081215
C73   C     C_R   0.273198 0.088933 0.638267 -0.103098
C74   C     C_R   0.263139 0.275971 0.660011 -0.088397
C75   C     C_R   0.303087 0.422542 0.648719 -0.133596
C76   C     C_R   0.353388 0.382046 0.615993 -0.084861
H22   H     H_    0.331108 0.901799 0.589520 0.106219
H23   H     H_    0.242346 0.975574 0.647290 0.096283
H24   H     H_    0.224433 0.307225 0.685718 0.113968
H25   H     H_    0.295222 0.567262 0.665647 0.099262
H26   H     H_    0.384394 0.496123 0.608131 0.107313
C77   C     C_R   0.863554 0.305266 0.093602 0.170353
C78   C     C_R   0.853410 0.117885 0.116058 -0.084932
C79   C     C_R   0.803105 0.077406 0.148773 -0.133551
C80   C     C_R   0.763129 0.223920 0.159982 -0.088387
C81   C     C_R   0.773166 0.410884 0.138168 -0.103084
C82   C     C_R   0.823323 0.452014 0.105317 -0.081211
H27   H     H_    0.884436 0.003853 0.108260 0.107314
H28   H     H_    0.795257 0.932741 0.165756 0.099294
H29   H     H_    0.724421 0.192683 0.185683 0.113985
H30   H     H_    0.742294 0.524197 0.147127 0.096335
H31   H     H_    0.831064 0.597950 0.089380 0.106304
C83   C     C_R   0.136436 0.694842 0.906411 0.170295
C84   C     C_R   0.176649 0.548076 0.894633 -0.081212
C85   C     C_R   0.226819 0.589265 0.861803 -0.103050
C86   C     C_R   0.236887 0.776309 0.840077 -0.088274
C87   C     C_R   0.196927 0.922841 0.851347 -0.133365
C88   C     C_R   0.146608 0.882301 0.884037 -0.084817
H32   H     H_    0.168887 0.402084 0.910508 0.106225
H33   H     H_    0.257680 0.475938 0.852799 0.096287
H34   H     H_    0.275607 0.807593 0.814396 0.113985
H35   H     H_    0.204800 0.067568 0.834429 0.099230
H36   H     H_    0.115596 0.996352 0.891887 0.107307
C89   C     C_R   0.074849 0.292308 0.552999 0.069809
C90   C     C_R   0.057043 0.381957 0.609590 -0.139247
C91   C     C_R   0.090772 0.528167 0.639316 -0.131539
C92   C     C_R   0.142433 0.587003 0.612671 -0.122333
C93   C     C_R   0.160637 0.498679 0.556534 -0.088824
C94   C     C_R   0.127192 0.351530 0.526856 -0.121590
H37   H     H_    0.016917 0.338646 0.630657 0.110717
H38   H     H_    0.076720 0.596396 0.682886 0.106966
H39   H     H_    0.168450 0.700406 0.635651 0.104711
H40   H     H_    0.200849 0.543782 0.536110 0.157061
H41   H     H_    0.142610 0.285958 0.483789 0.145220
C95   C     C_R   0.925142 0.707642 0.446995 0.069829
C96   C     C_R   0.942918 0.618111 0.390373 -0.139239
C97   C     C_R   0.909199 0.471848 0.360664 -0.131566
C98   C     C_R   0.857576 0.412836 0.387357 -0.122311
C99   C     C_R   0.839399 0.501054 0.443522 -0.088778
C100  C     C_R   0.872835 0.648254 0.473185 -0.121600
H42   H     H_    0.983016 0.661551 0.369271 0.110713
H43   H     H_    0.923230 0.403706 0.317071 0.106985
H44   H     H_    0.831569 0.299378 0.364392 0.104724
H45   H     H_    0.799219 0.455807 0.463986 0.156986
H46   H     H_    0.857443 0.713714 0.516281 0.145187
C101  C     C_R   0.425145 0.792349 0.946976 0.069892
C102  C     C_R   0.442860 0.881620 0.890279 -0.139194
C103  C     C_R   0.409153 0.027933 0.860571 -0.131646
C104  C     C_R   0.357605 0.087250 0.887338 -0.122349
C105  C     C_R   0.339490 0.999302 0.943579 -0.088756
C106  C     C_R   0.372915 0.852063 0.973244 -0.121662
H47   H     H_    0.482901 0.837942 0.869118 0.110691
H48   H     H_    0.423136 0.095872 0.816921 0.107024
H49   H     H_    0.331607 0.200741 0.864373 0.104715
H50   H     H_    0.299371 0.044803 0.964106 0.156862
H51   H     H_    0.357583 0.786856 0.016411 0.145083
C107  C     C_R   0.574844 0.207659 0.053021 0.069895
C108  C     C_R   0.557082 0.118218 0.109682 -0.139202
C109  C     C_R   0.590796 0.971966 0.139413 -0.131600
C110  C     C_R   0.642400 0.912883 0.112706 -0.122284
C111  C     C_R   0.660560 0.000996 0.056497 -0.088798
C112  C     C_R   0.627127 0.148175 0.026809 -0.121671
H52   H     H_    0.517001 0.161726 0.130799 0.110687
H53   H     H_    0.576778 0.903900 0.183038 0.106974
H54   H     H_    0.668404 0.799451 0.135693 0.104694
H55   H     H_    0.700723 0.955683 0.036019 0.156941
H56   H     H_    0.642501 0.213538 0.983674 0.145114

loop_
_geom_bond_atom_site_label_1
_geom_bond_atom_site_label_2
_ccdc_geom_bond_type
C34   C38   A    
C59   C63   S    
O1    C5    A    
C111  C112  A    
O19   V1    S    
C9    C29   A    
O13   V1    S    
C42   C54   S    
O3    C7    A    
C67   C68   A    
C41   C53   S    
C48   H12   S    
O15   V3    S    
C10   H2    S    
C104  C105  A    
C43   C55   S    
C81   C82   A    
C44   C59   S    
O7    C3    A    
C21   C33   A    
O5    C1    A    
C96   C97   A    
C17   Cl1   S    
C47   C59   S    
C95   C96   A    
C84   C85   A    
C14   C18   A    
C24   C28   A    
C86   C87   A    
C68   H19   S    
O4    C8    A    
C55   C59   S    
C54   C58   S    
C46   C53   S    
C37   H5    S    
C103  H48   S    
C45   C54   S    
O1    V3    S    
C102  H47   S    
C38   H6    S    
O2    V4    S    
C18   C22   A    
C73   H23   S    
O3    V1    S    
C1    C52   S    
C66   C67   A    
C50   C62   T    
C12   C16   A    
C69   C70   A    
C36   C83   S    
C112  H56   S    
C110  H54   S    
C1    O15   A    
C60   C64   S    
C33   C65   S    
C2    O16   A    
C78   C79   A    
C46   C58   S    
C100  H46   S    
C45   C57   S    
C67   H18   S    
O14   V2    S    
C45   H9    S    
C87   H35   S    
C86   H34   S    
O11   C7    A    
H16   C55   S    
C79   H28   S    
O12   C8    A    
C48   C60   S    
C93   C94   A    
C95   C100  A    
C81   H30   S    
O10   V2    S    
C107  C112  A    
C76   H26   S    
O20   V4    S    
C68   C69   A    
C24   C36   A    
C42   C57   S    
O5    V1    S    
C20   Cl4   S    
C31   C40   A    
O17   V1    S    
C99   H45   S    
C92   H39   S    
C42   C95   S    
O7    V3    S    
C89   C94   A    
C9    H1    S    
C27   C28   A    
O8    V4    S    
C44   C48   S    
C4    C49   S    
C74   C75   A    
C8    C13   S    
C77   C82   A    
C109  H53   S    
C98   C99   A    
C71   C76   A    
C15   C19   A    
C78   H27   S    
C58   C62   S    
C11   C31   A    
C9    C13   A    
C105  C106  A    
C72   H22   S    
C109  C110  A    
C104  H49   S    
C11   C15   A    
O2    C6    A    
C82   H31   S    
C12   C32   A    
H14   C53   S    
H13   C54   S    
C46   H10   S    
C101  C102  A    
C11   H3    S    
O8    C4    A    
C35   C77   S    
H15   C56   S    
C34   C71   S    
C21   C25   A    
C108  H52   S    
C32   C39   A    
O9    C5    A    
C19   Cl3   S    
C48   C55   S    
O11   V3    S    
C18   Cl2   S    
C90   C91   A    
C72   C73   A    
C101  C106  A    
C97   H43   S    
C65   C70   A    
C103  C104  A    
C111  H55   S    
C99   C100  A    
O6    V2    S    
C39   H7    S    
C2    C51   S    
C10   C30   A    
C23   C35   A    
O19   V3    S    
C97   C98   A    
C4    O14   A    
C77   C78   A    
C53   C57   S    
C80   H29   S    
C44   C107  S    
C71   C72   A    
O17   V3    S    
C87   C88   A    
O16   V4    S    
O9    V1    S    
C96   H42   S    
C43   C101  S    
C66   H17   S    
C92   C93   A    
C17   C21   A    
C85   H33   S    
C49   C61   T    
C91   H38   S    
C10   C14   A    
C83   C88   A    
C94   H41   S    
C70   H21   S    
C51   C63   T    
C85   C86   A    
C3    O13   A    
O6    C2    A    
C23   C27   A    
C12   H4    S    
C33   C37   A    
C98   H44   S    
O18   V4    S    
C30   C37   A    
C47   C56   S    
O12   V4    S    
C7    C14   S    
C22   C26   A    
C80   C81   A    
C35   C39   A    
C36   C40   A    
O10   C6    A    
C84   H32   S    
C88   H36   S    
C73   C74   A    
C90   H37   S    
C26   C30   A    
C65   C66   A    
C44   C56   S    
C47   H11   S    
C3    C50   S    
C74   H24   S    
C79   C80   A    
C5    C16   S    
C43   C47   S    
C25   C29   A    
C6    C15   S    
C56   C60   S    
O20   V2    S    
C43   C60   S    
C75   H25   S    
C27   C31   A    
C40   H8    S    
C13   C17   A    
C110  C111  A    
C57   C61   S    
C41   C58   S    
C106  H51   S    
C52   C64   T    
C102  C103  A    
C69   H20   S    
C105  H50   S    
C28   C32   A    
C16   C20   A    
C29   C38   A    
C25   C26   A    
C42   C46   S    
C22   C34   A    
C41   C89   S    
C91   C92   A    
C41   C45   S    
C83   C84   A    
C108  C109  A    
C107  C108  A    
C19   C23   A    
C93   H40   S    
O4    V2    S    
C20   C24   A    
C75   C76   A    
C89   C90   A    
O18   V2    S    
