data_mof_unit_54168.cif
_audit_creation_date              2012-10-26T20:40:08-0400
_audit_creation_method            fapswitch 2.2
_symmetry_space_group_name_H-M    P1
_symmetry_Int_Tables_number       1
_space_group_crystal_system       triclinic
_cell_length_a                    15.063231
_cell_length_b                    10.894117
_cell_length_c                    9.649082
_cell_angle_alpha                 88.976803
_cell_angle_beta                  89.330354
_cell_angle_gamma                 94.352429
_cell_volume                      1578.46689495

loop_
_atom_site_label
_atom_site_type_symbol
_atom_type_description
_atom_site_fract_x
_atom_site_fract_y
_atom_site_fract_z
_atom_type_partial_charge
C1    C     C_R   0.492316 0.262848 0.501650 0.630343
C2    C     C_R   0.179243 0.395871 0.525929 0.353817
C3    C     C_R   0.232852 0.503646 0.499338 0.068534
C4    C     C_R   0.329159 0.498907 0.500282 0.688089
C5    C     C_R   0.195683 0.614112 0.463583 0.078447
C6    C     C_R   0.365958 0.110516 0.690450 0.359790
C7    C     C_R   0.313494 0.038782 0.784801 0.420811
C8    C     C_R   0.314564 0.912115 0.785135 0.401919
C9    C     C_R   0.367709 0.855231 0.690590 0.317877
C10   C     C_R   0.426671 0.925535 0.597181 -0.112528
C11   C     C_R   0.425886 0.056679 0.598695 -0.106091
C12   C     C_R   0.912578 0.619606 0.478023 0.054377
C13   C     C_R   0.482136 0.128716 0.504057 0.018720
C14   C     C_R   0.531198 0.072731 0.404542 -0.049907
C15   C     C_R   0.531419 0.947218 0.398987 0.067077
C16   C     C_R   0.494491 0.737109 0.499303 0.577025
C17   C     C_R   0.483106 0.870755 0.498375 0.048521
C18   C     C_R   0.626405 0.654360 0.137050 -0.149354
C19   C     C_R   0.689419 0.729933 0.062896 0.396074
C20   C     C_R   0.687921 0.732781 0.919921 0.401881
C21   C     C_R   0.624189 0.659186 0.850848 -0.114682
C22   C     C_R   0.561782 0.576929 0.922548 0.081959
C23   C     C_R   0.941594 0.286961 0.545531 -0.061074
C24   C     C_R   0.562437 0.575574 0.071497 0.071969
C25   C     C_R   0.438608 0.429250 0.073756 0.210937
C26   C     C_R   0.440331 0.428686 0.927211 0.108579
C27   C     C_R   0.670802 0.501154 0.499519 0.564714
C28   C     C_R   0.818934 0.617872 0.483526 0.058226
C29   C     C_R   0.767545 0.504940 0.499264 0.004620
C30   C     C_R   0.808122 0.395352 0.519642 0.370879
C31   C     C_R   0.900877 0.396485 0.521750 0.032672
C32   C     C_R   0.953671 0.508578 0.498956 -0.075539
C33   C     C_R   0.033687 0.287426 0.547608 -0.061687
C34   C     C_R   0.086986 0.397116 0.523828 0.037025
C35   C     C_R   0.047480 0.508935 0.497413 -0.050399
C36   C     C_R   0.101449 0.619637 0.467714 0.007146
C37   C     C_R   0.058832 0.730010 0.443462 0.122526
C38   C     C_R   0.965963 0.729241 0.450780 0.464128
Cu1   Cu    Cu3+1 0.499990 0.499990 0.640660 1.105964
Cu2   Cu    Cu3+1 0.500010 0.500010 0.359340 0.979908
F1    F     F_    0.351990 0.231385 0.684782 -0.560417
F2    F     F_    0.257637 0.092670 0.872306 -0.518157
F3    F     F_    0.259496 0.842732 0.872892 -0.529652
F4    F     F_    0.353222 0.731666 0.685586 -0.576159
F5    F     F_    0.750356 0.804061 0.130415 -0.546570
F6    F     F_    0.747355 0.809329 0.847159 -0.551737
F7    F     F_    0.756822 0.287859 0.538170 -0.608099
F8    F     F_    0.217190 0.288205 0.547462 -0.582710
F9    F     F_    0.928921 0.837612 0.427588 -0.553675
H1    H     H_    0.626940 0.663785 0.245562 0.171102
H2    H     H_    0.544739 0.850188 0.224745 0.258559
H3    H     H_    0.318779 0.414494 0.173706 0.270892
H4    H     H_    0.388259 0.302293 0.219387 0.282841
H5    H     H_    0.251181 0.788964 0.487565 0.291706
H6    H     H_    0.240153 0.743203 0.318599 0.278765
H7    H     H_    0.093556 0.908011 0.488722 0.287169
H8    H     H_    0.088026 0.878320 0.316904 0.299949
H9    H     H_    0.625759 0.671633 0.741513 0.179983
H10   H     H_    0.390443 0.371999 0.873554 0.219428
H11   H     H_    0.902345 0.200483 0.563366 0.220360
H12   H     H_    0.063068 0.201151 0.567359 0.207050
H13   H     H_    0.572602 0.127863 0.330386 0.192711
H14   H     H_    0.734214 0.737034 0.560055 0.241019
H15   H     H_    0.738277 0.727433 0.384861 0.249325
H16   H     H_    0.632189 0.849319 0.339283 0.256683
N1    N     N_R   0.500860 0.501210 0.147910 -0.228982
N2    N     N_R   0.500890 0.501290 0.852040 -0.254786
N3    N     N_3   0.776241 0.730714 0.474002 -0.459835
N4    N     N_3   0.585564 0.901565 0.292512 -0.564568
N5    N     N_3   0.366335 0.356857 0.139405 -0.575271
N6    N     N_3   0.255689 0.716422 0.419448 -0.570863
N7    N     N_3   0.108375 0.845042 0.412833 -0.612999
O1    O     O_R   0.499990 0.319640 0.618810 -0.432048
O2    O     O_R   0.500000 0.319660 0.381240 -0.532731
O3    O     O_R   0.370250 0.499960 0.618800 -0.390199
O4    O     O_R   0.370260 0.499980 0.381230 -0.525229
O5    O     O_R   0.500000 0.680340 0.618760 -0.473565
O6    O     O_R   0.500010 0.680360 0.381190 -0.545561
O7    O     O_R   0.629740 0.500020 0.618770 -0.516785
O8    O     O_R   0.629750 0.500040 0.381200 -0.520235

loop_
_geom_bond_atom_site_label_1
_geom_bond_atom_site_label_2
_ccdc_geom_bond_type
C27   C29   S    
C35   C36   A    
C8    F3    S    
C7    C8    A    
C38   F9    S    
C29   C30   A    
C12   C28   A    
C18   C24   A    
C26   N2    A    
H15   N3    S    
C36   C37   A    
C28   N3    S    
C34   C35   A    
C27   O7    A    
C30   C31   A    
C10   C17   A    
C14   H13   S    
C5    C36   A    
C18   C19   A    
C7    F2    S    
C4    O3    A    
H5    N6    S    
C19   C20   A    
C8    C9    A    
C23   C33   A    
C6    F1    S    
Cu2   O8    S    
Cu1   O3    S    
C26   H10   S    
C24   N1    A    
C2    C34   A    
Cu2   N1    S    
C13   C14   A    
C12   C32   A    
H4    N5    S    
C23   H11   S    
C15   N4    S    
C32   C35   A    
C30   F7    S    
C27   O8    A    
C6    C11   A    
C16   C17   S    
C2    F8    S    
C25   C26   A    
Cu2   O4    S    
C23   C31   A    
C37   C38   A    
C31   C32   A    
C33   C34   A    
Cu2   O6    S    
C22   C24   A    
C1    C13   S    
C1    O2    A    
C3    C4    S    
Cu1   O5    S    
Cu1   Cu2   S    
C18   H1    S    
C9    C10   A    
C15   C17   A    
H14   N3    S    
C28   C29   A    
C9    F4    S    
H7    N7    S    
Cu1   N2    S    
C25   N1    A    
C3    C5    A    
C19   F5    S    
C6    C7    A    
C1    O1    A    
C2    C3    A    
C21   H9    S    
C5    N6    S    
C11   C13   A    
H16   N4    S    
Cu2   O2    S    
C16   O6    A    
Cu1   O1    S    
H8    N7    S    
C12   C38   A    
H6    N6    S    
C22   N2    A    
C4    O4    A    
H3    N5    S    
C10   C11   A    
C20   C21   A    
C33   H12   S    
C37   N7    S    
C14   C15   A    
C16   O5    A    
C25   N5    S    
H2    N4    S    
C21   C22   A    
C20   F6    S    
Cu1   O7    S    
