data_mof_unit_9778.cif
_audit_creation_date              2012-12-11T15:29:24-0500
_audit_creation_method            fapswitch 2.2
_symmetry_space_group_name_H-M    P1
_symmetry_Int_Tables_number       1
_space_group_crystal_system       triclinic
_cell_length_a                    13.485628
_cell_length_b                    13.492611
_cell_length_c                    27.581579
_cell_angle_alpha                 90.412568
_cell_angle_beta                  89.962273
_cell_angle_gamma                 60.025273
_cell_volume                      4347.21355406

loop_
_atom_site_label
_atom_site_type_symbol
_atom_type_description
_atom_site_fract_x
_atom_site_fract_y
_atom_site_fract_z
_atom_type_partial_charge
C1    C     C_R   0.620307 0.101017 0.569906 0.563523
C2    C     C_1   0.631025 0.731982 0.616028 0.010859
C3    C     C_3   0.640076 0.594899 0.769949 -0.107740
C4    C     C_3   0.679619 0.657670 0.804868 0.043196
C5    C     C_3   0.562746 0.709664 0.744074 -0.104001
C6    C     C_3   0.663460 0.684518 0.710184 0.020796
C7    C     C_3   0.602573 0.772080 0.779646 -0.134138
C8    C     C_3   0.703109 0.747531 0.744930 -0.070811
C9    C     C_1   0.688149 0.636463 0.857042 -0.012477
C10   C     C_1   0.649386 0.705134 0.657987 -0.025909
C11   C     C_3   0.090331 0.134026 0.737403 -0.102306
C12   C     C_R   0.599731 0.779217 0.568477 0.552666
C13   C     C_3   0.181917 0.059775 0.775389 -0.099281
C14   C     C_1   0.097614 0.200382 0.900242 0.004375
C15   C     C_1   0.229860 0.137356 0.617132 0.003309
C16   C     C_3   0.056032 0.242245 0.768764 -0.087583
C17   C     C_3   0.148050 0.167831 0.805904 0.049139
C18   C     C_3   0.145631 0.261842 0.741997 -0.072957
C19   C     C_3   0.179522 0.153909 0.711405 0.039565
C20   C     C_3   0.237178 0.187692 0.779838 -0.088764
C21   C     C_3   0.271579 0.079444 0.748515 -0.109688
C22   C     C_1   0.125430 0.181228 0.858184 -0.032982
C23   C     C_R   0.277783 0.121562 0.569399 0.547989
C24   C     C_1   0.202052 0.146163 0.659158 -0.040629
C25   C     C_3   0.596740 0.277897 0.740650 0.196611
C26   C     C_3   0.548451 0.229731 0.778955 -0.090121
C27   C     C_1   0.690630 0.206502 0.901701 0.012106
C28   C     C_1   0.635179 0.132080 0.617989 0.020997
C29   C     C_3   0.708676 0.233761 0.769780 -0.118052
C30   C     C_3   0.660834 0.184226 0.807521 0.005851
C31   C     C_3   0.762206 0.118801 0.741129 -0.132177
C32   C     C_3   0.649846 0.164285 0.712592 0.033126
C33   C     C_3   0.713624 0.070948 0.779264 0.072829
C34   C     C_R   0.621656 0.100384 0.431618 0.580813
C35   C     C_3   0.601859 0.114737 0.750211 -0.141723
C36   C     C_1   0.672919 0.195367 0.859769 -0.014120
C37   C     C_1   0.643224 0.150024 0.660228 0.000081
C38   C     C_R   0.638805 0.726990 0.381947 0.033902
C39   C     C_R   0.705073 0.761459 0.355100 -0.156197
C40   C     C_R   0.717294 0.744211 0.305579 -0.137658
C41   C     C_R   0.665504 0.690167 0.282046 -0.002921
C42   C     C_R   0.608025 0.646202 0.308982 -0.084933
C43   C     C_R   0.594323 0.664114 0.358924 0.156963
C44   C     C_R   0.573889 0.700167 0.203078 -0.109148
C45   C     C_R   0.601997 0.777004 0.430334 0.566842
C46   C     C_R   0.582952 0.676507 0.153743 -0.114351
C47   C     C_R   0.783225 0.624680 0.155718 -0.125442
C48   C     C_R   0.774310 0.647473 0.205069 -0.116410
C49   C     C_R   0.670972 0.680343 0.229293 0.032810
C50   C     C_R   0.689335 0.632651 0.130389 0.020010
C51   C     C_R   0.224323 0.138352 0.383698 0.017939
C52   C     C_R   0.243362 0.042871 0.355858 -0.117240
C53   C     C_R   0.219229 0.054339 0.306701 -0.105483
C54   C     C_R   0.173300 0.161837 0.284871 0.032827
C55   C     C_R   0.145700 0.258788 0.313505 -0.111500
C56   C     C_R   0.278869 0.120229 0.431031 0.532905
C57   C     C_R   0.171791 0.247011 0.362622 -0.116809
C58   C     C_R   0.177311 0.248340 0.205822 -0.120800
C59   C     C_R   0.150083 0.266066 0.156826 -0.123868
C60   C     C_R   0.089654 0.124274 0.159310 -0.123405
C61   C     C_R   0.114757 0.108229 0.208297 -0.117018
C62   C     C_R   0.155708 0.172414 0.232249 0.031523
C63   C     C_R   0.102519 0.206790 0.133679 0.022316
C64   C     C_R   0.634399 0.136216 0.383349 0.008034
C65   C     C_R   0.539419 0.172381 0.352601 -0.130683
C66   C     C_R   0.546359 0.194467 0.304375 -0.079902
C67   C     C_3   0.740612 0.569924 0.735262 -0.078825
C68   C     C_R   0.647927 0.182271 0.286062 0.043703
C69   C     C_R   0.743190 0.148125 0.316152 -0.094221
C70   C     C_R   0.737804 0.125446 0.365362 0.043374
C71   C     C_R   0.731232 0.102024 0.207142 -0.152949
C72   C     C_R   0.744403 0.110992 0.157918 -0.130182
C73   C     C_R   0.601562 0.312682 0.161673 -0.130652
C74   C     C_R   0.587926 0.305483 0.211629 0.060005
C75   C     C_R   0.656233 0.198662 0.234423 0.003999
C76   C     C_R   0.682898 0.217184 0.135213 -0.004305
C77   C     C_R   0.049845 0.234937 0.947949 0.547633
C78   C     C_3   0.779317 0.632844 0.770809 0.191643
C79   C     C_R   0.711896 0.562230 0.946500 0.545842
C80   C     C_R   0.722418 0.224085 0.949186 0.547035
C81   C     C_R   0.047706 0.243612 0.086395 0.541745
C82   C     C_R   0.708840 0.572693 0.084129 0.541878
C83   C     C_R   0.719917 0.233147 0.087529 0.545948
C84   C     C_1   0.697036 0.609196 0.898947 0.011345
Cr1   Cr    Cr6+3 0.417550 0.169090 0.500530 1.067708
Cr2   Cr    Cr6+3 0.669180 0.913420 0.499920 1.062040
Cr3   Cr    Cr6+3 0.413260 0.917540 0.499520 1.074714
Cr4   Cr    Cr6+3 0.909770 0.175810 0.018240 1.035613
Cr5   Cr    Cr6+3 0.913300 0.427650 0.016090 1.044244
Cr6   Cr    Cr6+3 0.657770 0.431010 0.016900 1.037668
H1    H     H_    0.297735 0.209329 0.797735 0.121863
H2    H     H_    0.130375 0.344993 0.727701 0.164388
H3    H     H_    0.966984 0.309499 0.777683 0.131401
H4    H     H_    0.460871 0.275619 0.794720 0.138094
H5    H     H_    0.558732 0.064872 0.741780 0.109602
H6    H     H_    0.849764 0.073120 0.725318 0.137720
H7    H     H_    0.751790 0.283660 0.778137 0.117286
H8    H     H_    0.740641 0.809934 0.371578 0.149963
H9    H     H_    0.797423 0.487075 0.716754 0.131325
H10   H     H_    0.492431 0.729289 0.221118 0.123966
H11   H     H_    0.508942 0.684815 0.134731 0.142948
H12   H     H_    0.762359 0.778362 0.285424 0.117838
H13   H     H_    0.850059 0.632378 0.224720 0.112425
H14   H     H_    0.866184 0.591461 0.138490 0.135752
H15   H     H_    0.572188 0.599713 0.291015 0.163182
H16   H     H_    0.284749 0.957788 0.371126 0.154113
H17   H     H_    0.212317 0.296199 0.223309 0.113190
H18   H     H_    0.161363 0.329611 0.137702 0.134532
H19   H     H_    0.729699 0.809781 0.733843 0.151796
H20   H     H_    0.241873 0.978106 0.285434 0.115385
H21   H     H_    0.096657 0.049673 0.227828 0.118243
H22   H     H_    0.052580 0.077559 0.142488 0.137410
H23   H     H_    0.106762 0.343189 0.297690 0.115566
H24   H     H_    0.155832 0.321850 0.383548 0.141423
H25   H     H_    0.460278 0.179028 0.365423 0.137701
H26   H     H_    0.781397 0.019592 0.224324 0.118223
H27   H     H_    0.807104 0.035929 0.138154 0.138752
H28   H     H_    0.473209 0.218989 0.281026 0.120119
H29   H     H_    0.546123 0.854909 0.798238 0.137357
H30   H     H_    0.554798 0.395050 0.144130 0.165911
H31   H     H_    0.821062 0.140077 0.300955 0.157791
H32   H     H_    0.473191 0.741047 0.732416 0.147685
H33   H     H_    0.614110 0.532303 0.781213 0.159037
H34   H     H_    0.197221 0.976640 0.789719 0.131776
H35   H     H_    0.029808 0.112441 0.719445 0.119493
H36   H     H_    0.360605 0.012206 0.739556 0.105183
O1    O     O_R   0.301780 0.195490 0.553940 -0.495838
O2    O     O_R   0.658840 0.818280 0.449970 -0.519040
O3    O     O_R   0.503160 0.801780 0.445740 -0.463679
O4    O     O_R   0.319320 0.022190 0.450230 -0.502741
O5    O     O_3   0.499990 0.000010 0.499990 -0.275915
O6    O     O_R   0.819250 0.149410 0.965240 -0.496951
O7    O     O_R   0.006940 0.180310 0.968270 -0.494977
O8    O     O_R   0.028420 0.332670 0.963010 -0.493430
O9    O     O_R   0.810130 0.520390 0.966030 -0.484899
O10   O     O_R   0.636050 0.541380 0.962520 -0.506661
O11   O     O_R   0.666480 0.323610 0.968170 -0.495039
O12   O     O_R   0.522450 0.158840 0.550250 -0.482904
O13   O     O_R   0.817280 0.156800 0.072180 -0.518872
O14   O     O_R   0.005110 0.187160 0.067410 -0.505700
O15   O     O_R   0.026450 0.340060 0.069950 -0.518236
O16   O     O_R   0.808300 0.527240 0.065170 -0.504711
O17   O     O_R   0.634070 0.548770 0.069460 -0.517570
O18   O     O_R   0.664650 0.330470 0.067300 -0.501876
O19   O     O_3   0.826940 0.344820 0.017080 -0.252738
O20   O     O_R   0.694460 0.003360 0.553820 -0.492794
O21   O     O_R   0.657750 0.819520 0.549120 -0.496988
O22   O     O_R   0.501990 0.803120 0.552700 -0.487042
O23   O     O_R   0.318230 0.023430 0.549370 -0.492638
O24   O     O_R   0.302950 0.194150 0.446980 -0.517849
O25   O     O_R   0.523540 0.157600 0.451100 -0.496160
O26   O     O_R   0.695630 0.002030 0.446860 -0.488060
Br1   Br    Br    0.935837 0.577844 0.790642 -0.503049
Br2   Br    Br    0.511936 0.427772 0.711719 -0.519944
C85   C     C_2   0.776908 0.954679 0.801463 0.576773
O27   O     O_2   0.876369 0.888885 0.789974 -0.480059
O28   O     O_R   0.721248 0.922061 0.835065 -0.708052
H37   H     H_    0.772025 0.841295 0.847175 0.360726
Br3   Br    Br    0.514487 0.601591 0.393308 -0.465808
C86   C     C_2   0.507040 0.411603 0.238786 0.551099
O29   O     O_2   0.428816 0.491405 0.217338 -0.542758
O30   O     O_R   0.520799 0.422175 0.288436 -0.675151
H38   H     H_    0.458690 0.497486 0.302468 0.360897
C87   C     C_2   0.839315 0.094391 0.396399 0.587444
O31   O     O_2   0.829311 0.105685 0.440462 -0.484501
O32   O     O_R   0.946738 0.055242 0.374918 -0.710013
H39   H     H_    0.008849 0.038502 0.399556 0.347584

loop_
_geom_bond_atom_site_label_1
_geom_bond_atom_site_label_2
_ccdc_geom_bond_type
C53   H20   S    
C58   C62   A    
C81   O14   A    
C66   C68   A    
C4    C9    S    
C26   H4    S    
O28   H37   S    
Cr5   O9    S    
C85   O28   S    
C44   H10   S    
C41   C42   A    
C82   O16   A    
C2    C12   S    
Cr2   O21   S    
C83   O13   A    
C80   O11   A    
C7    C8    S    
C53   C54   A    
C68   C75   S    
Cr5   O19   S    
C79   O10   A    
C11   C19   S    
C16   H3    S    
C63   C81   S    
C60   C63   A    
C80   O6    A    
C5    C6    S    
C12   O21   A    
C87   O31   D    
C11   H35   S    
Cr4   O7    S    
C18   C19   S    
Cr6   O19   S    
C43   Br3   S    
C83   O18   A    
Cr2   O5    S    
C45   O2    A    
C31   H6    S    
C17   C20   S    
C51   C56   S    
C73   C74   A    
C14   C77   S    
Cr3   O5    S    
Cr1   O24   S    
Cr4   O14   S    
C38   C45   S    
C31   C32   S    
C44   C46   A    
C16   C17   S    
C72   H27   S    
C1    C28   S    
Cr4   O19   S    
C31   C33   S    
C51   C57   A    
C64   C70   A    
Cr6   O17   S    
C67   H9    S    
C25   C32   S    
C15   C23   S    
C23   O23   A    
C52   H16   S    
C73   H30   S    
Cr5   O8    S    
C8    C78   S    
C65   H25   S    
C1    O20   A    
C61   C62   A    
C67   C78   S    
C77   O7    A    
C4    C7    S    
Cr2   O20   S    
C76   C83   S    
C41   C49   S    
C20   H1    S    
C3    H33   S    
C77   O8    A    
C47   C50   A    
C25   C29   S    
C38   C39   A    
C46   H11   S    
C74   C75   A    
Cr2   O2    S    
C51   C52   A    
C32   C35   S    
C7    H29   S    
C27   C80   S    
Cr3   O22   S    
C39   C40   A    
C5    C7    S    
C13   H34   S    
C34   O26   A    
C68   C69   A    
C39   H8    S    
C6    C8    S    
C55   H23   S    
C50   C82   S    
C58   C59   A    
C48   H13   S    
C5    H32   S    
C44   C49   A    
C60   C61   A    
C86   O30   S    
C30   C36   S    
Cr1   O25   S    
Cr4   O13   S    
C4    C78   S    
C29   C30   S    
C60   H22   S    
Cr2   O26   S    
Cr6   O10   S    
C11   C16   S    
C47   C48   A    
C69   H31   S    
C34   C64   S    
C13   C21   S    
C72   C76   A    
C32   C37   S    
C48   C49   A    
C26   C30   S    
C35   H5    S    
C55   C57   A    
C66   H28   S    
O32   H39   S    
C73   C76   A    
Cr1   O1    S    
C42   C43   A    
Cr4   O6    S    
C56   O24   A    
C3    C4    S    
C2    C10   T    
C58   H17   S    
Cr6   O11   S    
C79   O9    A    
C52   C53   A    
Cr3   O4    S    
C23   O1    A    
O30   H38   S    
C54   C55   A    
C15   C24   T    
C47   H14   S    
C30   C33   S    
C19   C21   S    
C25   Br2   S    
C3    C67   S    
C17   C22   S    
C82   O17   A    
C3    C5    S    
C70   C87   S    
C6    C10   S    
C34   O25   A    
C33   C85   S    
C78   Br1   S    
C57   H24   S    
C29   H7    S    
C27   C36   T    
C54   C62   S    
C46   C50   A    
C59   C63   A    
C59   H18   S    
C74   C86   S    
C18   H2    S    
C86   O29   D    
Cr3   O3    S    
C87   O32   S    
C19   C24   S    
C25   C26   S    
C38   C43   A    
C29   C31   S    
C6    C67   S    
C8    H19   S    
Cr1   O5    S    
C71   C75   A    
C11   C13   S    
C14   C22   T    
C79   C84   S    
C28   C37   T    
Cr5   O15   S    
C45   O3    A    
C64   C65   A    
C81   O15   A    
C33   C35   S    
C71   H26   S    
C18   C20   S    
C69   C70   A    
C42   H15   S    
C56   O4    A    
C12   O22   A    
C9    C84   T    
C40   H12   S    
C13   C17   S    
C26   C35   S    
C71   C72   A    
C20   C21   S    
C16   C18   S    
C65   C66   A    
Cr3   O23   S    
C85   O27   D    
C40   C41   A    
C21   H36   S    
Cr1   O12   S    
Cr6   O18   S    
C1    O12   A    
Cr5   O16   S    
C61   H21   S    
