data_mof_unit_58070.cif
_audit_creation_date              2013-03-05T16:49:58-0500
_audit_creation_method            fapswitch 2.2
_symmetry_space_group_name_H-M    P1
_symmetry_Int_Tables_number       1
_space_group_crystal_system       triclinic
_cell_length_a                    27.758811
_cell_length_b                    10.856479
_cell_length_c                    26.42213
_cell_angle_alpha                 91.379236
_cell_angle_beta                  90.477598
_cell_angle_gamma                 89.782206
_cell_volume                      7960.01587018

loop_
_atom_site_label
_atom_site_type_symbol
_atom_site_description
_atom_site_fract_x
_atom_site_fract_y
_atom_site_fract_z
_atom_type_partial_charge
O1    O     O_R   0.500000 0.319660 0.542350 -0.566387
O2    O     O_R   0.500000 0.680340 0.457650 -0.586143
O3    O     O_R   0.500000 0.319630 0.457650 -0.596878
O4    O     O_R   0.500000 0.680370 0.542350 -0.576460
C1    C     C_R   0.498118 0.262256 0.499392 0.802749
C2    C     C_R   0.499889 0.738431 0.500755 0.847289
O5    O     O_R   0.430260 0.500030 0.542340 -0.531322
O6    O     O_R   0.569740 0.499970 0.457660 -0.581062
O7    O     O_R   0.430270 0.500010 0.457650 -0.605621
O8    O     O_R   0.569730 0.499990 0.542350 -0.547005
C3    C     C_R   0.407224 0.495960 0.499660 0.846273
C4    C     C_R   0.592661 0.497432 0.500119 0.887794
Cu1   Cu    Cu3+1 0.500000 0.500020 0.550150 1.039217
Cu2   Cu    Cu3+1 0.500000 0.499980 0.449850 0.969678
O9    O     O_2   0.513868 0.701857 0.788583 -0.575044
O10   O     O_2   0.454477 0.306107 0.212992 -0.559871
C5    C     C_R   0.535016 0.688152 0.056104 -0.107186
C6    C     C_R   0.474232 0.275806 0.943514 -0.084316
H1    H     H_    0.435066 0.602072 0.631599 0.158988
H2    H     H_    0.554733 0.364134 0.368187 0.140668
C7    C     C_R   0.178949 0.364504 0.483506 0.602675
C8    C     C_R   0.819980 0.562090 0.473939 0.607488
O11   O     O_2   0.206588 0.263127 0.487423 -0.429039
O12   O     O_2   0.792798 0.653015 0.454744 -0.423674
N1    N     N_R   0.201225 0.476689 0.480535 -0.463124
N2    N     N_R   0.797591 0.458165 0.489986 -0.469141
C9    C     C_R   0.175414 0.581211 0.471039 0.597439
C10   C     C_R   0.823286 0.357465 0.504555 0.607362
C11   C     C_R   0.281232 0.534990 0.449107 -0.065514
C12   C     C_R   0.716649 0.386449 0.464220 -0.054628
C13   C     C_R   0.331019 0.540344 0.454909 -0.276483
C14   C     C_R   0.666648 0.399038 0.466561 -0.277721
C15   C     C_R   0.325609 0.433543 0.534698 0.388661
C16   C     C_R   0.675328 0.560475 0.531510 0.416141
C17   C     C_R   0.275317 0.435411 0.529626 -0.130588
C18   C     C_R   0.725278 0.545302 0.529465 -0.135329
C19   C     C_R   0.252881 0.483851 0.486674 0.234723
C20   C     C_R   0.746125 0.460439 0.495398 0.238162
C21   C     C_R   0.101122 0.465356 0.474340 -0.090328
C22   C     C_R   0.897741 0.465489 0.487721 -0.098496
C23   C     C_R   0.127900 0.355543 0.482080 -0.145093
C24   C     C_R   0.870714 0.572362 0.476244 -0.131634
C25   C     C_R   0.102118 0.242856 0.486422 0.420487
C26   C     C_R   0.895651 0.685064 0.470248 0.382114
C27   C     C_R   0.125330 0.576084 0.465430 -0.072033
C28   C     C_R   0.873807 0.358669 0.503168 -0.074146
C29   C     C_R   0.354039 0.490712 0.497543 -0.191615
C30   C     C_R   0.645501 0.486003 0.499926 -0.172421
H3    H     H_    0.253193 0.395467 0.558472 0.213247
H4    H     H_    0.748597 0.603169 0.552809 0.209274
C31   C     C_R   0.975526 0.359731 0.498272 -0.034536
C32   C     C_R   0.023576 0.572908 0.462674 -0.039624
C33   C     C_R   0.972792 0.574017 0.470058 0.022193
C34   C     C_R   0.025765 0.357057 0.488709 0.008496
C35   C     C_R   0.948786 0.465746 0.484612 0.049782
C36   C     C_R   0.050005 0.465470 0.475589 0.049010
C37   C     C_R   0.950868 0.264173 0.523689 0.361308
C38   C     C_R   0.049662 0.672258 0.441389 0.363768
C39   C     C_R   0.900657 0.259987 0.521623 -0.117893
C40   C     C_R   0.099473 0.677628 0.448178 -0.168517
H5    H     H_    0.554354 0.760680 0.037879 0.182874
H6    H     H_    0.470559 0.187956 0.961343 0.210881
H7    H     H_    0.431708 0.591231 0.724642 0.181375
H8    H     H_    0.553547 0.359168 0.274494 0.172556
O13   O     O_2   0.800015 0.257274 0.520980 -0.487177
O14   O     O_2   0.198090 0.690450 0.467632 -0.496798
C41   C     C_R   0.051834 0.246249 0.487478 -0.136933
C42   C     C_R   0.945920 0.683793 0.469428 -0.164878
H9    H     H_    0.644340 0.341383 0.441964 0.168477
H10   H     H_    0.351702 0.582602 0.425410 0.199329
H11   H     H_    0.732470 0.321358 0.437424 0.175914
H12   H     H_    0.264715 0.570523 0.415152 0.186824
H13   H     H_    0.882431 0.183554 0.538736 0.230924
H14   H     H_    0.118604 0.757703 0.435265 0.242307
H15   H     H_    0.032561 0.160545 0.486430 0.244328
H16   H     H_    0.964221 0.770686 0.470174 0.230864
H17   H     H_    0.395779 0.272868 0.296663 0.193429
H18   H     H_    0.564208 0.840698 0.734566 0.201751
C43   C     C_R   0.393370 0.250076 0.377267 -0.120212
C44   C     C_R   0.588401 0.899691 0.662308 -0.085403
H19   H     H_    0.362687 0.310768 0.382462 0.156980
H20   H     H_    0.624496 0.920080 0.675753 0.156991
C45   C     C_R   0.414328 0.193256 0.418990 -0.072654
C46   C     C_R   0.575496 0.922349 0.612219 -0.077897
H21   H     H_    0.399493 0.210576 0.456291 0.145353
H22   H     H_    0.601548 0.963947 0.587642 0.151738
C47   C     C_R   0.454749 0.116026 0.412645 0.102905
C48   C     C_R   0.528709 0.896080 0.594324 0.155984
C49   C     C_R   0.472886 0.093673 0.363815 -0.158247
C50   C     C_R   0.494395 0.852605 0.628184 -0.133863
H23   H     H_    0.503844 0.034052 0.358140 0.154895
H24   H     H_    0.457359 0.839384 0.616073 0.136494
C51   C     C_R   0.451583 0.149976 0.322147 -0.072634
C52   C     C_R   0.507178 0.832528 0.678615 -0.120653
H25   H     H_    0.465918 0.132886 0.284674 0.198249
H26   H     H_    0.480187 0.802694 0.704837 0.179589
C53   C     C_R   0.412048 0.228688 0.328893 -0.074957
C54   C     C_R   0.554267 0.854853 0.695507 0.001705
C55   C     C_R   0.480550 0.931151 0.458803 -0.210948
C56   C     C_R   0.512517 0.071018 0.541987 -0.204280
H27   H     H_    0.467225 0.877048 0.426631 0.168198
H28   H     H_    0.525303 0.125335 0.574393 0.161571
C57   C     C_R   0.498004 0.872574 0.502156 -0.071468
C58   C     C_R   0.495939 0.128974 0.498766 -0.060544
C59   C     C_R   0.512924 0.944198 0.544973 0.014621
C60   C     C_R   0.478071 0.059074 0.457076 0.008414
H29   H     H_    0.512611 0.797688 0.874359 0.222144
H30   H     H_    0.431275 0.230130 0.126793 0.227336
C61   C     C_R   0.518552 0.586624 0.188506 0.630846
C62   C     C_R   0.486991 0.383335 0.811160 0.643091
O15   O     O_2   0.541513 0.677018 0.214896 -0.499772
O16   O     O_2   0.477857 0.278802 0.784233 -0.486917
N3    N     N_R   0.496848 0.493270 0.213779 -0.436427
N4    N     N_R   0.497151 0.489768 0.786409 -0.434430
C63   C     C_R   0.475051 0.397942 0.187512 0.631197
C64   C     C_R   0.504614 0.597753 0.813313 0.623760
C65   C     C_R   0.529229 0.420019 0.295030 -0.299716
C66   C     C_R   0.461456 0.548428 0.704551 -0.284804
C67   C     C_R   0.530087 0.423318 0.348083 0.063368
C68   C     C_R   0.463230 0.554053 0.651676 0.111139
C69   C     C_R   0.468028 0.573459 0.349966 -0.031433
C70   C     C_R   0.536305 0.441640 0.650521 0.012915
C71   C     C_R   0.465392 0.572693 0.296783 0.349494
C72   C     C_R   0.537142 0.437247 0.703773 0.315265
C73   C     C_R   0.496974 0.495454 0.268682 0.232082
C74   C     C_R   0.498511 0.490076 0.731438 0.233764
C75   C     C_R   0.493936 0.493071 0.107574 -0.044630
C76   C     C_R   0.493148 0.493034 0.892671 -0.045327
C77   C     C_R   0.516993 0.589068 0.135111 -0.023787
C78   C     C_R   0.485457 0.382665 0.864670 -0.039280
C79   C     C_R   0.538489 0.684407 0.108718 -0.115462
C80   C     C_R   0.477082 0.274091 0.890757 -0.097852
C81   C     C_R   0.473432 0.395792 0.134007 -0.086008
C82   C     C_R   0.502810 0.601376 0.866676 -0.078661
N5    N     N_R   0.500000 0.499970 0.374520 -0.199459
N6    N     N_R   0.500000 0.500030 0.625480 -0.193432
H31   H     H_    0.444221 0.632255 0.372030 0.175279
H32   H     H_    0.564890 0.398459 0.628905 0.150932
H33   H     H_    0.558121 0.756976 0.128643 0.195937
H34   H     H_    0.473047 0.186752 0.870501 0.204888
C83   C     C_R   0.502188 0.605066 0.974367 -0.061496
C84   C     C_R   0.471850 0.392368 0.026024 -0.063664
C85   C     C_R   0.478113 0.386866 0.972296 0.065528
C86   C     C_R   0.509034 0.598068 0.027833 0.083819
C87   C     C_R   0.491094 0.495080 0.946573 0.050382
C88   C     C_R   0.491552 0.494400 0.053678 0.051411
C89   C     C_R   0.506577 0.716538 0.947233 0.302037
C90   C     C_R   0.447383 0.300232 0.053588 0.299461
C91   C     C_R   0.508627 0.712208 0.894212 -0.165483
C92   C     C_R   0.449898 0.301323 0.106702 -0.154898
S1    S     S_3+6 0.978175 0.172106 0.571046 0.020683
O17   O     O_2   0.990337 0.046445 0.549612 -0.275575
O18   O     O_2   0.023020 0.232530 0.591889 -0.242893
O19   O     O_3   0.939054 0.155517 0.618672 -0.502929
H35   H     H_    0.955666 0.100899 0.642781 0.398162
S2    S     S_3+6 0.026209 0.771771 0.394486 0.046654
O20   O     O_2   0.981658 0.718577 0.369852 -0.245319
O21   O     O_2   0.015071 0.896167 0.417852 -0.231157
O22   O     O_3   0.068179 0.789604 0.349707 -0.489588
H36   H     H_    0.054077 0.849949 0.326217 0.397956
N7    N     N_R   0.502269 0.835632 0.971823 0.108344
O23   O     O_R   0.526010 0.929168 0.955025 -0.356420
O24   O     O_R   0.468974 0.855159 0.005505 -0.281868
N8    N     N_R   0.414387 0.215411 0.029383 0.118633
O25   O     O_R   0.410245 0.103953 0.045844 -0.271956
O26   O     O_R   0.383075 0.255049 0.996585 -0.298833
S3    S     S_3+6 0.350295 0.349556 0.585451 0.023167
O27   O     O_2   0.393146 0.275410 0.567997 -0.301342
O28   O     O_2   0.365280 0.438085 0.627121 -0.294721
O29   O     O_3   0.308755 0.253102 0.607953 -0.490381
H37   H     H_    0.324947 0.211763 0.636494 0.392702
S4    S     S_3+6 0.652142 0.684193 0.568328 0.014387
O30   O     O_2   0.617937 0.755786 0.535800 -0.339841
O31   O     O_2   0.625818 0.635483 0.613070 -0.262944
O32   O     O_3   0.697049 0.776838 0.588853 -0.495425
H38   H     H_    0.680883 0.850361 0.603793 0.367959
S5    S     S_3+6 0.422279 0.667370 0.267012 0.022682
O33   O     O_2   0.446794 0.780864 0.248616 -0.245285
O34   O     O_2   0.399591 0.599265 0.222780 -0.252979
O35   O     O_3   0.379199 0.709215 0.308463 -0.557753
H39   H     H_    0.357820 0.765696 0.289683 0.396227
S6    S     S_3+6 0.587106 0.368306 0.734020 0.056482
O36   O     O_2   0.599454 0.437863 0.782221 -0.221582
O37   O     O_2   0.574984 0.237697 0.746455 -0.264939
O38   O     O_3   0.635320 0.368482 0.695810 -0.472737
H40   H     H_    0.632388 0.292570 0.674455 0.342164
S7    S     S_3+6 0.129131 0.094688 0.491990 0.108088
O39   O     O_2   0.159580 0.066324 0.446364 -0.204054
O40   O     O_2   0.160028 0.093119 0.539001 -0.202179
O41   O     O_3   0.086918 0.984681 0.496239 -0.484907
H41   H     H_    0.103969 0.912868 0.510429 0.379275
S8    S     S_3+6 0.867078 0.831996 0.468402 0.105378
O42   O     O_2   0.842975 0.846593 0.417750 -0.152461
O43   O     O_2   0.829830 0.843448 0.509293 -0.235329
O44   O     O_3   0.907293 0.946317 0.476572 -0.483826
H42   H     H_    0.910995 0.956195 0.513733 0.375055

loop_
_geom_bond_atom_site_label_1
_geom_bond_atom_site_label_2
_geom_bond_distance
_ccdc_geom_bond_type
C45   C47   1.406867 A    
C27   C40   1.396781 A    
C12   H11   1.082712 S    
O41   H41   0.990338 S    
C28   C39   1.397872 A    
C5    C79   1.394286 A    
C14   C30   1.406222 A    
C84   C88   1.420931 A    
C3    C29   1.478209 S    
C71   S5    1.766735 S    
C4    C30   1.471588 S    
C66   C68   1.401139 A    
C58   C60   1.410239 A    
N7    O23   1.301587 A    
C18   H4    1.082561 S    
N8    O26   1.301622 A    
S3    O28   1.501149 D    
O2    C2    1.288555 A    
C32   C33   1.424728 A    
C22   C28   1.409266 A    
C40   H14   1.083977 S    
C10   C28   1.403325 A    
C56   C59   1.380971 A    
C5    C86   1.412742 A    
O1    C1    1.282428 A    
N8    O25   1.301459 A    
C17   C19   1.402441 A    
C46   H22   1.083077 S    
C65   C67   1.401375 A    
S4    O30   1.502427 D    
N4    C74   1.453348 S    
C76   C87   1.425475 A    
C71   C73   1.413616 A    
N3    C73   1.450226 S    
Cu2   N5    1.990376 S    
C52   C54   1.397856 A    
C38   C40   1.394056 A    
C56   C58   1.391203 A    
C12   C20   1.398305 A    
S1    O19   1.682407 S    
C69   H31   1.081353 S    
O4    Cu1   1.973709 S    
C33   C42   1.403927 A    
S6    O36   1.502687 D    
S7    O41   1.682634 S    
C7    N1    1.372229 A    
C61   O15   1.349058 S    
N1    C19   1.443900 S    
C6    C80   1.396508 A    
C13   H10   1.083662 S    
O29   H37   0.990584 S    
O32   H38   0.989630 S    
S5    O34   1.502958 D    
C17   H3    1.082537 S    
S1    O17   1.502776 D    
H17   C53   1.082049 S    
C31   C37   1.429093 A    
C49   H23   1.083119 S    
C39   H13   1.083531 S    
C16   C18   1.397025 A    
C45   H21   1.083302 S    
S4    O32   1.682760 S    
C61   N3    1.371140 A    
C21   C27   1.405165 A    
C11   H12   1.082772 S    
C5    H5    1.079718 S    
S5    O35   1.682168 S    
C22   C24   1.416897 A    
C1    C58   1.448160 S    
C51   H25   1.081769 S    
C13   C29   1.407911 A    
Cu1   Cu2   2.650132 S    
C23   C25   1.427152 A    
C15   S3    1.771451 S    
C24   C26   1.420891 A    
N7    O24   1.301642 A    
S4    O31   1.502834 D    
C50   C52   1.398023 A    
S3    O29   1.682341 S    
C62   O16   1.348587 S    
C33   C35   1.416185 A    
C50   H24   1.083200 S    
C32   C38   1.430346 A    
C34   C36   1.409885 A    
C89   C91   1.402205 A    
S7    O40   1.503962 D    
C44   C46   1.395525 A    
C90   N8    1.436753 S    
S8    O44   1.681312 S    
C84   C90   1.428536 A    
C38   S2    1.781150 S    
C79   H33   1.083207 S    
C70   H32   1.080464 S    
C44   H20   1.082170 S    
C55   C57   1.405272 A    
C89   N7    1.437994 S    
C83   C86   1.427636 A    
S3    O27   1.503163 D    
C43   H19   1.082485 S    
H7    C66   1.082661 S    
N2    C20   1.437041 S    
C34   C41   1.401341 A    
C63   C81   1.413689 A    
C82   C91   1.400222 A    
C67   N5    1.361771 A    
H8    C65   1.082587 S    
C68   N6    1.361098 A    
S6    O38   1.683180 S    
S8    O43   1.504323 D    
O1    Cu1   1.963951 S    
C78   C80   1.400867 A    
O7    Cu2   1.948271 S    
C75   C77   1.409257 A    
H18   C54   1.080460 S    
C76   C82   1.404112 A    
O5    C3    1.291635 A    
O22   H36   0.990571 S    
C25   S7    1.780961 S    
O6    C4    1.285930 A    
C22   C35   1.420006 A    
C56   H28   1.085856 S    
C57   C59   1.417160 A    
C21   C36   1.419579 A    
C2    C57   1.456650 S    
C69   N5    1.361985 A    
C52   H26   1.080566 S    
O7    C3    1.287517 A    
C70   N6    1.363615 A    
O19   H35   0.990570 S    
O3    Cu2   1.973711 S    
O8    C4    1.288899 A    
H30   C92   1.083413 S    
C86   C88   1.419572 A    
C55   H27   1.084782 S    
C48   C50   1.403011 A    
H1    C68   1.080578 S    
S5    O33   1.502751 D    
C7    O11   1.344770 S    
C61   C77   1.411997 A    
N1    C9    1.366918 A    
C15   C29   1.420486 A    
Cu1   N6    1.990376 S    
C8    O12   1.346474 S    
C26   C42   1.395773 A    
O4    C2    1.280026 A    
C41   H15   1.074707 S    
C70   C72   1.408979 A    
O10   C63   1.347750 S    
C51   C53   1.398296 A    
C16   S4    1.762269 S    
O35   H39   0.990647 S    
C72   C74   1.414707 A    
C75   C81   1.404915 A    
C85   C87   1.420466 A    
C55   C60   1.392064 A    
C62   N4    1.372696 A    
C6    C85   1.413922 A    
O6    Cu2   1.945155 S    
S2    O20   1.503461 D    
C44   C54   1.393600 A    
C84   C85   1.431438 A    
C43   C53   1.397208 A    
S2    O22   1.682379 S    
C6    H6    1.079406 S    
C81   C92   1.400271 A    
C46   C48   1.406335 A    
C90   C92   1.404293 A    
O3    C1    1.281174 A    
O8    Cu1   1.948268 S    
C76   C78   1.409003 A    
N4    C64   1.371812 A    
C14   H9    1.083645 S    
C83   C87   1.420108 A    
C80   H34   1.083264 S    
C16   C30   1.413052 A    
N2    C10   1.364493 A    
C31   C34   1.419439 A    
S8    O42   1.502801 D    
C7    C23   1.420902 A    
S2    O21   1.503485 D    
C10   O13   1.349638 S    
S7    O39   1.503228 D    
C11   C13   1.390522 A    
C9    O14   1.350025 S    
C26   S8    1.780315 S    
C12   C14   1.395889 A    
C48   C59   1.478731 S    
C42   H16   1.072831 S    
C9    C27   1.398097 A    
O38   H40   0.990734 S    
C8    C24   1.413833 A    
C47   C60   1.482839 S    
C37   S1    1.782688 S    
C18   C20   1.399506 A    
C15   C17   1.401447 A    
C62   C78   1.415054 A    
C31   C35   1.419500 A    
S1    O18   1.503530 D    
C49   C51   1.397949 A    
O2    Cu2   1.963951 S    
S6    O37   1.503227 D    
C69   C71   1.406350 A    
C37   C39   1.395292 A    
C83   C89   1.427494 A    
C75   C88   1.425447 A    
O44   H42   0.989664 S    
C43   C45   1.397716 A    
O5    Cu1   1.945155 S    
H29   C91   1.083419 S    
C64   C82   1.410854 A    
C21   C23   1.420609 A    
C25   C41   1.396678 A    
C72   S6    1.767752 S    
C8    N2    1.368105 A    
C11   C19   1.398469 A    
C47   C49   1.404218 A    
O9    C64   1.345681 S    
C66   C74   1.403052 A    
C77   C79   1.400014 A    
C65   C73   1.403030 A    
H2    C67   1.081704 S    
C32   C36   1.422546 A    
N3    C63   1.371869 A    
