data_mof_unit_58977.cif
_audit_creation_date              2012-12-10T20:49:09-0500
_audit_creation_method            fapswitch 2.2
_symmetry_space_group_name_H-M    P1
_symmetry_Int_Tables_number       1
_space_group_crystal_system       triclinic
_cell_length_a                    8.925015
_cell_length_b                    8.123849
_cell_length_c                    10.542638
_cell_angle_alpha                 89.704308
_cell_angle_beta                  90.086841
_cell_angle_gamma                 90.09064
_cell_volume                      764.386962842

loop_
_atom_site_label
_atom_site_type_symbol
_atom_type_description
_atom_site_fract_x
_atom_site_fract_y
_atom_site_fract_z
_atom_type_partial_charge
C1    C     C_R   0.218074 0.499918 0.499898 0.938662
C2    C     C_3   0.632820 0.447847 0.041504 0.267263
C3    C     C_3   0.502977 0.498041 0.877364 -0.071497
C4    C     C_3   0.501176 0.501283 0.122655 -0.067428
C5    C     C_1   0.065218 0.499875 0.499673 -0.193302
C6    C     C_1   0.934770 0.500101 0.499587 -0.195239
C7    C     C_3   0.115221 0.638779 0.999818 -0.786378
C8    C     C_3   0.792060 0.229808 0.131416 -0.772406
C9    C     C_R   0.781922 0.500077 0.499693 0.933654
C10   C     C_R   0.500677 0.500435 0.256905 0.878849
C11   C     C_R   0.501138 0.499466 0.743091 0.889324
C12   C     C_3   0.477241 0.655792 0.039984 -0.227872
C13   C     C_3   0.527255 0.343359 0.959512 -0.183294
C14   C     C_3   0.612000 0.600958 0.957426 -0.259873
C15   C     C_3   0.392251 0.397758 0.042367 -0.211647
C16   C     C_3   0.371548 0.551085 0.958693 0.263110
H1    H     H_    0.454437 0.781790 0.075336 0.160916
H2    H     H_    0.908830 0.206713 0.163266 0.234412
H3    H     H_    0.767264 0.145153 0.051758 0.240447
H4    H     H_    0.715205 0.203643 0.211585 0.260372
H5    H     H_    0.548446 0.217741 0.922741 0.154555
H6    H     H_    0.702752 0.680453 0.919123 0.151612
H7    H     H_    0.302196 0.317366 0.080737 0.147928
H8    H     H_    0.242062 0.700607 0.841459 0.233066
H9    H     H_    0.009102 0.671579 0.950810 0.241632
H10   H     H_    0.149270 0.742702 0.061691 0.233276
H11   H     H_    0.094556 0.527473 0.058854 0.250796
H12   H     H_    0.822969 0.482780 0.152984 0.211486
N1    N     N_1   0.500000 0.073640 0.500000 -0.040597
N2    N     N_1   0.500000 0.926360 0.500000 -0.038944
N3    N     N_2   0.230076 0.606611 0.906739 -0.306059
N4    N     N_2   0.778050 0.399077 0.090286 -0.312117
O1    O     O_R   0.285350 0.636850 0.500000 -0.618577
O2    O     O_R   0.714650 0.363150 0.500000 -0.616656
O3    O     O_R   0.714650 0.636850 0.500000 -0.617075
O4    O     O_R   0.285350 0.363150 0.500000 -0.613992
O5    O     O_R   0.499970 0.636850 0.313950 -0.627732
O6    O     O_R   0.500030 0.363150 0.686050 -0.621292
O7    O     O_R   0.500030 0.636850 0.686050 -0.629989
O8    O     O_R   0.499970 0.363150 0.313950 -0.631272
Zn1   Zn    Zn3+2 0.500000 0.682780 0.500000 0.975093
Zn2   Zn    Zn3+2 0.500000 0.317220 0.500000 0.976789

loop_
_geom_bond_atom_site_label_1
_geom_bond_atom_site_label_2
_ccdc_geom_bond_type
C12   H1    S    
C11   O6    A    
C2    C4    S    
N2    Zn1   S    
N1    N2    T    
N1    Zn2   S    
C4    C12   S    
C7    H11   S    
O4    Zn2   S    
C3    C13   S    
O1    Zn1   S    
C14   H6    S    
C4    C15   S    
O8    Zn2   S    
H8    N3    S    
C13   H5    S    
O7    Zn1   S    
C7    H9    S    
C16   N3    S    
C11   O7    A    
C7    H10   S    
C8    H4    S    
C3    C14   S    
C6    C9    S    
C10   O5    A    
O3    Zn1   S    
C5    C6    T    
C15   H7    S    
C12   C14   S    
O6    Zn2   S    
C13   C15   S    
O5    Zn1   S    
C9    O2    A    
C2    C14   S    
C1    C5    S    
C8    H3    S    
C7    N3    S    
C1    O1    A    
C15   C16   S    
C8    N4    S    
H12   N4    S    
C3    C11   S    
C2    N4    S    
C9    O3    A    
C2    C13   S    
C10   O8    A    
C4    C10   S    
C8    H2    S    
C3    C16   S    
C12   C16   S    
C1    O4    A    
O2    Zn2   S    
