data_mof_unit_49622.cif
_audit_creation_date              2012-12-11T14:47:27-0500
_audit_creation_method            fapswitch 2.2
_symmetry_space_group_name_H-M    P1
_symmetry_Int_Tables_number       1
_space_group_crystal_system       triclinic
_cell_length_a                    19.279151
_cell_length_b                    6.979426
_cell_length_c                    19.536327
_cell_angle_alpha                 89.999369
_cell_angle_beta                  96.10023
_cell_angle_gamma                 89.99886
_cell_volume                      2613.87222398

loop_
_atom_site_label
_atom_site_type_symbol
_atom_type_description
_atom_site_fract_x
_atom_site_fract_y
_atom_site_fract_z
_atom_type_partial_charge
O1    O     O_R   0.673510 0.377480 0.186100 -0.529656
O2    O     O_R   0.326490 0.622520 0.813900 -0.541828
O3    O     O_R   0.826490 0.877480 0.313900 -0.529659
O4    O     O_R   0.173510 0.122520 0.686100 -0.541853
O5    O     O_R   0.807790 0.705750 0.184090 -0.520679
O6    O     O_R   0.192210 0.294250 0.815910 -0.532035
O7    O     O_R   0.692210 0.205750 0.315910 -0.520671
O8    O     O_R   0.307790 0.794250 0.684090 -0.532023
C1    C     C_1   0.477893 0.995167 0.520991 -0.001454
C2    C     C_1   0.522106 0.006015 0.479037 -0.002525
C3    C     C_1   0.022119 0.495169 0.979021 -0.001432
C4    C     C_1   0.977903 0.506016 0.020973 -0.002505
C5    C     C_R   0.830530 0.538223 0.165976 0.740404
C6    C     C_R   0.169672 0.461974 0.834215 0.733672
C7    C     C_R   0.669471 0.038223 0.334025 0.740401
C8    C     C_R   0.330333 0.961972 0.665789 0.733665
O9    O     O_R   0.672870 0.707110 0.178120 -0.543411
O10   O     O_R   0.327130 0.292890 0.821880 -0.535286
O11   O     O_R   0.827130 0.207110 0.321880 -0.543386
O12   O     O_R   0.172870 0.792890 0.678120 -0.535282
O13   O     O_R   0.690610 0.878650 0.307880 -0.534468
O14   O     O_R   0.309390 0.121350 0.692120 -0.521161
O15   O     O_R   0.809390 0.378650 0.192120 -0.534469
O16   O     O_R   0.190610 0.621350 0.807880 -0.521173
C9    C     C_R   0.647178 0.537863 0.161546 0.863660
C10   C     C_R   0.352792 0.461869 0.838522 0.870361
C11   C     C_R   0.852824 0.037859 0.338451 0.863645
C12   C     C_R   0.147207 0.961873 0.661479 0.870309
C13   C     C_1   0.382063 0.972330 0.613518 -0.168011
C14   C     C_1   0.617858 0.028326 0.386420 -0.178856
C15   C     C_1   0.117949 0.472333 0.886493 -0.167990
C16   C     C_1   0.882145 0.528325 0.113582 -0.178886
O17   O     O_3   0.755980 0.544260 0.292580 -0.367663
O18   O     O_3   0.244020 0.455740 0.707420 -0.367312
O19   O     O_3   0.744020 0.044260 0.207420 -0.367677
O20   O     O_3   0.255980 0.955740 0.792580 -0.367305
V1    V     V_3+5 0.748890 0.818640 0.242100 1.459593
V2    V     V_3+5 0.251110 0.181360 0.757900 1.461823
V3    V     V_3+5 0.751110 0.318640 0.257900 1.459633
V4    V     V_3+5 0.248890 0.681360 0.742100 1.461824
C17   C     C_R   0.084612 0.972773 0.609809 -0.303749
C18   C     C_R   0.915457 0.024285 0.389946 -0.307662
C19   C     C_R   0.415387 0.472754 0.890191 -0.303727
C20   C     C_R   0.584545 0.524303 0.110050 -0.307635
C21   C     C_1   0.425619 0.982457 0.570883 0.001485
C22   C     C_1   0.574348 0.018586 0.429109 0.005965
C23   C     C_1   0.074395 0.482460 0.929131 0.001425
C24   C     C_1   0.925658 0.518586 0.070897 0.006000
C25   C     C_R   0.040680 0.966772 0.417841 0.400099
C26   C     C_R   0.957819 0.977152 0.581274 0.401747
C27   C     C_R   0.459317 0.466887 0.082159 0.400116
C28   C     C_R   0.542182 0.477057 0.918724 0.401773
C29   C     C_R   0.982031 0.995391 0.368176 0.199307
C30   C     C_R   0.017217 0.977901 0.631330 0.200585
C31   C     C_R   0.517968 0.495493 0.131823 0.199296
C32   C     C_R   0.482782 0.477802 0.868666 0.200560
C33   C     C_R   0.907600 0.022487 0.460562 0.554570
C34   C     C_R   0.092582 0.975569 0.539234 0.546071
C35   C     C_R   0.592403 0.522434 0.039435 0.554580
C36   C     C_R   0.407418 0.475621 0.960765 0.546094
C37   C     C_R   0.966003 0.997590 0.510507 -0.237933
C38   C     C_R   0.033688 0.983327 0.489026 -0.236844
C39   C     C_R   0.533999 0.497552 0.989489 -0.237883
C40   C     C_R   0.466312 0.483367 0.010972 -0.236859
F1    F     F_    0.158369 0.974206 0.520247 -0.686446
F2    F     F_    0.842417 0.044153 0.479917 -0.685871
F3    F     F_    0.341631 0.474340 0.979752 -0.686429
F4    F     F_    0.657590 0.544003 0.020083 -0.685957
O21   O     O_3   0.011087 0.960839 0.701337 -0.582646
C41   C     C_3   0.973089 0.114762 0.726636 0.087750
H1    H     H_    0.968526 0.083934 0.781771 0.143201
H2    H     H_    0.918813 0.124081 0.701867 0.164223
C42   C     C_3   0.010054 0.308376 0.722104 -0.345789
H3    H     H_    0.064748 0.294946 0.745392 0.204792
H4    H     H_    0.010302 0.351643 0.667383 0.178351
C43   C     C_3   0.973383 0.463608 0.759849 -0.839866
H5    H     H_    0.918735 0.480932 0.736398 0.224707
H6    H     H_    0.001371 0.601725 0.756651 0.261569
H7    H     H_    0.972713 0.424996 0.814860 0.237879
O22   O     O_3   0.986905 0.969128 0.298355 -0.577204
C44   C     C_3   0.028547 0.112602 0.271775 0.079715
H8    H     H_    0.040891 0.062886 0.220421 0.146333
H9    H     H_    0.079526 0.133578 0.302802 0.162135
C45   C     C_3   0.989622 0.303666 0.262507 -0.345798
H10   H     H_    0.938944 0.279775 0.231244 0.207622
H11   H     H_    0.979479 0.361501 0.313492 0.179499
C46   C     C_3   0.032024 0.449867 0.226445 -0.831353
H12   H     H_    0.084365 0.468602 0.255183 0.222424
H13   H     H_    0.004671 0.590112 0.223607 0.250490
H14   H     H_    0.038649 0.401047 0.173447 0.240235
O23   O     O_3   0.488900 0.460642 0.798658 -0.582668
C47   C     C_3   0.526933 0.614438 0.773323 0.087705
H15   H     H_    0.531459 0.583531 0.718187 0.143169
H16   H     H_    0.581220 0.623624 0.798064 0.164258
C48   C     C_3   0.490038 0.808167 0.777841 -0.345629
H17   H     H_    0.435350 0.794914 0.754514 0.204691
H18   H     H_    0.489768 0.851426 0.832560 0.178379
C49   C     C_3   0.526802 0.963290 0.740133 -0.839996
H19   H     H_    0.581449 0.980406 0.763620 0.224728
H20   H     H_    0.498879 0.101514 0.743331 0.261532
H21   H     H_    0.527486 0.924709 0.685120 0.237913
O24   O     O_3   0.513095 0.469269 0.201646 -0.577219
C50   C     C_3   0.471457 0.612762 0.228221 0.079707
H22   H     H_    0.459139 0.563092 0.279590 0.146340
H23   H     H_    0.420464 0.633682 0.197212 0.162147
C51   C     C_3   0.510368 0.803854 0.237446 -0.345805
H24   H     H_    0.561068 0.780012 0.268674 0.207642
H25   H     H_    0.520464 0.861680 0.186446 0.179470
C52   C     C_3   0.467984 0.950038 0.273537 -0.831400
H26   H     H_    0.415624 0.968743 0.244834 0.222443
H27   H     H_    0.495325 0.090296 0.276353 0.250504
H28   H     H_    0.461400 0.901218 0.326544 0.240241
O25   O     O_3   0.104931 0.919886 0.396789 -0.534023
C53   C     C_3   0.105944 0.724429 0.377476 0.137880
H29   H     H_    0.135948 0.714070 0.332146 0.128927
H30   H     H_    0.053265 0.662726 0.361479 0.113766
C54   C     C_3   0.143086 0.604588 0.435950 -0.305156
H31   H     H_    0.196736 0.660740 0.449502 0.244554
H32   H     H_    0.114113 0.613979 0.482020 0.202170
C55   C     C_3   0.147257 0.394781 0.415473 -0.786360
H33   H     H_    0.093844 0.335471 0.404986 0.228925
H34   H     H_    0.175746 0.312606 0.458250 0.291058
H35   H     H_    0.175233 0.379330 0.368926 0.224916
O26   O     O_3   0.891757 0.947145 0.600992 -0.535658
C56   C     C_3   0.883606 0.752179 0.618849 0.125433
H36   H     H_    0.853911 0.748039 0.664540 0.128925
H37   H     H_    0.933730 0.675266 0.633561 0.113786
C57   C     C_3   0.842071 0.644947 0.559683 -0.314659
H38   H     H_    0.790817 0.716360 0.546764 0.238027
H39   H     H_    0.871067 0.648168 0.513494 0.202160
C58   C     C_3   0.830076 0.436552 0.578873 -0.759904
H40   H     H_    0.880754 0.360558 0.588952 0.249111
H41   H     H_    0.798250 0.364241 0.535728 0.284114
H42   H     H_    0.801784 0.428495 0.625442 0.217299
O27   O     O_3   0.395062 0.420069 0.103215 -0.534027
C59   C     C_3   0.394034 0.224628 0.122548 0.137835
H43   H     H_    0.364024 0.214323 0.167876 0.128935
H44   H     H_    0.446708 0.162899 0.138555 0.113786
C60   C     C_3   0.356894 0.104765 0.064083 -0.305143
H45   H     H_    0.303249 0.160947 0.050515 0.244572
H46   H     H_    0.385880 0.114072 0.018019 0.202152
C61   C     C_3   0.352697 0.894991 0.084587 -0.786423
H47   H     H_    0.406105 0.835646 0.095086 0.228973
H48   H     H_    0.324204 0.812799 0.041820 0.291050
H49   H     H_    0.324715 0.879633 0.131133 0.224899
O28   O     O_3   0.608247 0.447074 0.899009 -0.535678
C62   C     C_3   0.616417 0.252109 0.881167 0.125296
H50   H     H_    0.646246 0.247959 0.835568 0.128989
H51   H     H_    0.566305 0.175292 0.866315 0.113909
C63   C     C_3   0.657782 0.144774 0.940417 -0.314738
H52   H     H_    0.708991 0.216249 0.953537 0.238319
H53   H     H_    0.628604 0.147772 0.986487 0.201863
C64   C     C_3   0.669910 0.936477 0.921196 -0.759972
H54   H     H_    0.619271 0.860430 0.910868 0.249089
H55   H     H_    0.701573 0.864068 0.964425 0.284253
H56   H     H_    0.698427 0.928653 0.874771 0.217344

loop_
_geom_bond_atom_site_label_1
_geom_bond_atom_site_label_2
_ccdc_geom_bond_type
C34   C38   A    
C25   O25   S    
C46   H12   S    
C1    C21   S    
O5    V1    S    
C42   H4    S    
C42   H3    S    
C5    C16   S    
C3    C23   S    
C62   H50   S    
O10   C10   A    
C45   C46   S    
C33   F2    S    
C4    C24   S    
C58   H42   S    
C57   H38   S    
C53   H29   S    
C48   C49   S    
O27   C59   S    
C31   O24   S    
O17   V3    S    
O18   V4    S    
O19   V1    S    
C45   H11   S    
C17   C34   A    
O25   C53   S    
C52   H27   S    
C18   C29   A    
O12   V4    S    
C60   C61   S    
C25   C29   A    
C51   H24   S    
C20   C35   A    
O14   V2    S    
C12   C17   S    
C5    O15   A    
C6    O16   A    
C44   H9    S    
C27   O27   S    
C32   O23   S    
C48   H17   S    
C36   F3    S    
C63   C64   S    
C2    C22   S    
C56   C57   S    
C8    O14   A    
O6    V2    S    
C41   H1    S    
C64   H55   S    
O11   C11   A    
C1    C2    T    
C6    C15   S    
O5    C5    A    
C55   H35   S    
O7    C7    A    
O8    C8    A    
C15   C23   T    
O1    C9    A    
C16   C24   T    
C61   H49   S    
O21   C41   S    
C59   C60   S    
C9    C20   S    
O4    C12   A    
C55   H34   S    
C10   C19   S    
C44   H8    S    
O3    C11   A    
C61   H47   S    
O24   C50   S    
O20   V4    S    
C62   C63   S    
C26   O26   S    
C43   H5    S    
C59   H44   S    
C52   H28   S    
O23   C47   S    
O22   C44   S    
O12   C12   A    
C8    C13   S    
C47   C48   S    
C18   C33   A    
C13   C21   T    
O19   V3    S    
C11   C18   S    
C35   F4    S    
O6    C6    A    
C34   F1    S    
C60   H45   S    
C29   O22   S    
C41   C42   S    
C47   H16   S    
C50   H23   S    
O9    V1    S    
C45   H10   S    
C64   H56   S    
O11   V3    S    
C19   C36   A    
O4    V2    S    
C49   H20   S    
C46   H13   S    
C56   H36   S    
C42   C43   S    
C63   H53   S    
C54   C55   S    
C58   H40   S    
C57   C58   S    
C44   C45   S    
C55   H33   S    
C7    C14   S    
O28   C62   S    
C28   O28   S    
C25   C38   A    
C62   H51   S    
O18   V2    S    
C14   C22   T    
C27   C40   A    
C43   H6    S    
C59   H43   S    
C58   H41   S    
C28   C39   A    
C57   H39   S    
O2    C10   A    
C53   H30   S    
C3    C4    T    
C48   H18   S    
C33   C37   A    
C49   H21   S    
C35   C39   A    
C36   C40   A    
O9    C9    A    
C54   H32   S    
O10   V2    S    
C26   C30   A    
C52   H26   S    
C60   H46   S    
C20   C31   A    
C30   O21   S    
C51   H25   S    
O15   V3    S    
O20   V2    S    
C47   H15   S    
O16   V4    S    
C50   C51   S    
C27   C31   A    
C37   C38   A    
O17   V1    S    
C17   C30   A    
C53   C54   S    
O1    V3    S    
C39   C40   A    
O2    V4    S    
C19   C32   A    
C7    O13   A    
C43   H7    S    
O13   V1    S    
O3    V1    S    
C49   H19   S    
C46   H14   S    
C50   H22   S    
C56   H37   S    
C26   C37   A    
O7    V3    S    
C63   H52   S    
C41   H2    S    
O8    V4    S    
C64   H54   S    
C54   H31   S    
C61   H48   S    
C28   C32   A    
O26   C56   S    
C51   C52   S    
