data_mof_unit_46956.cif
_audit_creation_date              2012-12-10T18:47:02-0500
_audit_creation_method            fapswitch 2.2
_symmetry_space_group_name_H-M    P1
_symmetry_Int_Tables_number       1
_space_group_crystal_system       triclinic
_cell_length_a                    10.69445
_cell_length_b                    9.853671
_cell_length_c                    14.905905
_cell_angle_alpha                 90.378102
_cell_angle_beta                  89.397896
_cell_angle_gamma                 89.842621
_cell_volume                      1570.65102331

loop_
_atom_site_label
_atom_site_type_symbol
_atom_type_description
_atom_site_fract_x
_atom_site_fract_y
_atom_site_fract_z
_atom_type_partial_charge
Br1   Br    Br    0.133440 0.642027 0.893984 -0.357252
Br2   Br    Br    0.866559 0.357972 0.106016 -0.357252
Br3   Br    Br    0.134503 0.643144 0.114241 -0.371189
Br4   Br    Br    0.865497 0.356856 0.885759 -0.371189
C1    C     C_R   0.260462 0.500494 0.499771 0.876160
C2    C     C_R   0.127898 0.502094 0.498955 -0.131355
C3    C     C_R   0.575731 0.072263 0.556493 -0.044832
C4    C     C_R   0.424269 0.927737 0.443507 -0.044832
C5    C     C_R   0.424332 0.071526 0.443485 -0.044455
C6    C     C_R   0.575668 0.928473 0.556515 -0.044455
C7    C     C_R   0.500364 0.499629 0.327054 0.875000
C8    C     C_R   0.499636 0.500371 0.672946 0.875000
C9    C     C_R   0.605667 0.456426 0.811903 -0.161402
C10   C     C_R   0.394333 0.543574 0.188097 -0.161402
C11   C     C_R   0.499894 0.501008 0.768199 -0.074395
C12   C     C_R   0.739538 0.499506 0.500229 0.876160
C13   C     C_R   0.500106 0.498992 0.231801 -0.074394
C14   C     C_R   0.393988 0.544595 0.814235 -0.156962
C15   C     C_R   0.606012 0.455405 0.185765 -0.156962
C16   C     C_R   0.391452 0.544019 0.907492 0.012611
C17   C     C_R   0.608548 0.455980 0.092508 0.012610
C18   C     C_R   0.499967 0.500192 0.953269 -0.017295
C19   C     C_R   0.500033 0.499808 0.046731 -0.017295
C20   C     C_R   0.608328 0.456496 0.905132 0.017001
C21   C     C_R   0.391672 0.543504 0.094868 0.017001
C22   C     C_R   0.283334 0.585680 0.955404 0.241524
C23   C     C_R   0.283561 0.585700 0.049313 0.237994
C24   C     C_R   0.716666 0.414320 0.044596 0.241524
C25   C     C_1   0.134772 0.348520 0.365241 0.214095
C26   C     C_1   0.865228 0.651480 0.634759 0.214095
C27   C     C_1   0.871287 0.328923 0.375213 0.231658
C28   C     C_1   0.128713 0.671076 0.624787 0.231658
C29   C     C_R   0.716439 0.414299 0.950687 0.237994
C30   C     C_R   0.066093 0.421296 0.435415 -0.053969
C31   C     C_R   0.933906 0.578704 0.564585 -0.053969
C32   C     C_R   0.936793 0.417059 0.437561 -0.060112
C33   C     C_R   0.063207 0.582941 0.562439 -0.060112
C34   C     C_R   0.872102 0.497906 0.501044 -0.131355
H1    H     H_    0.685096 0.423522 0.771715 0.172825
H2    H     H_    0.314904 0.576478 0.228285 0.172825
H3    H     H_    0.314084 0.576330 0.775925 0.178730
H4    H     H_    0.685916 0.423670 0.224075 0.178730
H5    H     H_    0.636336 0.126940 0.601682 0.144757
H6    H     H_    0.363664 0.873059 0.398318 0.144757
H7    H     H_    0.363902 0.125576 0.398239 0.150827
H8    H     H_    0.636098 0.874424 0.601760 0.150827
N1    N     N_R   0.500000 0.857200 0.500000 -0.091314
N2    N     N_R   0.500000 0.142800 0.500000 -0.091314
N3    N     N_1   0.189157 0.291073 0.309148 -0.164034
N4    N     N_1   0.810843 0.708926 0.690851 -0.164034
N5    N     N_1   0.819464 0.257458 0.326282 -0.146306
N6    N     N_1   0.180535 0.742542 0.673718 -0.146306
O1    O     O_R   0.316770 0.614620 0.499990 -0.622850
O2    O     O_R   0.683230 0.385380 0.500010 -0.622849
O3    O     O_R   0.683230 0.614620 0.500010 -0.614861
O4    O     O_R   0.316770 0.385380 0.499990 -0.614861
O5    O     O_R   0.499980 0.614680 0.367850 -0.613596
O6    O     O_R   0.500020 0.385320 0.632150 -0.613596
O7    O     O_R   0.500020 0.614680 0.632150 -0.609219
O8    O     O_R   0.499980 0.385320 0.367850 -0.609219
Zn1   Zn    Zn3+2 0.500000 0.653120 0.500000 0.982215
Zn2   Zn    Zn3+2 0.500000 0.346880 0.500000 0.982214

loop_
_geom_bond_atom_site_label_1
_geom_bond_atom_site_label_2
_ccdc_geom_bond_type
C6    H8    S    
C11   C14   A    
C15   H4    S    
O6    Zn2   S    
C15   C17   A    
C3    H5    S    
C21   C23   A    
N1    Zn1   S    
C1    O4    A    
C30   C32   A    
C20   C29   A    
C8    C11   S    
O4    Zn2   S    
C8    O6    A    
C3    N2    A    
C7    O5    A    
C32   C34   A    
C26   N4    T    
C4    N1    A    
C10   C21   A    
C25   N3    T    
C28   C33   S    
C5    H7    S    
C1    O1    A    
C10   C13   A    
C25   C30   S    
C22   C23   A    
C1    C2    S    
O5    Zn1   S    
C16   C22   A    
C26   C31   S    
O3    Zn1   S    
C18   C20   A    
Br3   C23   S    
C27   N5    T    
C13   C15   A    
C17   C24   A    
C16   C18   A    
C24   C29   A    
C14   C16   A    
C9    C11   A    
C17   C19   A    
Br1   C22   S    
C12   O2    A    
C12   O3    A    
C9    H1    S    
C14   H3    S    
C10   H2    S    
C7    O8    A    
C4    H6    S    
C31   C34   A    
C5    N2    A    
O8    Zn2   S    
C19   C21   A    
C3    C6    A    
C12   C34   S    
C6    N1    A    
Br4   C29   S    
C7    C13   S    
Br2   C24   S    
O2    Zn2   S    
C31   C33   A    
C27   C32   S    
C8    O7    A    
N2    Zn2   S    
O1    Zn1   S    
C18   C19   A    
C28   N6    T    
C2    C30   A    
C9    C20   A    
C2    C33   A    
C4    C5    A    
O7    Zn1   S    
