data_mof_unit_45334.cif
_audit_creation_date              2012-12-11T16:24:26-0500
_audit_creation_method            fapswitch 2.2
_symmetry_space_group_name_H-M    P1
_symmetry_Int_Tables_number       1
_space_group_crystal_system       triclinic
_cell_length_a                    14.748995
_cell_length_b                    14.771475
_cell_length_c                    33.273686
_cell_angle_alpha                 96.018294
_cell_angle_beta                  96.199952
_cell_angle_gamma                 61.214185
_cell_volume                      6304.55844574

loop_
_atom_site_label
_atom_site_type_symbol
_atom_type_description
_atom_site_fract_x
_atom_site_fract_y
_atom_site_fract_z
_atom_type_partial_charge
C1    C     C_R   0.390974 0.699589 0.446109 0.547081
C2    C     C_1   0.314318 0.339637 0.229119 -0.015128
C3    C     C_1   0.319688 0.343941 0.265463 -0.015183
C4    C     C_R   0.405836 0.386413 0.433996 0.544764
C5    C     C_R   0.291249 0.294084 0.101821 0.019520
C6    C     C_R   0.756347 0.373383 0.410148 0.022105
C7    C     C_R   0.789308 0.435269 0.393537 -0.128598
C8    C     C_R   0.818535 0.414572 0.353837 -0.118417
C9    C     C_R   0.815599 0.331481 0.330107 0.035422
C10   C     C_R   0.792150 0.263871 0.347941 -0.120215
C11   C     C_R   0.762654 0.284712 0.387690 -0.130324
C12   C     C_R   0.329883 0.347691 0.308760 0.041485
C13   C     C_R   0.834820 0.311833 0.204757 0.347043
C14   C     C_R   0.827034 0.321877 0.286239 0.347387
C15   C     C_R   0.835375 0.390195 0.142179 -0.119483
C16   C     C_R   0.700707 0.410050 0.447522 0.543009
C17   C     C_R   0.865401 0.378995 0.102973 -0.130061
C18   C     C_R   0.909462 0.197811 0.099226 -0.131165
C19   C     C_R   0.879329 0.209059 0.138535 -0.119992
C20   C     C_R   0.846755 0.304213 0.160992 0.034272
C21   C     C_R   0.907396 0.281597 0.081909 0.021651
C22   C     C_R   0.370919 0.754526 0.409077 0.023097
C23   C     C_R   0.411504 0.264976 0.328485 -0.107841
C24   C     C_R   0.276831 0.784165 0.385826 -0.129033
C25   C     C_R   0.266681 0.812177 0.346293 -0.119211
C26   C     C_R   0.350318 0.811319 0.329373 0.034741
C27   C     C_R   0.440876 0.791254 0.353882 -0.119254
C28   C     C_R   0.393311 0.701887 0.561254 0.558690
C29   C     C_R   0.451131 0.763010 0.393462 -0.127942
C30   C     C_R   0.343519 0.828543 0.204347 0.347953
C31   C     C_R   0.346206 0.821770 0.285615 0.348348
C32   C     C_R   0.258362 0.831989 0.135267 -0.119473
C33   C     C_R   0.238638 0.862577 0.095718 -0.130460
C34   C     C_R   0.431450 0.274137 0.370222 -0.123401
C35   C     C_R   0.381781 0.901470 0.104850 -0.131612
C36   C     C_R   0.401578 0.870751 0.144460 -0.120699
C37   C     C_R   0.336776 0.840583 0.160594 0.035304
C38   C     C_R   0.296915 0.902412 0.080853 0.021786
C39   C     C_R   0.371591 0.369395 0.585193 0.021749
C40   C     C_R   0.407360 0.388899 0.549032 0.546101
C41   C     C_R   0.285445 0.449149 0.604136 -0.130600
C42   C     C_R   0.266426 0.439994 0.643252 -0.120856
C43   C     C_R   0.333333 0.351029 0.663980 0.033668
C44   C     C_R   0.413697 0.267717 0.643607 -0.115481
C45   C     C_R   0.393885 0.252504 0.165903 -0.108117
C46   C     C_R   0.432573 0.276751 0.604528 -0.123984
C47   C     C_R   0.319134 0.348449 0.788688 0.346079
C48   C     C_R   0.325754 0.348366 0.707549 0.346979
C49   C     C_R   0.218882 0.403816 0.850619 -0.121754
C50   C     C_R   0.207561 0.384072 0.889334 -0.131656
C51   C     C_R   0.386573 0.249130 0.893112 -0.130057
C52   C     C_R   0.701262 0.413661 0.562698 0.543034
C53   C     C_R   0.397840 0.268802 0.854479 -0.120659
C54   C     C_R   0.312706 0.342852 0.832132 0.034414
C55   C     C_R   0.289940 0.303098 0.910048 0.022050
C56   C     C_R   0.384896 0.234185 0.124071 -0.124582
C57   C     C_R   0.753902 0.380724 0.602966 0.017083
C58   C     C_R   0.778282 0.447735 0.629503 -0.116352
C59   C     C_R   0.806385 0.427423 0.670313 -0.106371
C60   C     C_R   0.810931 0.339863 0.684968 0.038883
C61   C     C_R   0.793060 0.269514 0.658369 -0.109219
C62   C     C_R   0.764981 0.289574 0.617551 -0.124768
C63   C     C_R   0.885891 0.213111 0.822821 -0.110191
C64   C     C_R   0.370041 0.366573 0.392548 0.020203
C65   C     C_R   0.913620 0.201650 0.864198 -0.127277
C66   C     C_R   0.871543 0.382437 0.873492 -0.126036
C67   C     C_R   0.209610 0.377437 0.121814 -0.125398
C68   C     C_R   0.843689 0.393688 0.832175 -0.110669
C69   C     C_R   0.853759 0.308374 0.806644 0.041441
C70   C     C_1   0.838364 0.317238 0.763638 -0.020001
C71   C     C_1   0.826723 0.326270 0.727672 -0.019948
C72   C     C_R   0.910168 0.285397 0.889709 0.019500
C73   C     C_R   0.375239 0.755086 0.602271 0.028547
C74   C     C_R   0.290312 0.765085 0.621784 -0.144283
C75   C     C_R   0.281518 0.792223 0.663013 -0.120660
C76   C     C_R   0.283612 0.446444 0.372799 -0.125232
C77   C     C_R   0.356649 0.810930 0.685567 0.017562
C78   C     C_R   0.218804 0.395448 0.163683 -0.107843
C79   C     C_R   0.437282 0.809102 0.666400 -0.084966
C80   C     C_R   0.447081 0.782151 0.624842 0.079829
C81   C     C_R   0.399226 0.881605 0.833419 -0.110862
C82   C     C_R   0.378546 0.910017 0.874102 -0.126033
C83   C     C_R   0.229423 0.880275 0.863128 -0.126652
C84   C     C_R   0.250420 0.851740 0.822503 -0.110818
C85   C     C_R   0.333506 0.855221 0.807410 0.040052
C86   C     C_1   0.346055 0.839161 0.764730 -0.019236
C87   C     C_1   0.352557 0.827094 0.728679 -0.018932
C88   C     C_R   0.263975 0.437088 0.331030 -0.108269
C89   C     C_R   0.309757 0.330973 0.185816 0.041510
C90   C     C_R   0.291319 0.912984 0.889042 0.019645
C91   C     C_R   0.963491 0.264184 0.045529 0.545866
C92   C     C_R   0.272724 0.259382 0.060041 0.544146
C93   C     C_R   0.259247 0.959609 0.043769 0.545720
C94   C     C_R   0.962628 0.267635 0.930723 0.542534
C95   C     C_R   0.270900 0.264066 0.945392 0.545478
C96   C     C_R   0.256282 0.964847 0.929035 0.543310
Cr1   Cr    Cr6+3 0.576280 0.580550 0.506370 1.059148
Cr2   Cr    Cr6+3 0.346780 0.572400 0.496520 1.015663
Cr3   Cr    Cr6+3 0.576960 0.347070 0.497150 1.017649
Cr4   Cr    Cr6+3 0.087320 0.083240 0.984860 1.013345
Cr5   Cr    Cr6+3 0.087720 0.316210 0.996740 1.013196
Cr6   Cr    Cr6+3 0.317350 0.090340 0.995890 1.013070
H1    H     H_    0.449120 0.169527 0.109576 0.129597
H2    H     H_    0.524358 0.741342 0.410806 0.133675
H3    H     H_    0.173573 0.861109 0.077722 0.130177
H4    H     H_    0.464740 0.202521 0.182916 0.118089
H5    H     H_    0.195051 0.829410 0.328389 0.137112
H6    H     H_    0.506174 0.791286 0.341821 0.136747
H7    H     H_    0.208459 0.806921 0.146598 0.135227
H8    H     H_    0.428573 0.931088 0.094081 0.129906
H9    H     H_    0.463493 0.876870 0.163111 0.134887
H10   H     H_    0.236648 0.521317 0.589870 0.129509
H11   H     H_    0.498840 0.213505 0.590516 0.138806
H12   H     H_    0.738401 0.235118 0.399820 0.130515
H13   H     H_    0.132262 0.427411 0.901761 0.130480
H14   H     H_    0.203113 0.505017 0.658027 0.133959
H15   H     H_    0.465319 0.197268 0.658528 0.141467
H16   H     H_    0.462669 0.195346 0.311362 0.118248
H17   H     H_    0.152247 0.462313 0.834304 0.133145
H18   H     H_    0.451859 0.187221 0.908617 0.129923
H19   H     H_    0.471838 0.222044 0.841352 0.134107
H20   H     H_    0.943609 0.125788 0.875672 0.128388
H21   H     H_    0.893721 0.146682 0.803232 0.113002
H22   H     H_    0.796693 0.201374 0.669471 0.115941
H23   H     H_    0.861551 0.445291 0.090145 0.130503
H24   H     H_    0.746586 0.236490 0.597961 0.130655
H25   H     H_    0.770172 0.518679 0.619301 0.157505
H26   H     H_    0.818518 0.467840 0.819884 0.112632
H27   H     H_    0.867988 0.448366 0.892299 0.127526
H28   H     H_    0.498467 0.211286 0.384531 0.131112
H29   H     H_    0.820388 0.482184 0.690740 0.121312
H30   H     H_    0.427581 0.935005 0.893233 0.128855
H31   H     H_    0.463840 0.884291 0.821933 0.114656
H32   H     H_    0.494144 0.826115 0.683956 0.137135
H33   H     H_    0.233127 0.746147 0.605754 0.136772
H34   H     H_    0.838388 0.466846 0.341155 0.135946
H35   H     H_    0.199306 0.831116 0.802500 0.114392
H36   H     H_    0.161688 0.881850 0.873657 0.128010
H37   H     H_    0.218081 0.794639 0.677610 0.119415
H38   H     H_    0.234932 0.518646 0.389112 0.129717
H39   H     H_    0.153454 0.456586 0.178959 0.118159
H40   H     H_    0.136442 0.424843 0.105562 0.130156
H41   H     H_    0.200449 0.501355 0.315900 0.117338
H42   H     H_    0.786447 0.503456 0.410281 0.133253
H43   H     H_    0.790414 0.198494 0.330517 0.134774
H44   H     H_    0.808362 0.465123 0.158439 0.137272
H45   H     H_    0.941018 0.121865 0.083580 0.131541
H46   H     H_    0.887740 0.141699 0.152105 0.137024
H47   H     H_    0.213194 0.779537 0.397210 0.131953
I1    I     I_    0.573070 0.784772 0.600281 -0.390379
N1    N     N_R   0.828297 0.395792 0.227854 -0.229402
N2    N     N_R   0.423075 0.827868 0.268998 -0.229802
N3    N     N_R   0.421383 0.831903 0.229139 -0.230027
N4    N     N_R   0.240404 0.423309 0.766955 -0.235243
N5    N     N_R   0.243993 0.423676 0.727174 -0.234276
N6    N     N_R   0.404290 0.273682 0.729318 -0.231717
N7    N     N_R   0.400887 0.273537 0.769035 -0.232972
N8    N     N_R   0.824149 0.400858 0.267744 -0.228837
N9    N     N_R   0.833294 0.237824 0.263176 -0.229949
N10   N     N_R   0.837864 0.232571 0.223206 -0.229963
N11   N     N_R   0.267003 0.822095 0.221003 -0.229750
N12   N     N_R   0.268510 0.818411 0.260796 -0.229429
O1    O     O_R   0.679450 0.499830 0.463150 -0.516444
O2    O     O_R   0.340240 0.172500 0.045430 -0.519614
O3    O     O_R   0.309670 0.000990 0.032050 -0.502031
O4    O     O_R   0.480650 0.664000 0.464630 -0.496351
O5    O     O_R   0.168330 0.982130 0.939200 -0.520351
O6    O     O_R   0.000140 0.178170 0.944610 -0.501980
O7    O     O_R   0.983010 0.336750 0.948660 -0.519773
O8    O     O_R   0.181800 0.312190 0.959860 -0.502105
O9    O     O_R   0.338500 0.175680 0.956950 -0.519552
O10   O     O_R   0.308050 0.003930 0.950020 -0.501768
O11   O     O_3   0.164130 0.163270 0.992500 -0.236425
O12   O     O_R   0.356040 0.477400 0.534170 -0.503409
O13   O     O_R   0.323930 0.675950 0.455370 -0.520428
O14   O     O_R   0.354700 0.475360 0.451930 -0.502145
O15   O     O_R   0.494470 0.320860 0.448390 -0.517648
O16   O     O_R   0.662580 0.357570 0.460050 -0.503432
O17   O     O_R   0.680900 0.502040 0.551870 -0.495388
O18   O     O_R   0.481990 0.666040 0.546870 -0.459409
O19   O     O_R   0.325370 0.678160 0.544080 -0.527637
O20   O     O_R   0.495910 0.323070 0.537100 -0.516988
O21   O     O_R   0.663920 0.359620 0.542290 -0.504819
O22   O     O_3   0.500010 0.500010 0.500010 -0.245021
O23   O     O_R   0.170070 0.978950 0.027680 -0.519552
O24   O     O_R   0.001760 0.175230 0.026640 -0.501363
O25   O     O_R   0.984760 0.333570 0.037150 -0.519513
O26   O     O_R   0.183410 0.309240 0.041890 -0.501486

loop_
_geom_bond_atom_site_label_1
_geom_bond_atom_site_label_2
_ccdc_geom_bond_type
C66   C68   A    
C63   C65   A    
C31   N2    A    
C22   C29   A    
C27   C29   A    
C18   C21   A    
C41   C42   A    
C5    C56   A    
Cr5   O11   S    
C35   C36   A    
C28   O18   A    
C52   O21   A    
C4    O15   A    
C5    C67   A    
C23   H16   S    
C81   C82   A    
C57   C62   A    
C39   C41   A    
C53   C54   A    
Cr6   O11   S    
C80   I1    S    
C12   C23   A    
C59   H29   S    
C26   C27   A    
C58   H25   S    
C14   N8    A    
C61   H22   S    
C44   H15   S    
C36   C37   A    
Cr3   O15   S    
C94   O7    A    
C47   N7    A    
Cr2   O12   S    
Cr1   O17   S    
C8    H34   S    
Cr1   O4    S    
C30   C37   S    
C50   H13   S    
C73   C74   A    
C79   H32   S    
C11   H12   S    
Cr3   O20   S    
C3    C12   S    
C68   C69   A    
C30   N3    A    
C66   C72   A    
C63   C69   A    
C45   C56   A    
C16   O16   A    
C8    C9    A    
Cr1   O1    S    
C41   H10   S    
Cr5   O7    S    
C70   C71   T    
Cr5   O26   S    
C45   C89   A    
C43   C48   S    
C76   C88   A    
C13   N10   A    
Cr3   O21   S    
C46   H11   S    
C66   H27   S    
C72   C94   S    
C92   O2    A    
C76   H38   S    
C48   N6    A    
C31   N12   A    
C93   O3    A    
C59   C60   A    
C16   O1    A    
C61   C62   A    
C67   C78   A    
C28   C73   S    
C7    H42   S    
C44   C46   A    
N11   N12   A    
C40   O20   A    
C77   C79   A    
C78   C89   A    
Cr6   O10   S    
C15   C20   A    
C77   C87   S    
C74   C75   A    
C12   C88   A    
N1    N8    A    
C7    C8    A    
C35   C38   A    
C33   H3    S    
C84   C85   A    
C13   N1    A    
Cr3   O16   S    
C55   C95   S    
C18   H45   S    
C32   H7    S    
C78   H39   S    
C94   O6    A    
C39   C40   S    
C62   H24   S    
C86   C87   T    
C18   C19   A    
Cr1   O18   S    
C60   C71   S    
C25   C26   A    
C65   H20   S    
C17   C21   A    
C29   H2    S    
C60   C61   A    
C51   C53   A    
N6    N7    A    
C2    C89   S    
Cr4   O24   S    
C9    C14   S    
C21   C91   S    
Cr2   O14   S    
N9    N10   A    
C23   C34   A    
C74   H33   S    
C36   H9    S    
C34   C64   A    
C51   H18   S    
C64   C76   A    
C96   O5    A    
Cr5   O8    S    
C32   C37   A    
C24   C25   A    
C81   H31   S    
C75   C77   A    
N4    N5    A    
Cr3   O22   S    
C35   H8    S    
C47   C54   S    
C42   H14   S    
C91   O24   A    
C84   H35   S    
Cr6   O3    S    
C39   C46   A    
C43   C44   A    
C96   O10   A    
C68   H26   S    
C22   C24   A    
C83   C84   A    
C42   C43   A    
C82   H30   S    
C52   C57   S    
C6    C11   A    
C45   H4    S    
C25   H5    S    
Cr1   O22   S    
C9    C10   A    
Cr6   O9    S    
C15   C17   A    
C83   C90   A    
C91   O25   A    
C1    O13   A    
C88   H41   S    
C13   C20   S    
C26   C31   S    
C48   N5    A    
C50   C55   A    
C56   H1    S    
C85   C86   S    
C15   H44   S    
C63   H21   S    
C92   O26   A    
C90   C96   S    
C6    C7    A    
C47   N4    A    
C65   C72   A    
C4    C64   S    
C19   H46   S    
C82   C90   A    
C14   N9    A    
Cr4   O6    S    
C32   C33   A    
C19   C20   A    
C2    C3    T    
C58   C59   A    
C52   O17   A    
C24   H47   S    
C53   H19   S    
C40   O12   A    
Cr2   O13   S    
C17   H23   S    
C57   C58   A    
C49   H17   S    
C27   H6    S    
Cr2   O19   S    
C28   O19   A    
C38   C93   S    
Cr4   O5    S    
C73   C80   A    
Cr4   O23   S    
C51   C55   A    
Cr2   O22   S    
C69   C70   S    
C95   O8    A    
C5    C92   S    
C10   C11   A    
C10   H43   S    
C6    C16   S    
C79   C80   A    
C1    C22   S    
N2    N3    A    
C34   H28   S    
Cr6   O2    S    
C49   C50   A    
C4    O14   A    
Cr4   O11   S    
C33   C38   A    
C75   H37   S    
C30   N11   A    
Cr5   O25   S    
C67   H40   S    
C95   O9    A    
C83   H36   S    
C81   C85   A    
C49   C54   A    
C1    O4    A    
C93   O23   A    
