data_mof_unit_47505.cif
_audit_creation_date              2012-12-11T15:16:37-0500
_audit_creation_method            fapswitch 2.2
_symmetry_space_group_name_H-M    P1
_symmetry_Int_Tables_number       1
_space_group_crystal_system       triclinic
_cell_length_a                    25.1455
_cell_length_b                    7.241655
_cell_length_c                    21.904251
_cell_angle_alpha                 90.001245
_cell_angle_beta                  109.970292
_cell_angle_gamma                 90.000178
_cell_volume                      3748.81685438

loop_
_atom_site_label
_atom_site_type_symbol
_atom_type_description
_atom_site_fract_x
_atom_site_fract_y
_atom_site_fract_z
_atom_type_partial_charge
O1    O     O_R   0.554350 0.505270 0.581390 -0.532015
O2    O     O_R   0.445650 0.005270 0.418610 -0.532016
O3    O     O_R   0.553380 0.177580 0.454800 -0.540339
O4    O     O_R   0.446620 0.677580 0.545200 -0.540341
C1    C     C_R   0.565828 0.344583 0.438401 0.676042
C2    C     C_R   0.434172 0.844585 0.561599 0.676047
O5    O     O_R   0.560970 0.175640 0.583140 -0.532304
O6    O     O_R   0.439030 0.675640 0.416860 -0.532305
O7    O     O_R   0.453290 0.004120 0.547860 -0.537357
O8    O     O_R   0.546710 0.504120 0.452140 -0.537350
C3    C     C_R   0.575938 0.344083 0.607418 0.678005
C4    C     C_R   0.424061 0.844078 0.392582 0.678005
O9    O     O_3   0.464660 0.338800 0.488280 -0.373430
O10   O     O_3   0.535340 0.838800 0.511720 -0.373426
V1    V     V_3+5 0.506560 0.064420 0.502170 1.422539
V2    V     V_3+5 0.493440 0.564420 0.497830 1.422541
C5    C     C_R   0.147131 0.906048 0.287768 -0.145147
C6    C     C_R   0.852872 0.405879 0.712236 -0.145149
H1    H     H_    0.062068 0.904635 0.221181 0.113142
H2    H     H_    0.937934 0.404460 0.778827 0.113142
H3    H     H_    0.231024 0.904084 0.400699 0.129579
H4    H     H_    0.768982 0.403840 0.599303 0.129580
H5    H     H_    0.133378 0.896098 0.329470 0.123707
H6    H     H_    0.866626 0.395850 0.670537 0.123707
C7    C     C_R   0.122032 0.936758 0.171278 -0.101415
C8    C     C_R   0.877969 0.436737 0.828722 -0.101420
C9    C     C_R   0.398165 0.817426 0.274250 -0.163676
C10   C     C_R   0.601830 0.317549 0.725752 -0.163675
C11   C     C_R   0.359021 0.805546 0.211778 -0.097811
C12   C     C_R   0.640972 0.305718 0.788227 -0.097814
C13   C     C_R   0.301643 0.833032 0.200568 -0.092092
C14   C     C_R   0.698352 0.333160 0.799436 -0.092079
C15   C     C_R   0.281763 0.881346 0.251549 0.081115
C16   C     C_R   0.718237 0.381376 0.748451 0.081122
C17   C     C_R   0.321846 0.879390 0.316369 0.070561
C18   C     C_R   0.678155 0.379365 0.683631 0.070561
C19   C     C_R   0.222723 0.913761 0.240938 0.021867
C20   C     C_R   0.777278 0.413748 0.759060 0.021875
C21   C     C_R   0.204855 0.907652 0.295860 0.129279
C22   C     C_R   0.795148 0.407537 0.704141 0.129280
C23   C     C_R   0.244638 0.902483 0.358776 -0.182334
C24   C     C_R   0.755367 0.402316 0.641225 -0.182332
C25   C     C_R   0.302266 0.895512 0.368940 -0.182813
C26   C     C_R   0.697738 0.395390 0.631059 -0.182812
C27   C     C_R   0.180352 0.949354 0.178563 -0.070760
C28   C     C_R   0.819649 0.449391 0.821433 -0.070771
C29   C     C_R   0.106383 0.912172 0.226065 -0.183312
C30   C     C_R   0.893619 0.412047 0.773940 -0.183304
C31   C     C_R   0.380421 0.851188 0.327116 -0.080090
C32   C     C_R   0.619578 0.351212 0.672884 -0.080082
H7    H     H_    0.442502 0.793554 0.281738 0.111950
H8    H     H_    0.557491 0.293719 0.718265 0.111946
H9    H     H_    0.273362 0.805592 0.151994 0.136003
H10   H     H_    0.726630 0.305764 0.848015 0.135991
H11   H     H_    0.373124 0.770459 0.171734 0.137753
H12   H     H_    0.626865 0.270707 0.828274 0.137748
H13   H     H_    0.331266 0.893257 0.418584 0.106619
H14   H     H_    0.668739 0.393092 0.581415 0.106611
C33   C     C_R   0.133627 0.770075 0.898992 -0.182533
C34   C     C_R   0.866368 0.270081 0.101001 -0.182497
H15   H     H_    0.128150 0.652597 0.926937 0.162208
H16   H     H_    0.871845 0.152603 0.073055 0.162192
C35   C     C_R   0.168670 0.751820 0.861103 -0.002097
C36   C     C_R   0.831324 0.251829 0.138889 -0.002109
C37   C     C_R   0.176145 0.904895 0.824028 -0.056007
C38   C     C_R   0.823850 0.404904 0.175966 -0.056008
C39   C     C_R   0.146003 0.068377 0.824649 -0.149200
C40   C     C_R   0.853993 0.568387 0.175348 -0.149195
H17   H     H_    0.149692 0.185855 0.795954 0.184538
H18   H     H_    0.850303 0.685867 0.204044 0.184522
C41   C     C_R   0.111227 0.084218 0.862520 -0.149636
C42   C     C_R   0.888769 0.584225 0.137478 -0.149652
H19   H     H_    0.088912 0.212713 0.861562 0.127976
H20   H     H_    0.911086 0.712721 0.138437 0.127976
C43   C     C_R   0.104447 0.935041 0.900008 -0.072849
C44   C     C_R   0.895549 0.435046 0.099989 -0.072829
N1    N     N_R   0.205704 0.009143 0.732306 -0.265417
N2    N     N_R   0.794306 0.509093 0.267707 -0.265427
N3    N     N_R   0.240168 0.003756 0.697562 -0.276196
N4    N     N_R   0.759843 0.503702 0.302452 -0.276205
C45   C     C_R   0.285878 0.889730 0.714737 0.511113
C46   C     C_R   0.714121 0.389729 0.285261 0.511132
N5    N     N_R   0.296396 0.785055 0.769041 -0.269709
N6    N     N_R   0.703590 0.285110 0.230942 -0.269713
N7    N     N_R   0.262276 0.792003 0.804074 -0.241377
N8    N     N_R   0.737709 0.292062 0.195908 -0.241388
C47   C     C_R   0.215479 0.901134 0.785854 0.555125
C48   C     C_R   0.784518 0.401140 0.214142 0.555159
C49   C     C_R   0.355156 0.717430 0.676016 -0.127264
C50   C     C_R   0.644824 0.217457 0.323960 -0.127258
H21   H     H_    0.352635 0.600385 0.705685 0.141080
H22   H     H_    0.647328 0.100439 0.294271 0.141086
C51   C     C_R   0.390218 0.705137 0.638309 -0.154771
C52   C     C_R   0.609762 0.205163 0.361667 -0.154766
H23   H     H_    0.414283 0.579767 0.640457 0.121601
H24   H     H_    0.585682 0.079819 0.359500 0.121600
C53   C     C_R   0.395154 0.854456 0.599544 -0.046497
C54   C     C_R   0.604846 0.354451 0.400456 -0.046499
C55   C     C_R   0.363297 0.015062 0.598506 -0.164813
C56   C     C_R   0.636722 0.515026 0.401519 -0.164811
H25   H     H_    0.365890 0.132338 0.568962 0.126234
H26   H     H_    0.634144 0.632276 0.431081 0.126234
C57   C     C_R   0.327326 0.025841 0.635179 -0.134617
C58   C     C_R   0.672693 0.525805 0.364844 -0.134611
H27   H     H_    0.303394 0.151354 0.633284 0.138073
H28   H     H_    0.696641 0.651292 0.366759 0.138081
C59   C     C_R   0.323233 0.877812 0.674858 0.020688
C60   C     C_R   0.676766 0.377808 0.325141 0.020670
O11   O     O_R   0.953220 0.285790 0.047790 -0.537347
O12   O     O_R   0.046780 0.785790 0.952210 -0.537336
O13   O     O_R   0.939020 0.617570 0.916840 -0.535910
O14   O     O_R   0.060980 0.117570 0.083160 -0.535919
C61   C     C_R   0.923802 0.448299 0.892736 0.733682
C62   C     C_R   0.076198 0.948304 0.107263 0.733671
O15   O     O_R   0.946600 0.615450 0.045180 -0.539621
O16   O     O_R   0.053400 0.115450 0.954820 -0.539625
O17   O     O_R   0.054370 0.786770 0.081410 -0.530280
O18   O     O_R   0.945630 0.286770 0.918590 -0.530293
C63   C     C_R   0.934546 0.446817 0.061916 0.728927
C64   C     C_R   0.065453 0.946816 0.938083 0.728926
O19   O     O_3   0.035300 0.454160 0.011680 -0.375558
O20   O     O_3   0.964700 0.954160 0.988320 -0.375564
V3    V     V_3+5 0.993450 0.728620 0.997830 1.468220
V4    V     V_3+5 0.006550 0.228620 0.002170 1.468206
C65   C     C_2   0.193551 0.567257 0.859136 0.759496
O21   O     O_2   0.195521 0.505673 0.807987 -0.547384
O22   O     O_R   0.212539 0.460021 0.915573 -0.657254
H29   H     H_    0.228472 0.336640 0.908304 0.306145
C66   C     C_2   0.806440 0.067267 0.140853 0.759489
O23   O     O_2   0.804461 0.005696 0.191998 -0.547390
O24   O     O_R   0.787459 0.960019 0.084417 -0.657263
H30   H     H_    0.771523 0.836640 0.091684 0.306140
C67   C     C_2   0.195456 0.027360 0.124030 0.724067
O25   O     O_2   0.228809 0.156176 0.133974 -0.539897
O26   O     O_R   0.172198 0.953051 0.061703 -0.675706
H31   H     H_    0.186609 0.016916 0.029214 0.299508
C68   C     C_2   0.804548 0.527496 0.875953 0.724084
O27   O     O_2   0.771198 0.656322 0.865991 -0.539903
O28   O     O_R   0.827805 0.453272 0.938292 -0.675712
H32   H     H_    0.813399 0.517207 0.970773 0.299515

loop_
_geom_bond_atom_site_label_1
_geom_bond_atom_site_label_2
_ccdc_geom_bond_type
C55   C57   A    
C45   C59   S    
C51   C53   A    
C9    C11   A    
C38   C40   A    
O1    C3    A    
C42   C44   A    
O2    C4    A    
C2    O7    A    
C35   C37   A    
C4    C31   S    
O3    V1    S    
O26   H31   S    
C21   C23   A    
H4    C24   S    
O5    C3    A    
C68   O28   S    
C5    H5    S    
C6    H6    S    
N6    N8    A    
O14   V4    S    
C38   C48   S    
N2    N4    A    
C1    C54   S    
C52   C54   A    
C56   C58   A    
C34   H16   S    
C5    C21   A    
C33   H15   S    
C14   H10   S    
C6    C22   A    
O19   V4    S    
C45   N5    A    
C10   C32   A    
O13   C61   A    
C26   H14   S    
C37   C39   A    
C17   C31   A    
C13   C15   A    
C50   C52   A    
C46   C60   S    
C49   H21   S    
C17   C25   A    
C7    C29   A    
C39   C41   A    
C8    C30   A    
O6    V2    S    
N7    C47   A    
C51   H23   S    
C23   C25   A    
C33   C43   A    
C24   C26   A    
C58   H28   S    
C53   C55   A    
C9    H7    S    
C37   C47   S    
N1    N3    A    
C41   C43   A    
C44   C63   S    
O15   V3    S    
N8    C48   A    
O13   V3    S    
C12   C14   A    
C2    C53   S    
N4    C46   A    
O12   C64   A    
C41   H19   S    
C25   H13   S    
O5    V1    S    
C11   H11   S    
C12   H12   S    
C34   C44   A    
C15   C19   A    
O16   C64   A    
C40   C42   A    
C39   H17   S    
C14   C16   A    
O4    V2    S    
C65   O22   S    
O12   V3    S    
C50   H22   S    
O6    C4    A    
C49   C59   A    
C56   H26   S    
H1    C29   S    
C57   H27   S    
O1    V2    S    
O18   V4    S    
C13   H9    S    
C52   H24   S    
O2    V1    S    
H2    C30   S    
C28   C68   S    
H3    C23   S    
O14   C62   A    
C42   H20   S    
N5    N7    A    
O15   C63   A    
C67   O25   D    
C35   C65   S    
O4    C2    A    
C19   C27   A    
O24   H30   S    
C7    C27   A    
C58   C60   A    
C18   C32   A    
O11   C63   A    
N3    C45   A    
C66   O23   D    
N2    C48   A    
O16   V4    S    
C55   H25   S    
C16   C20   A    
C33   C35   A    
C43   C64   S    
C5    C29   A    
O3    C1    A    
C6    C30   A    
O28   H32   S    
O11   V4    S    
C27   C67   S    
C68   O27   D    
C46   N6    A    
C34   C36   A    
C10   C12   A    
O17   V3    S    
C8    C61   S    
C50   C60   A    
C1    O8    A    
C19   C21   A    
C3    C32   S    
O8    V2    S    
C7    C62   S    
C20   C22   A    
C10   H8    S    
C65   O21   D    
C22   C24   A    
C15   C17   A    
C16   C18   A    
C49   C51   A    
C54   C56   A    
C20   C28   A    
C62   O17   A    
C18   C26   A    
C8    C28   A    
C61   O18   A    
C9    C31   A    
C36   C66   S    
N1    C47   A    
C11   C13   A    
O9    V2    S    
C67   O26   S    
C40   H18   S    
O10   V1    S    
C57   C59   A    
O20   V3    S    
O22   H29   S    
O7    V1    S    
C36   C38   A    
C66   O24   S    
