data_mof_unit_15358.cif
_audit_creation_date              2012-12-11T15:46:59-0500
_audit_creation_method            fapswitch 2.2
_symmetry_space_group_name_H-M    P1
_symmetry_Int_Tables_number       1
_space_group_crystal_system       triclinic
_cell_length_a                    11.538048
_cell_length_b                    11.507124
_cell_length_c                    19.418386
_cell_angle_alpha                 90.471311
_cell_angle_beta                  89.868987
_cell_angle_gamma                 60.233429
_cell_volume                      2237.86172798

loop_
_atom_site_label
_atom_site_type_symbol
_atom_type_description
_atom_site_fract_x
_atom_site_fract_y
_atom_site_fract_z
_atom_type_partial_charge
C1    C     C_R   0.640712 0.117915 0.598892 0.546847
C2    C     C_1   0.653057 0.150644 0.668316 0.005977
C3    C     C_R   0.712943 0.562245 0.206842 0.007104
C4    C     C_R   0.612722 0.745051 0.598267 0.546463
C5    C     C_R   0.629629 0.538637 0.249343 -0.026224
C6    C     C_R   0.610758 0.577877 0.317285 0.008379
C7    C     C_R   0.784087 0.635014 0.308297 -0.168381
C8    C     C_R   0.800963 0.597630 0.238596 -0.160235
C9    C     C_3   0.491037 0.564117 0.240986 -0.229758
C10   C     C_3   0.468397 0.609421 0.316023 -0.234394
C11   C     C_R   0.675477 0.642582 0.345323 0.020244
C12   C     C_1   0.641444 0.702681 0.667640 0.006264
C13   C     C_R   0.175872 0.174052 0.184472 -0.007561
C14   C     C_R   0.237279 0.241596 0.213281 -0.027940
C15   C     C_R   0.283313 0.218406 0.279695 0.002866
C16   C     C_R   0.239636 0.145765 0.597754 0.556940
C17   C     C_R   0.243096 0.034658 0.287902 -0.142667
C18   C     C_R   0.194633 0.056481 0.220022 0.235238
C19   C     C_3   0.200883 0.385648 0.217813 -0.248538
C20   C     C_3   0.250997 0.359608 0.291554 -0.242317
C21   C     C_R   0.274699 0.123942 0.320629 -0.046423
C22   C     C_R   0.677308 0.199012 0.196248 0.033385
C23   C     C_1   0.128254 0.197950 0.859681 0.008336
C24   C     C_R   0.603153 0.138773 0.213936 -0.018324
C25   C     C_R   0.596080 0.109641 0.282203 0.011371
C26   C     C_R   0.725363 0.213088 0.316849 -0.144907
C27   C     C_R   0.737426 0.237424 0.247829 -0.090369
C28   C     C_R   0.645453 0.112752 0.403143 0.535315
C29   C     C_3   0.622349 0.007117 0.189302 -0.268630
C30   C     C_3   0.618816 0.973345 0.264132 -0.253556
C31   C     C_R   0.658755 0.143992 0.333548 0.027585
C32   C     C_R   0.083157 0.230482 0.929030 0.546475
C33   C     C_R   0.683768 0.605453 0.929888 0.557465
C34   C     C_1   0.170725 0.170109 0.727605 -0.030588
C35   C     C_R   0.708187 0.206115 0.930509 0.538992
C36   C     C_R   0.086578 0.232985 0.124866 0.544692
C37   C     C_R   0.711961 0.545580 0.132494 0.559518
C38   C     C_R   0.706934 0.210930 0.126035 0.531852
C39   C     C_R   0.619900 0.733226 0.404150 0.531256
C40   C     C_R   0.304420 0.113975 0.394099 0.563738
C41   C     C_1   0.670618 0.647647 0.860466 0.006267
C42   C     C_1   0.655152 0.683026 0.728296 -0.030130
C43   C     C_1   0.663830 0.667231 0.799773 -0.030057
C44   C     C_1   0.150914 0.181529 0.799062 -0.029265
C45   C     C_1   0.193744 0.161223 0.667002 0.004376
C46   C     C_1   0.678362 0.190359 0.861157 0.007293
C47   C     C_1   0.658403 0.167853 0.728961 -0.030246
C48   C     C_1   0.665355 0.180568 0.800492 -0.029395
Cr1   Cr    Cr6+3 0.404720 0.198220 0.499960 1.023862
Cr2   Cr    Cr6+3 0.698290 0.897110 0.500380 1.029057
Cr3   Cr    Cr6+3 0.396970 0.904720 0.499610 1.028559
Cr4   Cr    Cr6+3 0.926290 0.152010 0.028150 1.112083
Cr5   Cr    Cr6+3 0.921440 0.451830 0.027490 1.029134
Cr6   Cr    Cr6+3 0.626370 0.446880 0.028730 1.042804
H1    H     H_    0.844187 0.674501 0.329799 0.134520
H2    H     H_    0.716990 0.893639 0.282701 0.150648
H3    H     H_    0.872772 0.610381 0.208591 0.136076
H4    H     H_    0.486288 0.471207 0.231913 0.134936
H5    H     H_    0.435406 0.644651 0.203583 0.234212
H6    H     H_    0.396307 0.717652 0.322721 0.189719
H7    H     H_    0.450864 0.542110 0.349869 0.135566
H8    H     H_    0.246166 0.953594 0.317092 0.175552
H9    H     H_    0.092074 0.455200 0.214641 0.150611
H10   H     H_    0.967098 0.928391 0.198906 0.362335
H11   H     H_    0.263407 0.408765 0.183119 0.154997
H12   H     H_    0.341809 0.368359 0.299245 0.140858
H13   H     H_    0.169768 0.413724 0.330101 0.161802
H14   H     H_    0.772788 0.241951 0.356248 0.122292
H15   H     H_    0.799955 0.279408 0.234105 0.135126
H16   H     H_    0.721082 0.943255 0.164095 0.150277
H17   H     H_    0.535071 0.018408 0.159653 0.152918
H18   H     H_    0.533069 0.959201 0.277242 0.134478
O1    O     O_R   0.267750 0.231960 0.575440 -0.500078
O2    O     O_R   0.596230 0.579400 0.952760 -0.490836
O3    O     O_R   0.639160 0.321170 0.958690 -0.494954
O4    O     O_R   0.527290 0.186640 0.570530 -0.494312
O5    O     O_R   0.821370 0.124220 0.104400 -0.457639
O6    O     O_R   0.037020 0.167050 0.097880 -0.418502
O7    O     O_R   0.056310 0.349620 0.102920 -0.537413
O8    O     O_R   0.797790 0.564880 0.097980 -0.506126
O9    O     O_R   0.596000 0.584270 0.104310 -0.496212
O10   O     O_R   0.638950 0.325690 0.099180 -0.531323
O11   O     O_3   0.824700 0.350240 0.028120 -0.295525
O12   O     O_R   0.685950 0.784660 0.430010 -0.507341
O13   O     O_R   0.728110 0.003450 0.576380 -0.500887
O14   O     O_R   0.682980 0.789190 0.570500 -0.490974
O15   O     O_R   0.499300 0.771880 0.575540 -0.503488
O16   O     O_R   0.285350 0.030870 0.569740 -0.486608
O17   O     O_R   0.270960 0.227070 0.423890 -0.508896
O18   O     O_R   0.530270 0.182120 0.430040 -0.519520
O19   O     O_R   0.731320 0.998570 0.424830 -0.505685
O20   O     O_2   0.180021 0.908841 0.113938 -0.258135
O21   O     O_2   0.215471 0.813567 0.229047 -0.369647
O22   O     O_3   0.983166 0.005167 0.202913 -0.510611
O23   O     O_R   0.502510 0.767000 0.423980 -0.532011
O24   O     O_R   0.288320 0.026340 0.429250 -0.501527
O25   O     O_3   0.499990 0.000020 0.499980 -0.274278
O26   O     O_R   0.821590 0.119350 0.952850 -0.502458
O27   O     O_R   0.037230 0.162540 0.957390 -0.484298
O28   O     O_R   0.056530 0.344750 0.951370 -0.504796
O29   O     O_R   0.798000 0.560370 0.957490 -0.489586
S1    S     S_3+6 0.146772 0.940839 0.189064 -0.003085

loop_
_geom_bond_atom_site_label_1
_geom_bond_atom_site_label_2
_ccdc_geom_bond_type
C25   C31   A    
Cr3   O25   S    
C20   H13   S    
C19   C20   S    
C7    H1    S    
Cr1   O18   S    
Cr2   O12   S    
C7    C8    A    
C4    O15   A    
C7    C11   A    
C35   O3    A    
C26   C27   A    
C13   C18   A    
C33   O29   A    
C20   H12   S    
Cr5   O7    S    
C39   O12   A    
C9    H4    S    
C5    C6    A    
C8    H3    S    
C4    O14   A    
C22   C38   S    
C1    C2    S    
C18   S1    S    
C24   C29   S    
C12   C42   T    
Cr2   O13   S    
Cr6   O2    S    
C19   H9    S    
C40   O17   A    
C4    C12   S    
C35   O26   A    
C9    C10   S    
C27   H15   S    
O20   S1    D    
Cr3   O24   S    
C26   C31   A    
C13   C14   A    
C38   O10   A    
C41   C43   T    
C37   O9    A    
C40   O24   A    
Cr4   O6    S    
Cr6   O11   S    
Cr5   O28   S    
C1    O13   A    
C15   C20   S    
C37   O8    A    
C46   C48   T    
C16   O1    A    
Cr5   O8    S    
C34   C44   S    
C24   C25   A    
C13   C36   S    
C3    C8    A    
Cr3   O15   S    
C6    C11   A    
C30   H2    S    
C17   C21   A    
C23   C44   T    
C32   O28   A    
C9    H5    S    
Cr3   O16   S    
Cr4   O11   S    
C10   H6    S    
C5    C9    S    
C29   C30   S    
C17   H8    S    
Cr2   O19   S    
C47   C48   S    
C17   C18   A    
Cr1   O4    S    
C34   C45   T    
C11   C39   S    
C39   O23   A    
C22   C27   A    
Cr1   O1    S    
C10   H7    S    
C42   C43   S    
Cr4   O5    S    
Cr6   O10   S    
C29   H16   S    
C25   C30   S    
Cr2   O25   S    
C1    O4    A    
C14   C19   S    
C28   C31   S    
Cr1   O17   S    
C3    C5    A    
C36   O7    A    
C16   C45   S    
C6    C10   S    
C30   H18   S    
C38   O5    A    
C2    C47   T    
Cr4   O27   S    
Cr5   O29   S    
C32   O27   A    
Cr5   O11   S    
C26   H14   S    
C23   C32   S    
C33   C41   S    
C36   O6    A    
C21   C40   S    
Cr4   O26   S    
C19   H11   S    
C28   O19   A    
C22   C24   A    
Cr1   O25   S    
Cr2   O14   S    
H10   O22   S    
Cr6   O3    S    
C33   O2    A    
C15   C21   A    
C3    C37   S    
O21   S1    D    
C16   O16   A    
C14   C15   A    
C28   O18   A    
C35   C46   S    
Cr6   O9    S    
O22   S1    S    
Cr3   O23   S    
C29   H17   S    
