data_mof_unit_63667.cif
_audit_creation_date              2012-12-10T21:18:20-0500
_audit_creation_method            fapswitch 2.2
_symmetry_space_group_name_H-M    P1
_symmetry_Int_Tables_number       1
_space_group_crystal_system       triclinic
_cell_length_a                    17.475336
_cell_length_b                    16.822855
_cell_length_c                    10.541667
_cell_angle_alpha                 89.298661
_cell_angle_beta                  91.219394
_cell_angle_gamma                 90.025044
_cell_volume                      3098.15843642

loop_
_atom_site_label
_atom_site_type_symbol
_atom_type_description
_atom_site_fract_x
_atom_site_fract_y
_atom_site_fract_z
_atom_type_partial_charge
C1    C     C_R   0.353008 0.500011 0.497873 0.907063
C2    C     C_R   0.646917 0.500016 0.497957 0.915158
C3    C     C_1   0.964978 0.501120 0.424196 -0.035396
C4    C     C_1   0.032944 0.501027 0.424407 -0.036791
C5    C     C_R   0.450818 0.833443 0.418909 -0.274796
C6    C     C_R   0.549249 0.166639 0.581332 -0.275326
C7    C     C_R   0.549067 0.832344 0.580850 -0.281238
C8    C     C_R   0.451136 0.167574 0.419162 -0.280776
C9    C     C_R   0.451468 0.749457 0.420050 0.489999
C10   C     C_R   0.548593 0.250629 0.579976 0.490042
C11   C     C_R   0.548512 0.748421 0.579828 0.465448
C12   C     C_R   0.451684 0.251496 0.419967 0.464984
C13   C     C_R   0.499931 0.875985 0.499900 0.018545
C14   C     C_R   0.500169 0.124014 0.500392 0.018500
C15   C     C_1   0.500002 0.963558 0.500064 0.034263
C16   C     C_1   0.500140 0.036440 0.500327 0.034319
C17   C     C_R   0.500300 0.500657 0.257263 1.071576
C18   C     C_R   0.499753 0.499347 0.742773 1.076326
C19   C     C_3   0.518338 0.574461 0.037161 0.274606
C20   C     C_3   0.481829 0.425544 0.963027 0.275447
C21   C     C_3   0.570017 0.520208 0.959644 0.253861
C22   C     C_3   0.430137 0.479810 0.040522 0.254697
C23   C     C_3   0.448340 0.551491 0.954527 0.304335
C24   C     C_3   0.551821 0.448540 0.045662 0.304255
C25   C     C_3   0.499791 0.497732 0.877104 -0.393414
C26   C     C_3   0.500346 0.502291 0.123002 -0.390217
C27   C     C_R   0.847212 0.572820 0.455833 -0.140710
C28   C     C_R   0.152173 0.428566 0.444431 -0.133714
C29   C     C_R   0.152052 0.572874 0.449644 -0.150656
C30   C     C_R   0.845472 0.429077 0.436527 -0.157824
C31   C     C_R   0.769427 0.572404 0.479164 -0.123489
C32   C     C_R   0.230553 0.428092 0.467871 -0.108780
C33   C     C_R   0.230429 0.572628 0.473064 -0.147630
C34   C     C_R   0.767691 0.428414 0.459966 -0.149568
C35   C     C_R   0.729291 0.500137 0.481582 -0.027088
C36   C     C_R   0.270136 0.500180 0.482072 -0.032111
C37   C     C_R   0.884703 0.501232 0.434517 0.147997
C38   C     C_R   0.113471 0.500906 0.435151 0.145434
H1    H     H_    0.878285 0.628598 0.456233 0.149738
H2    H     H_    0.121644 0.372756 0.435379 0.149584
H3    H     H_    0.121428 0.628879 0.444661 0.147938
H4    H     H_    0.875166 0.373501 0.421824 0.147173
H5    H     H_    0.740860 0.628421 0.495026 0.195458
H6    H     H_    0.259987 0.371525 0.474406 0.196547
H7    H     H_    0.259762 0.628938 0.483761 0.193389
H8    H     H_    0.737717 0.372041 0.460356 0.185760
H9    H     H_    0.411968 0.865192 0.354869 0.190664
H10   H     H_    0.588136 0.134954 0.645391 0.190939
H11   H     H_    0.587906 0.863221 0.644821 0.196305
H12   H     H_    0.412444 0.136632 0.355030 0.196100
N1    N     N_R   0.500000 0.707230 0.500000 -0.158046
N2    N     N_R   0.500000 0.292770 0.500000 -0.158508
O1    O     O_R   0.389110 0.566570 0.499990 -0.598917
O2    O     O_R   0.610890 0.433430 0.500010 -0.598861
O3    O     O_R   0.610890 0.566570 0.500010 -0.596547
O4    O     O_R   0.389110 0.433430 0.499990 -0.597119
O5    O     O_R   0.499980 0.566530 0.313950 -0.574073
O6    O     O_R   0.500020 0.433470 0.686050 -0.572836
O7    O     O_R   0.500020 0.566530 0.686050 -0.552270
O8    O     O_R   0.499980 0.433470 0.313950 -0.553313
Zn1   Zn    Zn3+2 0.500000 0.588860 0.500000 1.086736
Zn2   Zn    Zn3+2 0.500000 0.411140 0.500000 1.086488
O9    O     O_3   0.393909 0.601278 0.892564 -0.580954
C39   C     C_3   0.360148 0.652369 0.980360 0.213201
H13   H     H_    0.398548 0.703660 0.999160 0.209670
H14   H     H_    0.347146 0.621826 0.071649 0.201478
C40   C     C_3   0.285364 0.684175 0.923657 -0.780158
H15   H     H_    0.245346 0.634227 0.904427 0.269555
H16   H     H_    0.258600 0.725429 0.991159 0.225236
H17   H     H_    0.296239 0.716704 0.833485 0.254653
O10   O     O_3   0.606125 0.398906 0.108238 -0.582072
C41   C     C_3   0.640466 0.347905 0.020982 0.215802
H18   H     H_    0.653848 0.378453 0.929866 0.201330
H19   H     H_    0.602283 0.296510 0.001661 0.208888
C42   C     C_3   0.715050 0.316381 0.078912 -0.785543
H20   H     H_    0.703753 0.283819 0.168901 0.252777
H21   H     H_    0.742391 0.275236 0.011888 0.226840
H22   H     H_    0.754770 0.366482 0.098878 0.269435
Cl1   Cl    Cl    0.546364 0.671161 0.088219 -0.484116
Cl2   Cl    Cl    0.454049 0.328740 0.912155 -0.483633
Cl3   Cl    Cl    0.662067 0.545774 0.901661 -0.480430
Cl4   Cl    Cl    0.338094 0.454370 0.098756 -0.484187
Cl5   Cl    Cl    0.388113 0.700739 0.315978 -0.632129
Cl6   Cl    Cl    0.612302 0.299480 0.683358 -0.620106
Cl7   Cl    Cl    0.612077 0.698582 0.683988 -0.493990
Cl8   Cl    Cl    0.388648 0.301209 0.314802 -0.501210

loop_
_geom_bond_atom_site_label_1
_geom_bond_atom_site_label_2
_ccdc_geom_bond_type
C2    C35   S    
O6    Zn2   S    
C8    H12   S    
C33   H7    S    
N1    Zn1   S    
C10   N2    A    
C7    C11   A    
C5    H9    S    
C6    H10   S    
C17   C26   S    
C22   Cl4   S    
C19   C21   S    
C1    O4    A    
C24   C26   S    
C2    O3    A    
C20   C25   S    
C28   H2    S    
C15   C16   T    
C29   C33   A    
C33   C36   A    
O8    Zn2   S    
C34   C35   A    
C19   C26   S    
C1    O1    A    
O1    Zn1   S    
C18   O6    A    
C20   C24   S    
C27   H1    S    
C9    N1    A    
C29   C38   A    
C34   H8    S    
C14   C16   S    
C5    C13   A    
C23   O9    S    
C18   C25   S    
C41   C42   S    
C12   N2    A    
O7    Zn1   S    
C30   C34   A    
C27   C31   A    
C40   H15   S    
C39   C40   S    
C28   C32   A    
C7    H11   S    
C41   H19   S    
C2    O2    A    
C20   Cl2   S    
O2    Zn2   S    
C30   C37   A    
C40   H16   S    
C39   H14   S    
C19   C23   S    
C42   H20   S    
C5    C9    A    
C6    C14   A    
C28   C38   A    
C8    C12   A    
C32   H6    S    
C19   Cl1   S    
C42   H21   S    
C31   H5    S    
C9    Cl5   S    
C20   C22   S    
C13   C15   S    
O4    Zn2   S    
C24   O10   S    
C3    C4    T    
C32   C36   A    
C21   C25   S    
C8    C14   A    
C29   H3    S    
C21   Cl3   S    
C41   H18   S    
C6    C10   A    
O5    Zn1   S    
C12   Cl8   S    
C40   H17   S    
C39   H13   S    
O10   C41   S    
N2    Zn2   S    
C11   Cl7   S    
O3    Zn1   S    
C10   Cl6   S    
C31   C35   A    
C23   C25   S    
C42   H22   S    
C11   N1    A    
C17   O8    A    
O9    C39   S    
C18   O7    A    
C7    C13   A    
C3    C37   S    
C22   C26   S    
C21   C24   S    
C22   C23   S    
C30   H4    S    
C4    C38   S    
C27   C37   A    
C1    C36   S    
C17   O5    A    
