data_mof_unit_20089.cif
_audit_creation_date              2012-12-10T18:34:33-0500
_audit_creation_method            fapswitch 2.2
_symmetry_space_group_name_H-M    P1
_symmetry_Int_Tables_number       1
_space_group_crystal_system       triclinic
_cell_length_a                    15.067149
_cell_length_b                    15.556494
_cell_length_c                    15.722195
_cell_angle_alpha                 90.79255
_cell_angle_beta                  105.604119
_cell_angle_gamma                 81.132451
_cell_volume                      3505.4311936

loop_
_atom_site_label
_atom_site_type_symbol
_atom_type_description
_atom_site_fract_x
_atom_site_fract_y
_atom_site_fract_z
_atom_type_partial_charge
C1    C     C_R   0.441110 0.661662 0.486779 0.906894
C2    C     C_R   0.556059 0.100712 0.514752 -0.036334
C3    C     C_R   0.358935 0.931050 0.505990 0.128060
C4    C     C_R   0.641065 0.068950 0.494011 0.128060
C5    C     C_R   0.511684 0.955253 0.491666 0.076205
C6    C     C_R   0.488316 0.044747 0.508335 0.076205
C7    C     C_R   0.396710 0.075871 0.513768 -0.192350
C8    C     C_R   0.603290 0.924129 0.486233 -0.192349
C9    C     C_R   0.335028 0.019450 0.516973 -0.260968
C10   C     C_R   0.664972 0.980550 0.483028 -0.260967
C11   C     C_R   0.839965 0.646900 0.620677 0.391701
C12   C     C_R   0.558890 0.338338 0.513221 0.906894
C13   C     C_R   0.160035 0.353100 0.379323 0.391701
C14   C     C_R   0.757049 0.612938 0.612452 0.198806
C15   C     C_R   0.242951 0.387062 0.387549 0.198807
C16   C     C_R   0.501937 0.500275 0.662177 0.893101
C17   C     C_R   0.498063 0.499724 0.337822 0.893101
C18   C     C_R   0.792760 0.514356 0.505321 -0.109991
C19   C     C_R   0.207240 0.485644 0.494679 -0.109991
C20   C     C_R   0.885458 0.531891 0.527174 -0.065798
C21   C     C_R   0.114542 0.468109 0.472826 -0.065798
C22   C     C_R   0.904300 0.605910 0.577594 -0.030945
C23   C     C_R   0.298082 0.873954 0.514337 -0.202435
C24   C     C_R   0.095700 0.394090 0.422406 -0.030946
C25   C     C_R   0.958300 0.481801 0.497552 0.060129
C26   C     C_R   0.041700 0.518199 0.502448 0.060129
C27   C     C_R   0.047501 0.603734 0.535158 0.178042
C28   C     C_R   0.952499 0.396266 0.464842 0.178042
C29   C     C_R   0.984760 0.640980 0.580788 -0.175500
C30   C     C_R   0.015240 0.359020 0.419212 -0.175500
C31   C     C_3   0.427190 0.560047 0.007957 -0.323435
C32   C     C_3   0.572810 0.439953 0.992043 -0.323433
C33   C     C_3   0.511944 0.577814 0.977642 0.582483
C34   C     C_R   0.701918 0.126046 0.485664 -0.202436
C35   C     C_3   0.488056 0.422186 0.022358 0.582483
C36   C     C_1   0.505904 0.500689 0.752221 -0.189900
C37   C     C_1   0.494096 0.499311 0.247779 -0.189900
C38   C     C_3   0.418786 0.480284 0.947397 -0.315434
C39   C     C_3   0.581214 0.519716 0.052603 -0.315432
C40   C     C_3   0.503764 0.499583 0.918068 0.073455
C41   C     C_3   0.496236 0.500417 0.081932 0.073455
C42   C     C_1   0.506412 0.500413 0.827748 0.005900
C43   C     C_1   0.493587 0.499587 0.172252 0.005900
C44   C     C_R   0.404443 0.754035 0.481806 -0.159352
C45   C     C_R   0.323261 0.784992 0.506714 -0.278575
C46   C     C_R   0.595556 0.245965 0.518194 -0.159351
C47   C     C_3   0.527967 0.719296 0.014628 0.089157
C48   C     C_3   0.545241 0.805298 0.982376 -0.807936
C49   C     C_3   0.472031 0.280704 0.985371 0.089158
C50   C     C_3   0.454763 0.194701 0.017625 -0.807939
C51   C     C_3   0.299173 0.360509 0.322670 -0.764034
C52   C     C_3   0.700827 0.639491 0.677330 -0.764035
C53   C     C_3   0.816326 0.793978 0.632159 0.068735
C54   C     C_3   0.847992 0.869140 0.689181 -0.813952
C55   C     C_3   0.183675 0.206021 0.367841 0.068732
C56   C     C_R   0.676739 0.215008 0.493287 -0.278575
C57   C     C_3   0.152014 0.130860 0.310816 -0.813957
C58   C     C_3   0.109311 0.663484 0.513872 -0.962279
C59   C     C_3   0.890688 0.336516 0.486128 -0.962279
C60   C     C_3   0.525102 0.199827 0.679078 0.105208
C61   C     C_3   0.459120 0.237002 0.733219 -0.833788
C62   C     C_3   0.474897 0.800173 0.320922 0.105209
C63   C     C_3   0.540879 0.762997 0.266781 -0.833788
C64   C     C_R   0.457213 0.812099 0.459640 0.384307
C65   C     C_R   0.542787 0.187901 0.540360 0.384306
C66   C     C_R   0.443941 0.899288 0.485249 -0.036334
H1    H     H_    0.232022 0.529273 0.546343 0.175202
H2    H     H_    0.280465 0.740552 0.521434 0.183139
H3    H     H_    0.233762 0.897609 0.531463 0.148617
H4    H     H_    0.766238 0.102391 0.468538 0.148618
H5    H     H_    0.369585 0.143833 0.514474 0.202495
H6    H     H_    0.630415 0.856167 0.485528 0.202494
H7    H     H_    0.995031 0.702476 0.612320 0.191343
H8    H     H_    0.004969 0.297524 0.387680 0.191343
H9    H     H_    0.585481 0.696759 0.074653 0.140476
H10   H     H_    0.460335 0.731018 0.032089 0.134070
H11   H     H_    0.488324 0.830347 0.923060 0.257703
H12   H     H_    0.767978 0.470727 0.453657 0.175202
H13   H     H_    0.547404 0.853789 0.035121 0.201724
H14   H     H_    0.612888 0.796140 0.965236 0.258989
H15   H     H_    0.539660 0.268985 0.967906 0.134069
H16   H     H_    0.414513 0.303240 0.925349 0.140478
H17   H     H_    0.387119 0.203856 0.034771 0.258990
H18   H     H_    0.452597 0.146211 0.964880 0.201725
H19   H     H_    0.511684 0.169653 0.076939 0.257703
H20   H     H_    0.297541 0.417939 0.281158 0.244910
H21   H     H_    0.371208 0.330610 0.355972 0.250127
H22   H     H_    0.269398 0.312149 0.275414 0.235251
H23   H     H_    0.368747 0.609115 0.016720 0.156161
H24   H     H_    0.702459 0.582061 0.718841 0.244911
H25   H     H_    0.730603 0.687850 0.724586 0.235250
H26   H     H_    0.628792 0.669390 0.644028 0.250127
H27   H     H_    0.739520 0.799090 0.620254 0.154846
H28   H     H_    0.833017 0.800615 0.567851 0.129881
H29   H     H_    0.924469 0.866645 0.701387 0.252217
H30   H     H_    0.811845 0.931994 0.655112 0.211240
H31   H     H_    0.831082 0.865140 0.753410 0.260147
H32   H     H_    0.166982 0.199382 0.432148 0.129883
H33   H     H_    0.260481 0.200912 0.379749 0.154846
H34   H     H_    0.631253 0.390885 0.983280 0.156162
H35   H     H_    0.168925 0.134863 0.246589 0.260148
H36   H     H_    0.188163 0.068007 0.344885 0.211242
H37   H     H_    0.075537 0.133351 0.298609 0.252218
H38   H     H_    0.069980 0.730483 0.498354 0.240218
H39   H     H_    0.169885 0.666806 0.571828 0.236861
H40   H     H_    0.132074 0.644005 0.454000 0.256013
H41   H     H_    0.930020 0.269517 0.501646 0.240218
H42   H     H_    0.867925 0.355995 0.546000 0.256013
H43   H     H_    0.830115 0.333194 0.428172 0.236862
H44   H     H_    0.589419 0.230532 0.700560 0.131099
H45   H     H_    0.646400 0.536784 0.097265 0.159348
H46   H     H_    0.543447 0.128278 0.692809 0.147057
H47   H     H_    0.493129 0.222197 0.804439 0.190621
H48   H     H_    0.441200 0.308722 0.722427 0.261114
H49   H     H_    0.394158 0.207622 0.713569 0.256990
H50   H     H_    0.456552 0.871722 0.307191 0.147057
H51   H     H_    0.410581 0.769467 0.299440 0.131099
H52   H     H_    0.558799 0.691278 0.277574 0.261114
H53   H     H_    0.506870 0.777802 0.195561 0.190621
H54   H     H_    0.605841 0.792378 0.286431 0.256990
H55   H     H_    0.353600 0.463216 0.902735 0.159347
H56   H     H_    0.267497 0.045467 0.526563 0.142800
H57   H     H_    0.732503 0.954533 0.473438 0.142800
H58   H     H_    0.719535 0.259448 0.478566 0.183139
N1    N     N_R   0.731710 0.552730 0.549140 -0.117170
N2    N     N_R   0.268290 0.447270 0.450860 -0.117170
O1    O     O_R   0.383110 0.605620 0.475230 -0.625819
O2    O     O_3   0.474755 0.341582 0.052943 -0.602407
O3    O     O_3   0.862361 0.714560 0.676669 -0.614121
O4    O     O_3   0.137639 0.285440 0.323331 -0.614120
O5    O     O_3   0.480466 0.217864 0.588666 -0.622088
O6    O     O_3   0.519534 0.782136 0.411334 -0.622088
O7    O     O_R   0.616890 0.394380 0.524770 -0.625819
O8    O     O_R   0.531900 0.639510 0.506760 -0.572768
O9    O     O_R   0.468100 0.360490 0.493240 -0.572767
O10   O     O_R   0.425620 0.483070 0.607460 -0.607684
O11   O     O_R   0.574380 0.516930 0.392540 -0.607685
O12   O     O_R   0.574400 0.516960 0.638990 -0.621386
O13   O     O_R   0.425600 0.483040 0.361010 -0.621386
O14   O     O_3   0.525246 0.658418 0.947057 -0.602407
Zn1   Zn    Zn3+2 0.400660 0.477370 0.478940 0.953600
Zn2   Zn    Zn3+2 0.599340 0.522630 0.521060 0.953600

loop_
_geom_bond_atom_site_label_1
_geom_bond_atom_site_label_2
_ccdc_geom_bond_type
C49   H16   S    
O11   Zn2   S    
C34   C56   A    
C23   C45   A    
C22   C29   A    
C27   C29   A    
C23   H3    S    
C36   C42   T    
C21   C26   A    
C2    C65   A    
C39   H45   S    
C50   H18   S    
C39   C41   S    
C53   C54   S    
C44   C64   A    
C25   C28   A    
C57   H36   S    
C26   C27   A    
C33   C39   S    
C14   N1    A    
C3    C9    A    
C56   H58   S    
C48   H13   S    
C19   C21   A    
C47   H10   S    
C18   N1    A    
C7    H5    S    
C5    C6    A    
C30   H8    S    
C11   C14   A    
C29   H7    S    
C20   C25   A    
C33   O14   S    
C60   O5    S    
O1    Zn1   S    
C32   C39   S    
C49   H15   S    
C3    C23   A    
C62   H51   S    
C50   H19   S    
C52   H24   S    
C14   C52   S    
C64   O6    S    
C31   H23   S    
C12   O9    A    
C47   O14   S    
C61   H49   S    
C13   O4    S    
C31   C33   S    
C54   H31   S    
C19   H1    S    
C15   C51   S    
C34   H4    S    
C54   H30   S    
C40   C42   S    
C41   C43   S    
C2    C6    A    
C11   O3    S    
C51   H20   S    
C65   O5    S    
C50   H17   S    
C57   H37   S    
C4    C34   A    
C8    H6    S    
C33   C40   S    
C53   H27   S    
C32   C35   S    
C62   O6    S    
C35   C38   S    
C46   C65   A    
C12   C46   S    
C10   H57   S    
O12   Zn2   S    
C51   H21   S    
C63   H52   S    
C25   C26   A    
C15   N2    A    
C59   H41   S    
C32   H34   S    
C13   C24   A    
C60   C61   S    
C58   H40   S    
C64   C66   A    
C48   H11   S    
C37   C43   T    
C2    C4    A    
C62   H50   S    
C62   C63   S    
C60   H46   S    
O8    Zn2   S    
C63   H53   S    
C1    C44   S    
C47   C48   S    
N1    Zn2   S    
C18   H12   S    
C55   O4    S    
C45   H2    S    
C9    H56   S    
O7    Zn2   S    
C17   O13   A    
C17   C37   S    
C54   H29   S    
C20   C22   A    
C12   O7    A    
C55   C57   S    
C61   H47   S    
C52   H26   S    
C3    C66   A    
C53   O3    S    
C46   C56   A    
C1    O8    A    
C16   O10   A    
C44   C45   A    
C28   C59   S    
C7    C9    A    
C49   O2    S    
C31   C41   S    
C53   H28   S    
C16   O12   A    
C1    O1    A    
C5    C66   A    
C27   C58   S    
C51   H22   S    
C5    C8    A    
C6    C7    A    
C19   N2    A    
C57   H35   S    
N2    Zn1   S    
C59   H42   S    
C31   C38   S    
C58   H39   S    
C48   H14   S    
C13   C15   A    
C47   H9    S    
C16   C36   S    
C38   C40   S    
C63   H54   S    
O13   Zn1   S    
C55   H32   S    
C28   C30   A    
C59   H43   S    
O10   Zn1   S    
C18   C20   A    
C32   C40   S    
C35   O2    S    
C35   C41   S    
C24   C30   A    
C38   H55   S    
C60   H44   S    
O9    Zn1   S    
C58   H38   S    
C11   C22   A    
C8    C10   A    
C49   C50   S    
C21   C24   A    
C55   H33   S    
C61   H48   S    
C52   H25   S    
C17   O11   A    
C4    C10   A    
