data_mof_unit_12219.cif
_audit_creation_date              2013-03-05T16:46:08-0500
_audit_creation_method            fapswitch 2.2
_symmetry_space_group_name_H-M    P1
_symmetry_Int_Tables_number       1
_space_group_crystal_system       triclinic
_cell_length_a                    10.77181
_cell_length_b                    10.677283
_cell_length_c                    9.905625
_cell_angle_alpha                 90.494381
_cell_angle_beta                  91.259759
_cell_angle_gamma                 90.443862
_cell_volume                      1138.92856387

loop_
_atom_site_label
_atom_site_type_symbol
_atom_site_description
_atom_site_fract_x
_atom_site_fract_y
_atom_site_fract_z
_atom_type_partial_charge
O1    O     O_R   0.500020 0.316790 0.614690 -0.629224
O2    O     O_R   0.500000 0.316760 0.385350 -0.596092
C1    C     C_R   0.501682 0.260281 0.499569 0.965690
O3    O     O_R   0.316770 0.500030 0.614670 -0.640675
O4    O     O_R   0.316750 0.499990 0.385330 -0.567297
C2    C     C_R   0.260262 0.503082 0.498460 0.887027
Zn1   Zn    Zn3+2 0.500010 0.500020 0.653130 0.964033
Zn2   Zn    Zn3+2 0.499990 0.499980 0.346870 1.024983
O5    O     O_R   0.500000 0.683240 0.614650 -0.636674
O6    O     O_R   0.499980 0.683210 0.385310 -0.621652
O7    O     O_R   0.683250 0.500010 0.614670 -0.610802
O8    O     O_R   0.683230 0.499970 0.385330 -0.612535
C3    C     C_R   0.498904 0.739505 0.500734 0.861350
C4    C     C_R   0.740006 0.503801 0.502030 0.941361
H1    H     H_    0.227784 0.740435 0.922902 0.141817
C5    C     C_R   0.204497 0.770589 0.136099 -0.118364
H2    H     H_    0.241035 0.865209 0.134569 0.145686
C6    C     C_R   0.164332 0.718949 0.257141 -0.113509
H3    H     H_    0.169749 0.774416 0.349179 0.131501
C7    C     C_R   0.113782 0.597391 0.258071 0.121624
C8    C     C_R   0.104439 0.528364 0.137225 -0.036394
H4    H     H_    0.062833 0.435755 0.136070 0.190415
C9    C     C_R   0.147404 0.579140 0.017308 -0.108310
H5    H     H_    0.141106 0.524942 0.924920 0.151171
C10   C     C_R   0.196292 0.700593 0.016363 -0.120702
C11   C     C_R   0.931668 0.543651 0.387600 -0.219429
H6    H     H_    0.878505 0.571864 0.299654 0.200306
C12   C     C_R   0.872918 0.510622 0.506328 -0.060457
C13   C     C_R   0.942616 0.484352 0.624653 0.050441
C14   C     C_R   0.069128 0.476384 0.615982 -0.221039
H7    H     H_    0.122031 0.449207 0.705129 0.168499
C15   C     C_R   0.127876 0.508192 0.496674 -0.066541
C16   C     C_R   0.059025 0.547137 0.382251 0.003884
C17   C     C_R   0.865525 0.593169 0.828193 -0.221518
H8    H     H_    0.880628 0.680879 0.776639 0.174046
C18   C     C_R   0.822421 0.593256 0.960913 0.357354
C19   C     C_R   0.803959 0.477832 0.025148 -0.251330
H9    H     H_    0.769229 0.474224 0.126428 0.188039
C20   C     C_R   0.830176 0.365224 0.958905 -0.211717
H10   H     H_    0.816234 0.277054 0.009716 0.182534
C21   C     C_R   0.874530 0.366199 0.827588 -0.073255
H11   H     H_    0.896183 0.278659 0.777819 0.191951
C22   C     C_R   0.890928 0.480192 0.761292 0.065456
C23   C     C_R   0.547518 0.064402 0.610875 -0.004679
C24   C     C_R   0.499895 0.127984 0.499255 -0.050367
C25   C     C_R   0.437284 0.062880 0.394809 -0.184528
H12   H     H_    0.393590 0.110704 0.311242 0.196250
C26   C     C_R   0.434248 0.933793 0.396206 -0.201949
H13   H     H_    0.391973 0.883296 0.311902 0.147977
C27   C     C_R   0.490772 0.871098 0.503968 -0.032324
C28   C     C_R   0.538577 0.936804 0.615529 0.023507
C29   C     C_3   0.661649 0.922912 0.685592 -0.474188
C30   C     C_3   0.675369 0.064788 0.676160 0.157599
H14   H     H_    0.651169 0.889968 0.790860 0.212149
H15   H     H_    0.727515 0.867214 0.624927 0.226848
H16   H     H_    0.681135 0.113807 0.775439 0.094722
C31   C     C_R   0.513024 0.391177 0.069151 0.088886
N1    N     N_R   0.499160 0.499140 0.142800 -0.103768
C32   C     C_R   0.492198 0.608842 0.072583 -0.024424
H17   H     H_    0.484379 0.696750 0.126452 0.164525
C33   C     C_R   0.491862 0.608873 0.929070 -0.128119
H18   H     H_    0.483505 0.696714 0.876363 0.150361
N2    N     N_R   0.499160 0.499180 0.857150 -0.101714
C34   C     C_R   0.518523 0.392138 0.927645 0.163628
C35   C     C_3   0.446757 0.273949 0.910336 -0.514927
C36   C     C_3   0.433465 0.274003 0.063432 0.111724
H19   H     H_    0.360865 0.287877 0.848344 0.252708
H20   H     H_    0.505480 0.196320 0.874290 0.167488
H21   H     H_    0.478802 0.192714 0.112756 0.101700
N3    N     N_R   0.773907 0.102934 0.584892 0.228448
O9    O     O_R   0.770538 0.213182 0.530343 -0.435775
O10   O     O_R   0.878130 0.042040 0.584624 -0.366093
N4    N     N_R   0.304822 0.292278 0.105036 0.221379
O11   O     O_R   0.212468 0.268168 0.021597 -0.427867
O12   O     O_R   0.281370 0.301829 0.232558 -0.393441
N5    N     N_R   0.799556 0.709769 0.029998 0.190600
O13   O     O_R   0.830312 0.815909 0.975904 -0.402399
O14   O     O_R   0.749999 0.711089 0.148564 -0.425586

loop_
_geom_bond_atom_site_label_1
_geom_bond_atom_site_label_2
_geom_bond_distance
_ccdc_geom_bond_type
C2    C15   1.427231 S    
C21   C22   1.399802 A    
C21   H11   1.082389 S    
C31   C36   1.510942 S    
C20   C21   1.395665 A    
C24   C25   1.399324 A    
C23   C24   1.392822 A    
Zn1   O7    2.018464 S    
C11   H6    1.078358 S    
C19   H9    1.079302 S    
C18   C19   1.406605 A    
N5    O14   1.300737 A    
C17   H8    1.083435 S    
O4    C2    1.287161 A    
O7    C4    1.284813 A    
H1    C10   1.082353 S    
C36   H21   1.110831 S    
C6    H3    1.083118 S    
N4    O11   1.302023 A    
C33   N2    1.369297 A    
O5    C3    1.282803 A    
C18   N5    1.440174 S    
Zn2   N1    2.021206 S    
C23   C30   1.508495 S    
C5    H2    1.081742 S    
C35   H19   1.110825 S    
C9    H5    1.079138 S    
N3    O9    1.299899 A    
C17   C18   1.403848 A    
C29   H15   1.112329 S    
C26   C27   1.395827 A    
C32   H17   1.080456 S    
C8    H4    1.082339 S    
C13   C22   1.475704 S    
N4    O12   1.296941 A    
O3    Zn1   2.002016 S    
C30   N3    1.466871 S    
C29   H14   1.111163 S    
C25   C26   1.378628 A    
C32   C33   1.421518 A    
C28   C29   1.491817 S    
N5    O13   1.301418 A    
O3    C2    1.291059 A    
C20   H10   1.082339 S    
N1    C32   1.369127 A    
C36   N4    1.468344 S    
C1    C24   1.412530 S    
N2    C34   1.359574 A    
O1    C1    1.286058 A    
C13   C14   1.370603 A    
C11   C16   1.374280 A    
Zn2   O8    2.002017 S    
C35   H20   1.107966 S    
C27   C28   1.390889 A    
Zn1   N2    2.021265 S    
C7    C16   1.478953 S    
C23   C28   1.366300 A    
C5    C6    1.399755 A    
C26   H13   1.080345 S    
O8    C4    1.296035 A    
C8    C9    1.396607 A    
C29   C30   1.524773 S    
C31   C34   1.404382 A    
C30   H16   1.110336 S    
C5    C10   1.397203 A    
Zn1   O5    1.996307 S    
C25   H12   1.077678 S    
C12   C13   1.409386 A    
O1    Zn1   1.989882 S    
O2    Zn2   1.996305 S    
C17   C22   1.403015 A    
O6    C3    1.287436 A    
O4    Zn2   2.018464 S    
C11   C12   1.394434 A    
C15   C16   1.408392 A    
O2    C1    1.286517 A    
C19   C20   1.398482 A    
C34   C35   1.481494 S    
C14   C15   1.396059 A    
C31   N1    1.369782 A    
C14   H7    1.083328 S    
C6    C7    1.403789 A    
C9    C10   1.396030 A    
C33   H18   1.080758 S    
C3    C27   1.408597 S    
C7    C8    1.401643 A    
Zn2   O6    1.989883 S    
C35   C36   1.526387 S    
N3    O10   1.301752 A    
C4    C12   1.432666 S    
