data_mof_unit_46191.cif
_audit_creation_date              2012-12-10T18:05:41-0500
_audit_creation_method            fapswitch 2.2
_symmetry_space_group_name_H-M    P1
_symmetry_Int_Tables_number       1
_space_group_crystal_system       triclinic
_cell_length_a                    10.810753
_cell_length_b                    10.820928
_cell_length_c                    9.550192
_cell_angle_alpha                 90.604759
_cell_angle_beta                  89.280635
_cell_angle_gamma                 89.803007
_cell_volume                      1117.04678312

loop_
_atom_site_label
_atom_site_type_symbol
_atom_type_description
_atom_site_fract_x
_atom_site_fract_y
_atom_site_fract_z
_atom_type_partial_charge
C1    C     C_R   0.500108 0.262182 0.499557 0.819513
C2    C     C_R   0.499896 0.737818 0.500443 0.819509
C3    C     C_R   0.871348 0.499135 0.500469 -0.150683
C4    C     C_R   0.128652 0.500868 0.499529 -0.150681
C5    C     C_R   0.934122 0.602153 0.555939 -0.074044
C6    C     C_R   0.065877 0.397851 0.444061 -0.074042
C7    C     C_R   0.529178 0.062465 0.376477 -0.160418
C8    C     C_R   0.470839 0.937535 0.623525 -0.160437
C9    C     C_R   0.528260 0.934613 0.376714 -0.222309
C10   C     C_R   0.471757 0.065387 0.623288 -0.222319
C11   C     C_R   0.499352 0.871704 0.500369 -0.002964
C12   C     C_R   0.500660 0.128296 0.499633 -0.002961
C13   C     C_R   0.578504 0.424557 0.071590 0.267969
C14   C     C_R   0.421501 0.575447 0.928410 0.267985
C15   C     C_R   0.578321 0.425014 0.922877 -0.143400
C16   C     C_R   0.421680 0.574987 0.077123 -0.143398
C17   C     C_R   0.262532 0.501151 0.500286 0.852790
C18   C     C_R   0.737467 0.498851 0.499714 0.852787
C19   C     C_R   0.226371 0.199272 0.168712 -0.133975
C20   C     C_R   0.773618 0.800665 0.831349 -0.133965
C21   C     C_R   0.168033 0.299871 0.234922 -0.068731
C22   C     C_R   0.831961 0.700084 0.765106 -0.068723
C23   C     C_R   0.134322 0.293765 0.377182 0.127537
C24   C     C_R   0.865677 0.706226 0.622848 0.127531
C25   C     C_R   0.160051 0.186331 0.452600 -0.140308
C26   C     C_R   0.839948 0.813681 0.547463 -0.140295
C27   C     C_R   0.216527 0.085212 0.385260 -0.097844
C28   C     C_R   0.783469 0.914784 0.614836 -0.097837
C29   C     C_R   0.249647 0.091605 0.243554 -0.111774
C30   C     C_R   0.750343 0.908353 0.756541 -0.111791
C31   C     C_R   0.936579 0.395838 0.447971 0.106885
C32   C     C_R   0.063420 0.604165 0.552028 0.106890
Cu1   Cu    Cu3+1 0.500000 0.500020 0.640660 0.976646
Cu2   Cu    Cu3+1 0.500000 0.499980 0.359340 0.976644
H1    H     H_    0.294005 0.013352 0.192030 0.128030
H2    H     H_    0.705982 0.986594 0.808090 0.128014
H3    H     H_    0.640952 0.364903 0.864583 0.141936
H4    H     H_    0.359054 0.635104 0.135417 0.141937
H5    H     H_    0.252511 0.204377 0.059150 0.124854
H6    H     H_    0.747475 0.795528 0.940910 0.124849
H7    H     H_    0.148345 0.382162 0.175422 0.123341
H8    H     H_    0.851650 0.617776 0.824580 0.123336
H9    H     H_    0.134294 0.180228 0.562260 0.147365
H10   H     H_    0.865708 0.819813 0.437804 0.147375
H11   H     H_    0.235553 0.002141 0.443057 0.177892
H12   H     H_    0.764447 0.997874 0.557068 0.177883
H13   H     H_    0.551849 0.109534 0.280140 0.163852
H14   H     H_    0.448171 0.890466 0.719862 0.163845
H15   H     H_    0.551117 0.885248 0.280529 0.151600
H16   H     H_    0.448899 0.114751 0.719473 0.151606
N1    N     N_R   0.500030 0.500030 0.852070 -0.157579
N2    N     N_R   0.499970 0.499970 0.147930 -0.157579
O1    O     O_R   0.499990 0.319660 0.618740 -0.599857
O2    O     O_R   0.500010 0.680340 0.381260 -0.599860
O3    O     O_R   0.499990 0.319630 0.381170 -0.550155
O4    O     O_R   0.500010 0.680370 0.618830 -0.550154
O5    O     O_R   0.319650 0.500020 0.618780 -0.543250
O6    O     O_R   0.680350 0.499980 0.381220 -0.543256
O7    O     O_R   0.319640 0.500000 0.381210 -0.589401
O8    O     O_R   0.680360 0.500000 0.618790 -0.589405
I1    I     I_    0.841396 0.230839 0.388190 -0.461340
I2    I     I_    0.158604 0.769159 0.611824 -0.461350
N3    N     N_3   0.661613 0.344561 0.141873 -0.504026
H17   H     H_    0.644374 0.254132 0.108015 0.189185
H18   H     H_    0.751489 0.367203 0.109832 0.212684
N4    N     N_3   0.338417 0.655467 0.858128 -0.504018
H19   H     H_    0.355711 0.745895 0.891958 0.189180
H20   H     H_    0.248530 0.632877 0.890194 0.212680

loop_
_geom_bond_atom_site_label_1
_geom_bond_atom_site_label_2
_ccdc_geom_bond_type
N4    H20   S    
C8    H14   S    
C9    H15   S    
C31   I1    S    
C15   N1    A    
Cu1   N1    S    
C13   N2    A    
C7    H13   S    
Cu1   O5    S    
C29   H1    S    
Cu2   N2    S    
C14   N1    A    
C13   N3    S    
C30   H2    S    
C17   O7    A    
C5    C32   A    
C25   H9    S    
Cu1   O4    S    
N3    H18   S    
Cu1   Cu2   S    
C14   N4    S    
C26   H10   S    
Cu2   O3    S    
C10   H16   S    
C4    C32   A    
C20   C30   A    
C3    C31   A    
C9    C11   A    
C28   H12   S    
C22   H8    S    
C1    C12   S    
C19   H5    S    
C2    O4    A    
C8    C11   A    
C21   H7    S    
C2    C11   S    
C10   C12   A    
C18   O8    A    
C19   C21   A    
C20   C22   A    
Cu2   O2    S    
Cu1   O8    S    
C14   C16   A    
C13   C15   A    
C21   C23   A    
C1    O3    A    
C7    C12   A    
C20   H6    S    
C22   C24   A    
C4    C6    A    
C27   C29   A    
C27   H11   S    
C6    C23   S    
C32   I2    S    
N3    H17   S    
C19   C29   A    
C7    C9    A    
C23   C25   A    
N4    H19   S    
Cu1   O1    S    
C3    C18   S    
C8    C10   A    
C2    O2    A    
C16   H4    S    
Cu2   O6    S    
C1    O1    A    
C5    C24   S    
C6    C31   A    
C17   O5    A    
Cu2   O7    S    
C26   C28   A    
C18   O6    A    
C15   H3    S    
C16   N2    A    
C24   C26   A    
C28   C30   A    
C3    C5    A    
C25   C27   A    
C4    C17   S    
