data_mof_unit_57007.cif
_audit_creation_date              2012-12-11T17:04:55-0500
_audit_creation_method            fapswitch 2.2
_symmetry_space_group_name_H-M    P1
_symmetry_Int_Tables_number       1
_space_group_crystal_system       triclinic
_cell_length_a                    17.392329
_cell_length_b                    24.436798
_cell_length_c                    14.887546
_cell_angle_alpha                 90.378985
_cell_angle_beta                  125.405954
_cell_angle_gamma                 89.454149
_cell_volume                      5157.01842504

loop_
_atom_site_label
_atom_site_type_symbol
_atom_type_description
_atom_site_fract_x
_atom_site_fract_y
_atom_site_fract_z
_atom_type_partial_charge
C1    C     C_R   0.851313 0.652223 0.905641 -0.240036
C2    C     C_R   0.933569 0.502287 0.631339 0.042158
C3    C     C_R   0.762378 0.047284 0.295574 -0.053784
C4    C     C_R   0.817869 0.368669 0.911332 0.727823
C5    C     C_R   0.181653 0.367700 0.086128 0.700017
C6    C     C_R   0.328206 0.860191 0.911624 0.693044
C7    C     C_R   0.686527 0.873154 0.087085 0.720538
C8    C     C_R   0.941567 0.653562 0.088100 0.748562
C9    C     C_R   0.059968 0.652467 0.911764 0.781873
C10   C     C_R   0.442333 0.153696 0.088145 0.748102
C11   C     C_R   0.560122 0.152414 0.911562 0.784413
C12   C     C_R   0.880644 0.685208 0.995176 -0.081737
C13   C     C_R   0.455786 0.002899 0.281624 0.039292
C14   C     C_R   0.118983 0.683951 0.005181 -0.085710
C15   C     C_R   0.382602 0.185500 0.995215 -0.070563
C16   C     C_R   0.619897 0.183962 0.004786 -0.099228
C17   C     C_R   0.434583 0.002249 0.631660 0.033480
C18   C     C_R   0.689229 0.502385 0.644592 0.153893
C19   C     C_R   0.324797 0.500791 0.282907 0.185635
C20   C     C_R   0.175538 0.002084 0.721828 0.195429
C21   C     C_R   0.813153 0.001754 0.352893 0.152413
C22   C     C_3   0.521990 0.464018 0.523829 0.741405
C23   C     C_3   0.493187 0.453213 0.406980 0.729173
C24   C     C_3   0.004422 0.957832 0.604652 0.729623
C25   C     C_R   0.146038 0.652239 0.094371 -0.252791
C26   C     C_3   0.978474 0.958195 0.487342 0.740694
C27   C     C_3   0.452634 0.512229 0.484941 -0.561714
C28   C     C_3   0.570438 0.492270 0.424545 -0.551779
C29   C     C_3   0.928594 0.002156 0.574257 -0.542598
C30   C     C_3   0.050928 0.002980 0.517170 -0.567913
C31   C     C_3   0.424052 0.501392 0.367160 -0.379476
C32   C     C_3   0.597836 0.503175 0.541798 -0.397715
C33   C     C_3   0.904246 0.002386 0.456766 -0.394591
C34   C     C_3   0.076456 0.002724 0.635290 -0.379396
C35   C     C_3   0.499218 0.540700 0.384159 0.743303
C36   C     C_R   0.353388 0.152646 0.905903 -0.265080
C37   C     C_3   0.528442 0.551328 0.501510 0.742444
C38   C     C_3   0.976657 0.047213 0.487879 0.741130
C39   C     C_3   0.002722 0.047074 0.605309 0.741627
C40   C     C_R   0.788452 0.296046 0.112065 0.029655
C41   C     C_R   0.218932 0.302323 0.885557 0.043901
C42   C     C_R   0.299428 0.787836 0.110856 0.011738
C43   C     C_R   0.720647 0.804495 0.885706 0.053727
C44   C     C_R   0.758931 0.321542 0.013196 0.001994
C45   C     C_R   0.246893 0.327558 0.984302 -0.006188
C46   C     C_R   0.271513 0.811352 0.011355 -0.009891
C47   C     C_R   0.647865 0.151926 0.094419 -0.228633
C48   C     C_R   0.750666 0.831518 0.983829 0.002278
C49   C     C_R   0.663780 0.317032 0.923409 -0.307445
C50   C     C_R   0.340676 0.320945 0.076238 -0.297556
C51   C     C_R   0.175708 0.810223 0.922393 -0.301772
C52   C     C_R   0.844468 0.823709 0.075189 -0.307958
C53   C     C_R   0.914212 0.366395 0.094487 -0.240192
C54   C     C_R   0.092080 0.374573 0.903111 -0.228526
C55   C     C_R   0.421782 0.860868 0.094909 -0.242012
C56   C     C_R   0.594042 0.876644 0.903673 -0.228476
C57   C     C_R   0.115723 0.773967 0.925246 0.863311
C58   C     C_R   0.826839 0.350483 0.005016 -0.043794
C59   C     C_R   0.896864 0.779515 0.075932 0.848641
C60   C     C_R   0.608320 0.276284 0.924353 0.850431
C61   C     C_R   0.395782 0.278787 0.076377 0.853870
C62   C     C_R   0.154007 0.738613 0.016034 -0.195637
C63   C     C_R   0.853483 0.742887 0.985698 -0.198415
C64   C     C_R   0.650043 0.240189 0.014685 -0.192431
C65   C     C_R   0.354576 0.242825 0.985337 -0.201072
C66   C     C_R   0.241438 0.751651 0.113656 -0.005228
C67   C     C_R   0.771466 0.760852 0.886478 -0.007036
C68   C     C_R   0.734453 0.255951 0.113098 -0.006825
C69   C     C_R   0.177627 0.355980 0.992135 -0.034504
C70   C     C_R   0.272034 0.260307 0.885846 -0.003026
C71   C     C_3   0.324245 0.716101 0.195474 0.716974
C72   C     C_3   0.683465 0.730791 0.801193 0.732816
C73   C     C_3   0.820110 0.223070 0.196760 0.737467
C74   C     C_3   0.185110 0.229618 0.799277 0.718439
C75   C     C_3   0.879045 0.267198 0.195293 -0.589689
C76   C     C_3   0.127422 0.275952 0.799343 -0.566382
C77   C     C_3   0.387285 0.756611 0.192292 -0.546399
C78   C     C_3   0.627971 0.778574 0.800856 -0.590882
C79   C     C_R   0.895527 0.554474 0.468063 0.139094
C80   C     C_R   0.339787 0.839929 0.004919 -0.013148
C81   C     C_R   0.902549 0.554688 0.380572 0.127316
C82   C     C_R   0.396476 0.054392 0.468275 0.137056
C83   C     C_R   0.401845 0.054684 0.379542 0.127265
C84   C     C_R   0.896333 0.504783 0.515061 0.031219
C85   C     C_R   0.910722 0.505244 0.338767 0.040839
C86   C     C_R   0.397458 0.004709 0.515328 0.036318
C87   C     C_R   0.408155 0.005269 0.336022 0.039084
C88   C     C_R   0.877129 0.456575 0.453365 -0.159463
C89   C     C_R   0.884264 0.456834 0.364544 -0.157936
C90   C     C_R   0.377189 0.956583 0.453076 -0.150771
C91   C     C_R   0.682023 0.860663 0.992772 -0.051287
C92   C     C_R   0.382227 0.956921 0.362673 -0.162429
C93   C     C_3   0.963927 0.604322 0.422669 -0.442441
C94   C     C_3   0.956390 0.604133 0.518423 -0.435202
C95   C     C_3   0.464127 0.103985 0.421721 -0.440996
C96   C     C_3   0.458083 0.103726 0.518575 -0.439431
C97   C     C_R   0.982053 0.547679 0.249519 -0.121453
C98   C     C_R   0.949783 0.547009 0.696463 -0.108005
C99   C     C_R   0.480616 0.047566 0.247841 -0.125755
C100  C     C_R   0.450524 0.047000 0.696711 -0.102360
C101  C     C_R   0.740064 0.456044 0.699114 0.017986
C102  C     C_R   0.959088 0.503069 0.285361 0.031720
C103  C     C_R   0.270401 0.455350 0.260757 -0.105268
C104  C     C_R   0.230212 0.955950 0.745422 -0.113502
C105  C     C_R   0.761301 0.955734 0.299526 0.013185
C106  C     C_R   0.993087 0.456736 0.264349 -0.082390
C107  C     C_R   0.948927 0.456071 0.693375 -0.125380
C108  C     C_R   0.489058 0.956442 0.259796 -0.092834
C109  C     C_R   0.449294 0.956064 0.693500 -0.106829
C110  C     C_R   0.738652 0.547634 0.703235 -0.075613
C111  C     C_R   0.269010 0.546759 0.252063 -0.071503
C112  C     C_R   0.231109 0.047468 0.749418 -0.079999
F1    F     F_    0.534888 0.424075 0.596915 -0.615436
F2    F     F_    0.985391 0.771049 0.167162 -0.600757
F3    F     F_    0.518466 0.269857 0.834534 -0.602735
F4    F     F_    0.484437 0.271092 0.167913 -0.595019
F5    F     F_    0.338084 0.715604 0.296917 -0.629672
F6    F     F_    0.674001 0.726171 0.702467 -0.618917
F7    F     F_    0.831551 0.220854 0.296799 -0.621780
F8    F     F_    0.176427 0.226492 0.700858 -0.627336
F9    F     F_    0.748379 0.355866 0.805746 -0.693916
F10   F     F_    0.238572 0.342009 0.184271 -0.692408
F11   F     F_    0.275160 0.837036 0.810217 -0.693553
F12   F     F_    0.472936 0.402430 0.356899 -0.631091
F13   F     F_    0.756400 0.858580 0.191432 -0.694319
F14   F     F_    0.001151 0.671940 0.192731 -0.649552
F15   F     F_    0.007118 0.669401 0.805622 -0.661094
F16   F     F_    0.501951 0.171920 0.192895 -0.650302
F17   F     F_    0.506097 0.169447 0.805522 -0.659420
F18   F     F_    0.021378 0.911556 0.666728 -0.635309
F19   F     F_    0.965011 0.912032 0.425664 -0.611814
F20   F     F_    0.484174 0.580522 0.309902 -0.653127
F21   F     F_    0.546620 0.602435 0.550019 -0.620577
F22   F     F_    0.961802 0.093686 0.427088 -0.627944
F23   F     F_    0.018058 0.093113 0.668003 -0.647359
F24   F     F_    0.024711 0.770290 0.836523 -0.596549
H1    H     H_    0.816950 0.665322 0.821406 0.221227
H2    H     H_    0.672304 0.691926 0.830475 0.016408
H3    H     H_    0.826802 0.182766 0.166667 0.021239
H4    H     H_    0.174916 0.189986 0.827247 0.039416
H5    H     H_    0.918041 0.252956 0.160948 0.179791
H6    H     H_    0.085584 0.263585 0.830655 0.180672
H7    H     H_    0.423119 0.739542 0.155975 0.183571
H8    H     H_    0.586319 0.767730 0.833231 0.178254
H9    H     H_    0.921887 0.290024 0.274460 0.237493
H10   H     H_    0.087699 0.299549 0.721057 0.237682
H11   H     H_    0.433691 0.779182 0.271172 0.235163
H12   H     H_    0.179488 0.665816 0.178387 0.229636
H13   H     H_    0.588417 0.801553 0.721815 0.240365
H14   H     H_    0.869329 0.417659 0.481306 0.148770
H15   H     H_    0.881196 0.418198 0.326651 0.141665
H16   H     H_    0.369661 0.917665 0.481256 0.149650
H17   H     H_    0.378060 0.918313 0.324101 0.143861
H18   H     H_    0.928573 0.640306 0.367762 0.231103
H19   H     H_    0.025354 0.595750 0.598073 0.213160
H20   H     H_    0.428996 0.140233 0.367560 0.233144
H21   H     H_    0.527326 0.094939 0.597604 0.211241
H22   H     H_    0.948262 0.354747 0.178565 0.157541
H23   H     H_    0.320520 0.165942 0.822032 0.224551
H24   H     H_    0.065057 0.372489 0.817255 0.160434
H25   H     H_    0.457494 0.849004 0.179525 0.154328
H26   H     H_    0.566768 0.874377 0.817794 0.161584
H27   H     H_    0.037058 0.595972 0.448433 0.217779
H28   H     H_    0.916792 0.640055 0.518667 0.237796
H29   H     H_    0.536822 0.095277 0.446323 0.215958
H30   H     H_    0.419331 0.139788 0.519994 0.238612
H31   H     H_    0.964558 0.589864 0.250377 0.161071
H32   H     H_    0.928008 0.588667 0.669399 0.174310
H33   H     H_    0.463355 0.089783 0.248866 0.161681
H34   H     H_    0.681734 0.165387 0.178520 0.226211
H35   H     H_    0.429215 0.088700 0.669640 0.176107
H36   H     H_    0.725817 0.415006 0.666015 0.201906
H37   H     H_    0.296144 0.415142 0.293983 0.238842
H38   H     H_    0.204315 0.915176 0.718160 0.228460
H39   H     H_    0.775721 0.914870 0.333134 0.210335
H40   H     H_    0.996438 0.416248 0.294005 0.100628
H41   H     H_    0.929225 0.414643 0.663061 0.107574
H42   H     H_    0.487745 0.915422 0.284127 0.101542
H43   H     H_    0.429573 0.914646 0.663104 0.111862
H44   H     H_    0.723944 0.589945 0.677421 0.190141
H45   H     H_    0.634600 0.341376 0.849851 0.248738
H46   H     H_    0.291027 0.589023 0.267178 0.167225
H47   H     H_    0.208886 0.089861 0.733073 0.170574
H48   H     H_    0.777603 0.089563 0.321761 0.186676
H49   H     H_    0.403613 0.520254 0.508624 0.233804
H50   H     H_    0.620583 0.484315 0.402548 0.226499
H51   H     H_    0.876781 0.001799 0.595070 0.229753
H52   H     H_    0.101787 0.003335 0.494837 0.230339
H53   H     H_    0.368192 0.344574 0.150641 0.249768
H54   H     H_    0.148984 0.834040 0.848659 0.245216
H55   H     H_    0.874152 0.848100 0.149064 0.244448
H56   H     H_    0.325449 0.674841 0.164307 0.039526
N1    N     N_R   0.892620 0.603790 0.941770 -0.089452
N2    N     N_R   0.973690 0.529110 0.793240 -0.049403
N3    N     N_R   0.526310 0.029110 0.206760 -0.043861
N4    N     N_R   0.473690 0.029110 0.793240 -0.050064
N5    N     N_R   0.818570 0.472310 0.793020 -0.078002
N6    N     N_R   0.181430 0.472310 0.206980 -0.070703
N7    N     N_R   0.318570 0.972310 0.793020 -0.064056
N8    N     N_R   0.681430 0.972310 0.206980 -0.083437
N9    N     N_R   0.026930 0.472300 0.207330 -0.042193
N10   N     N_R   0.973070 0.472300 0.792670 -0.046463
N11   N     N_R   0.526930 0.972300 0.207330 -0.047842
N12   N     N_R   0.107380 0.603790 0.058230 -0.092543
N13   N     N_R   0.473070 0.972300 0.792670 -0.044781
N14   N     N_R   0.817960 0.529130 0.792460 -0.070667
N15   N     N_R   0.182040 0.529130 0.207540 -0.058490
N16   N     N_R   0.317960 0.029130 0.792460 -0.061051
N17   N     N_R   0.682040 0.029130 0.207540 -0.071753
N18   N     N_R   0.894850 0.397640 0.943830 -0.116367
N19   N     N_R   0.105150 0.397640 0.056170 -0.111030
N20   N     N_R   0.394850 0.897640 0.943830 -0.112115
N21   N     N_R   0.605150 0.897640 0.056170 -0.115386
N22   N     N_R   0.950040 0.603780 0.055950 -0.127106
N23   N     N_R   0.392620 0.103790 0.941770 -0.090645
N24   N     N_R   0.049960 0.603780 0.944050 -0.126485
N25   N     N_R   0.450040 0.103780 0.055950 -0.126232
N26   N     N_R   0.549960 0.103780 0.944050 -0.127321
N27   N     N_R   0.607380 0.103790 0.058230 -0.090425
N28   N     N_R   0.952270 0.397640 0.058010 -0.077885
N29   N     N_R   0.047730 0.397640 0.941990 -0.080769
N30   N     N_R   0.452270 0.897640 0.058010 -0.079870
N31   N     N_R   0.547730 0.897640 0.941990 -0.078195
N32   N     N_R   0.026310 0.529110 0.206760 -0.041131
Ni1   Ni    Ni4+2 0.934160 0.565860 0.869070 0.248774
Ni2   Ni    Ni4+2 0.065840 0.565860 0.130930 0.274476
Ni3   Ni    Ni4+2 0.434160 0.065860 0.869070 0.256917
Ni4   Ni    Ni4+2 0.565840 0.065860 0.130930 0.265115
Ni5   Ni    Ni4+2 0.067260 0.435560 0.132230 0.260002
Ni6   Ni    Ni4+2 0.932740 0.435560 0.867770 0.234924
Ni7   Ni    Ni4+2 0.567260 0.935560 0.132230 0.240759
Ni8   Ni    Ni4+2 0.432740 0.935560 0.867770 0.255090

loop_
_geom_bond_atom_site_label_1
_geom_bond_atom_site_label_2
_ccdc_geom_bond_type
C44   C49   A    
C3    N17   A    
C83   C87   A    
C93   C94   S    
C73   F7    S    
N3    N11   A    
C56   H26   S    
C15   C36   A    
C2    C84   S    
C95   C96   S    
C9    C14   A    
C25   N12   A    
C19   C31   S    
C89   H15   S    
N6    Ni5   S    
N18   N28   A    
C57   C62   A    
C39   F23   S    
N5    Ni6   S    
C75   H9    S    
C43   C78   S    
C98   N2    A    
C53   H22   S    
C9    F15   S    
C49   C60   A    
C22   C32   S    
N3    Ni4   S    
C33   C38   S    
C64   C68   A    
N2    Ni1   S    
C93   H18   S    
C35   C37   S    
C24   C26   S    
C67   C72   S    
C108  N11   A    
C8    N22   A    
C10   C15   A    
N23   N25   A    
C36   N23   A    
C42   C46   A    
C38   C39   S    
N20   Ni8   S    
C1    H1    S    
C101  N5    A    
C6    N20   A    
C93   H27   S    
C65   C70   A    
C14   C62   S    
C99   N3    A    
C2    C107  A    
C103  H37   S    
C4    N18   A    
C30   C38   S    
C101  H36   S    
C95   H20   S    
C27   H49   S    
C100  N4    A    
N4    N13   A    
C50   H53   S    
C76   H6    S    
C24   C29   S    
C72   C78   S    
C75   H5    S    
C36   H23   S    
C20   C112  A    
C19   C103  A    
C105  N8    A    
C28   C35   S    
C44   C58   S    
C94   H19   S    
C56   C91   A    
C48   C91   S    
N29   Ni6   S    
C70   C74   S    
C5    C69   A    
C57   F24   S    
C92   H17   S    
C51   C57   A    
N8    Ni7   S    
C71   H56   S    
C3    H48   S    
C77   H11   S    
C40   C44   A    
C97   C102  A    
N21   Ni7   S    
N10   Ni6   S    
C20   C34   S    
C53   N28   A    
N9    Ni5   S    
C96   H21   S    
N4    Ni3   S    
C76   H10   S    
C29   C33   S    
C87   C92   A    
C107  H41   S    
C100  H35   S    
C73   C75   S    
C29   C39   S    
N5    N14   A    
C103  N6    A    
C1    C12   A    
C6    F11   S    
C61   F4    S    
C13   C108  A    
C10   F16   S    
C95   H29   S    
C16   C47   A    
C112  H47   S    
C22   F1    S    
C9    N24   A    
C5    N19   A    
C63   C67   A    
C82   C96   S    
C71   F5    S    
C45   C69   S    
C34   C39   S    
C84   C88   A    
C28   C32   S    
C62   C66   A    
C55   H25   S    
C79   C94   S    
C90   H16   S    
C86   C90   A    
C94   H28   S    
C79   C81   A    
C12   C63   S    
C85   C89   A    
C54   N29   A    
N20   N30   A    
C73   H3    S    
C68   C73   S    
C82   C86   A    
C47   N27   A    
C46   C51   A    
C111  H46   S    
C24   C34   S    
C72   F6    S    
C17   C86   S    
N32   Ni2   S    
C18   C101  A    
C23   C31   S    
C13   C99   A    
C1    N1    A    
N7    Ni8   S    
C77   H7    S    
C78   H13   S    
C52   C59   A    
C28   H50   S    
N19   N29   A    
C81   C93   S    
C11   C16   A    
C109  H43   S    
N15   Ni2   S    
C90   C92   A    
C66   C71   S    
C61   C65   A    
C11   F17   S    
C110  H44   S    
C8    C12   A    
C83   C95   S    
C13   C87   S    
N14   Ni1   S    
N18   Ni6   S    
C108  H42   S    
C110  N14   A    
C32   C37   S    
C7    F13   S    
C109  N13   A    
C11   N26   A    
C112  N16   A    
C7    N21   A    
C51   H54   S    
C74   C76   S    
C107  N10   A    
C55   N30   A    
C49   H45   S    
N28   Ni5   S    
C8    F14   S    
N17   Ni4   S    
N30   Ni7   S    
C78   H8    S    
N11   Ni7   S    
C22   C27   S    
C27   C31   S    
C105  H39   S    
C6    C80   A    
N27   Ni4   S    
C104  N7    A    
C31   C35   S    
C3    C21   A    
C23   C28   S    
N12   Ni2   S    
C111  N15   A    
N26   Ni3   S    
C71   C77   S    
C47   H34   S    
C29   H51   S    
N31   Ni8   S    
C43   C48   A    
C30   C34   S    
C41   C45   A    
N19   Ni5   S    
N1    N22   A    
N6    N15   A    
C22   C23   S    
C88   H14   S    
C18   C110  A    
N13   Ni8   S    
C17   C109  A    
C56   N31   A    
C104  H38   S    
C53   C58   A    
C40   C75   S    
C26   C30   S    
C23   F12   S    
C99   H33   S    
N24   Ni1   S    
C19   C111  A    
C74   F8    S    
N12   N24   A    
C59   C63   A    
N8    N17   A    
C97   N32   A    
C60   C64   A    
C21   C33   S    
N1    Ni1   S    
C96   H30   S    
N16   Ni3   S    
C97   H31   S    
C7    C91   A    
C46   C80   S    
C55   C80   A    
N21   N31   A    
N26   N27   A    
C79   C84   A    
C54   C69   A    
C74   H4    S    
C45   C50   A    
C27   C37   S    
C59   F2    S    
C5    F10   S    
C72   H2    S    
N7    N16   A    
C41   C76   S    
C4    F9    S    
C102  C106  A    
C25   H12   S    
N23   Ni3   S    
C38   F22   S    
C14   C25   A    
C98   H32   S    
N22   Ni2   S    
C17   C100  A    
C81   C85   A    
C37   F21   S    
C20   C104  A    
C26   F19   S    
N25   Ni4   S    
C54   H24   S    
C24   F18   S    
C48   C52   A    
C18   C32   S    
C88   C89   A    
C2    C98   A    
N2    N10   A    
C43   C67   A    
C82   C83   A    
C40   C68   A    
C10   N25   A    
C4    C58   A    
C42   C66   A    
C50   C61   A    
C106  H40   S    
C42   C77   S    
C60   F3    S    
C16   C64   S    
N9    N32   A    
C35   F20   S    
C52   H55   S    
C21   C105  A    
C85   C102  S    
C26   C33   S    
C30   H52   S    
C41   C70   A    
C106  N9    A    
C15   C65   S    
