data_mof_unit_66820.cif
_audit_creation_date              2013-03-05T15:41:43-0500
_audit_creation_method            fapswitch 2.2
_symmetry_space_group_name_H-M    P1
_symmetry_Int_Tables_number       1
_space_group_crystal_system       triclinic
_cell_length_a                    8.475876
_cell_length_b                    15.119053
_cell_length_c                    15.210537
_cell_angle_alpha                 97.742727
_cell_angle_beta                  100.147722
_cell_angle_gamma                 97.542706
_cell_volume                      1877.04399958

loop_
_atom_site_label
_atom_site_type_symbol
_atom_site_description
_atom_site_fract_x
_atom_site_fract_y
_atom_site_fract_z
_atom_type_partial_charge
P1    P     P_3+3 0.004200 0.709230 0.580350 0.491230
O1    O     O_2   0.174080 0.723060 0.553930 -0.341146
O2    O     O_3   0.901570 0.609580 0.550840 -0.395873
O3    O     O_3   0.370350 0.665080 0.388270 -0.390232
O4    O     O_2   0.301042 0.826063 0.443386 -0.297856
O5    O     O_3   0.030494 0.730121 0.698343 -0.641529
O6    O     O_3   0.372035 0.805806 0.282021 -0.549150
C1    C     C_3   0.561761 0.838640 0.184598 -0.592240
H1    H     H_    0.638161 0.890117 0.239333 0.224380
P2    P     P_3+3 0.305000 0.425570 0.290900 0.550462
P3    P     P_3+3 0.864685 0.618080 0.226190 0.515935
O7    O     O_2   0.134790 0.452800 0.278150 -0.253867
O8    O     O_3   0.937650 0.618620 0.340860 -0.310960
O9    O     O_2   0.994654 0.587263 0.174358 -0.355949
O10   O     O_3   0.268543 0.306733 0.253588 -0.588690
O11   O     O_3   0.852426 0.731169 0.215708 -0.638862
C2    C     C_3   0.998075 0.777930 0.201744 0.886636
H2    H     H_    0.102043 0.743865 0.223045 0.087191
C3    C     C_3   0.981241 0.784901 0.101192 -1.040303
H3    H     H_    0.949129 0.716422 0.059672 0.262763
H4    H     H_    0.885003 0.825329 0.080186 0.256861
C4    C     C_3   0.667178 0.309433 0.252987 0.667016
H5    H     H_    0.581157 0.337511 0.291749 0.012756
C5    C     C_3   0.567585 0.253116 0.162358 -0.721806
H6    H     H_    0.437906 0.241308 0.164568 0.196161
H7    H     H_    0.573299 0.289687 0.104260 0.276397
Ba1   Ba    Ba6+2 0.154730 0.543770 0.458180 1.681484
C6    C     C_3   0.151444 0.689134 0.743656 0.839475
H8    H     H_    0.186913 0.634192 0.698738 -0.019062
C7    C     C_3   0.082693 0.649396 0.818611 -0.981631
H9    H     H_    0.040993 0.702445 0.862921 0.263524
H10   H     H_    0.174076 0.619094 0.861152 0.228540
H11   H     H_    0.977407 0.597438 0.786709 0.275335
C8    C     C_3   0.205904 0.248558 0.309238 0.683286
C9    C     C_3   0.306174 0.170829 0.312978 -0.744736
H12   H     H_    0.278827 0.129754 0.365425 0.232441
H13   H     H_    0.435452 0.198821 0.327708 0.192817
P4    P     P_3+3 0.806080 0.290760 0.419570 0.510455
O12   O     O_2   0.636200 0.276890 0.446040 -0.406484
O13   O     O_3   0.908720 0.390410 0.449080 -0.354509
O14   O     O_3   0.439930 0.334910 0.611650 -0.325721
O15   O     O_3   0.757199 0.254489 0.302113 -0.580798
P5    P     P_3+3 0.937705 0.383311 0.775265 0.558065
O16   O     O_3   0.402060 0.547860 0.609750 -0.405037
O17   O     O_3   0.872630 0.381370 0.659060 -0.359562
O18   O     O_2   0.856777 0.458433 0.820188 -0.292106
O19   O     O_3   0.839320 0.286942 0.808399 -0.427341
Ba2   Ba    Ba6+2 0.655430 0.456220 0.541750 1.646948
P6    P     P_3+3 0.420965 0.781729 0.392410 0.494399
C10   C     C_3   0.466161 0.765476 0.224735 0.395657
H14   H     H_    0.554431 0.726892 0.259512 0.062776
H15   H     H_    0.642247 0.807078 0.144306 0.202870
O20   O     O_3   0.408220 0.452130 0.390170 -0.414806
C11   C     C_3   0.636791 0.734953 0.693953 0.433200
H16   H     H_    0.709544 0.689721 0.660779 0.087932
H17   H     H_    0.545100 0.751782 0.639627 0.095123
C12   C     C_3   0.752484 0.820957 0.742739 -0.705751
H18   H     H_    0.856361 0.802020 0.787329 0.219944
H19   H     H_    0.796499 0.858604 0.691996 0.144883
P7    P     P_3+3 0.506149 0.578752 0.723633 0.473795
O21   O     O_2   0.675490 0.547140 0.721820 -0.341471
O22   O     O_3   0.558875 0.695495 0.756872 -0.550492
H20   H     H_    0.097327 0.817847 0.087700 0.254431
C13   C     C_3   0.929317 0.214767 0.808141 0.231000
H21   H     H_    0.051411 0.233282 0.793418 -0.031781
C14   C     C_3   0.950631 0.184710 0.902813 0.031222
H22   H     H_    0.045224 0.235034 0.948416 0.176986
P8    P     P_3+3 0.382978 0.217872 0.600646 0.525938
C15   C     C_3   0.401223 0.223977 0.773726 0.738974
H23   H     H_    0.287204 0.249889 0.749488 -0.191230
O23   O     O_2   0.481595 0.178769 0.532888 -0.330064
O24   O     O_3   0.472566 0.187831 0.702477 -0.535915
C16   C     C_3   0.352173 0.145329 0.824353 -0.094033
H24   H     H_    0.425332 0.091199 0.811942 0.212058
H25   H     H_    0.225453 0.113825 0.793176 -0.013406
C17   C     C_R   0.160987 0.168764 0.562217 0.122870
C18   C     C_R   0.098661 0.074461 0.548609 -0.166344
C19   C     C_R   0.952691 0.891269 0.542633 -0.134948
C20   C     C_R   0.099564 0.929336 0.600834 -0.030623
C21   C     C_R   0.184937 0.009762 0.586785 0.277394
C22   C     C_R   0.889373 0.796625 0.530375 0.272079
C23   C     C_R   0.730410 0.767794 0.482286 -0.488601
C24   C     C_R   0.903795 0.201785 0.481197 0.278388
C25   C     C_R   0.841866 0.106660 0.463668 0.061625
C26   C     C_R   0.934097 0.044665 0.504298 0.026662
C27   C     C_R   0.689399 0.071177 0.409283 -0.042565
C28   C     C_R   0.621759 0.980286 0.402300 -0.112694
C29   C     C_R   0.705020 0.919650 0.447879 0.064834
C30   C     C_R   0.864627 0.951373 0.496908 0.074464
C31   C     C_R   0.635200 0.828180 0.445393 0.180357
C32   C     C_R   0.049939 0.229044 0.544483 -0.485228
H26   H     H_    0.501092 0.959069 0.362085 0.199391
H27   H     H_    0.618721 0.113592 0.373137 0.137995
H28   H     H_    0.677840 0.697459 0.475849 0.160909
H29   H     H_    0.085167 0.299677 0.573035 0.158698
C33   C     C_R   0.245926 0.466864 0.761469 -0.413830
C34   C     C_R   0.158432 0.421302 0.815474 0.112132
C35   C     C_R   0.229624 0.421037 0.905279 -0.118424
C36   C     C_R   0.374730 0.479834 0.949093 0.155729
C37   C     C_R   0.456782 0.530092 0.892950 -0.203285
C38   C     C_R   0.396673 0.519879 0.799192 0.307117
C39   C     C_R   0.600627 0.532477 0.087808 -0.249143
C40   C     C_R   0.660309 0.553376 0.181188 0.334458
C41   C     C_R   0.407129 0.481507 0.209657 0.139649
C42   C     C_R   0.339769 0.466317 0.115498 0.201503
C43   C     C_R   0.437520 0.491711 0.051536 -0.055611
C44   C     C_R   0.562315 0.529879 0.241360 -0.507246
H30   H     H_    0.684508 0.549321 0.044682 0.178646
H31   H     H_    0.165575 0.375070 0.938786 0.181533
H32   H     H_    0.565853 0.578216 0.920040 0.135483
H33   H     H_    0.610530 0.545516 0.313437 0.191812
H34   H     H_    0.192389 0.465109 0.691067 0.148772
C45   C     C_1   0.356870 0.702422 0.150346 0.042127
N1    N     N_1   0.269973 0.655120 0.090351 -0.034977
C46   C     C_1   0.616740 0.164021 0.141451 0.575051
N2    N     N_1   0.655623 0.093978 0.125488 -0.019747
N3    N     N_R   0.291463 0.758934 0.781877 0.231915
O25   O     O_R   0.350858 0.777313 0.868516 -0.421526
O26   O     O_R   0.349863 0.808838 0.728438 -0.406333
N4    N     N_R   0.037740 0.209401 0.268201 0.228492
O27   O     O_R   0.968882 0.139286 0.296388 -0.444722
O28   O     O_R   0.975303 0.226259 0.189068 -0.281901
C47   C     C_1   0.215558 0.297272 0.399743 0.051283
N5    N     N_1   0.229806 0.344940 0.467323 -0.000244
C48   C     C_1   0.457892 0.883961 0.123078 0.269028
N6    N     N_1   0.377333 0.918522 0.072997 -0.020833
C49   C     C_1   0.273754 0.111322 0.224878 0.382557
N7    N     N_1   0.245930 0.065990 0.154702 -0.018974
C50   C     C_1   0.677983 0.881664 0.800572 0.467965
N8    N     N_1   0.620336 0.929515 0.846994 0.027153
C51   C     C_1   0.841875 0.140742 0.736337 0.139562
N9    N     N_1   0.773708 0.082351 0.679887 -0.026985
N10   N     N_R   0.804652 0.184118 0.940552 0.295050
O29   O     O_R   0.685404 0.117498 0.912730 -0.405819
O30   O     O_R   0.808294 0.238452 0.014932 -0.247516
C52   C     C_1   0.003147 0.096011 0.905744 0.108624
N11   N     N_1   0.041392 0.025903 0.910367 -0.035705
N12   N     N_R   0.515078 0.301763 0.827501 0.248570
O31   O     O_R   0.555372 0.369372 0.787695 -0.326789
O32   O     O_R   0.586085 0.304247 0.910784 -0.292612
N13   N     N_R   0.364893 0.168850 0.921959 0.277130
O33   O     O_R   0.381818 0.105713 0.971415 -0.378119
O34   O     O_R   0.323470 0.243476 0.956746 -0.450483
C53   C     C_1   0.116128 0.920295 0.694580 0.184093
N14   N     N_1   0.129229 0.916166 0.770782 -0.023950
N15   N     N_R   0.357059 0.015688 0.598706 0.269263
O35   O     O_R   0.417790 0.008219 0.526124 -0.362315
O36   O     O_R   0.437630 0.992259 0.670529 -0.409386
N16   N     N_R   0.170985 0.430103 0.087835 0.249955
O37   O     O_R   0.069821 0.476704 0.047848 -0.344635
O38   O     O_R   0.121049 0.346456 0.093215 -0.291322
N17   N     N_R   0.030478 0.868506 0.255535 0.246654
O39   O     O_R   0.160789 0.923678 0.254136 -0.402857
O40   O     O_R   0.937684 0.892134 0.311183 -0.402087
N18   N     N_R   0.778857 0.383848 0.236335 0.208770
O41   O     O_R   0.829812 0.383008 0.160423 -0.281487
O42   O     O_R   0.842518 0.447990 0.303112 -0.362816

loop_
_geom_bond_atom_site_label_1
_geom_bond_atom_site_label_2
_geom_bond_distance
_ccdc_geom_bond_type
Ba1   Ba2   4.707026 S    
P2    Ba1   3.435730 S    
C25   C27   1.401369 A    
P4    O13   1.601337 S    
C28   C29   1.409914 A    
C37   H32   1.078064 S    
C8    C47   1.454481 S    
C23   H28   1.082176 S    
P4    C24   1.932082 S    
N18   O42   1.291263 A    
C16   H24   1.105790 S    
C3    H3    1.110908 S    
C19   C22   1.435812 A    
P6    C31   1.853912 S    
N3    O26   1.297689 A    
C34   C35   1.393444 A    
Ba2   O21   2.860150 S    
C47   N5    1.150841 T    
C16   N13   1.460663 S    
C33   H34   1.082260 S    
C48   N6    1.156352 T    
C12   C50   1.464690 S    
C6    H8    1.110054 S    
C9    H13   1.093688 S    
C5    H7    1.108477 S    
P4    O15   1.754933 S    
C6    N3    1.457007 S    
N13   O34   1.298014 A    
P4    O12   1.557916 D    
C8    C9    1.539413 S    
P3    O9    1.547249 D    
C12   H19   1.105876 S    
P1    C22   1.902247 S    
C46   N2    1.157390 T    
O2    Ba2   2.879195 S    
P7    O22   1.744582 S    
P1    O1    1.557553 D    
P2    O20   1.576552 S    
C45   N1    1.155721 T    
Ba1   O16   2.817469 S    
O5    C6    1.393874 S    
C24   C25   1.436735 A    
C3    H20   1.108319 S    
C1    H1    1.105129 S    
C15   C16   1.552256 S    
O1    Ba1   2.869015 S    
C1    H15   1.105749 S    
O10   C8    1.417160 S    
P4    Ba2   3.429909 S    
C21   N15   1.427355 S    
C14   H22   1.097516 S    
C18   C26   1.422918 A    
P2    C41   1.859557 S    
C35   H31   1.063650 S    
C28   H26   1.078724 S    
C16   H25   1.109373 S    
N16   O38   1.297986 A    
O4    P6    1.549267 D    
C15   H23   1.111807 S    
C41   C42   1.420825 A    
N4    O28   1.299011 A    
C22   C23   1.397500 A    
O14   P8    1.749187 S    
N15   O36   1.300072 A    
C4    N18   1.451783 S    
C19   C30   1.425506 A    
C8    N4    1.461878 S    
Ba2   O20   2.816966 S    
C11   H17   1.110774 S    
C39   H30   1.078164 S    
O7    Ba1   2.860051 S    
P1    O5    1.748808 S    
C33   C38   1.397534 A    
C5    H6    1.097382 S    
O6    P6    1.755771 S    
O19   C13   1.411055 S    
C26   C30   1.436929 A    
C19   C20   1.396765 A    
O11   C2    1.404519 S    
C11   O22   1.407502 S    
C10   H14   1.112715 S    
P7    O21   1.574745 D    
P1    O2    1.601308 S    
C9    H12   1.112049 S    
C13   C14   1.555311 S    
C15   O24   1.413115 S    
C27   H27   1.073398 S    
C14   N10   1.452315 S    
P3    O11   1.753250 S    
C36   C37   1.426769 A    
C13   C51   1.470501 S    
Ba1   O13   2.878497 S    
P8    O24   1.745746 S    
C33   C34   1.390060 A    
C2    H2    1.100135 S    
C25   C26   1.431715 A    
C9    C49   1.470100 S    
P5    O17   1.751436 S    
P2    O7    1.538595 D    
C14   C52   1.471176 S    
C29   C31   1.423845 A    
N10   O29   1.297055 A    
C4    C5    1.556562 S    
C2    N17   1.462984 S    
P7    C38   1.846283 S    
C1    C10   1.540741 S    
O3    Ba1   2.857443 S    
C42   N16   1.429549 S    
N4    O27   1.302465 A    
N10   O30   1.298606 A    
N15   O35   1.295563 A    
O17   Ba2   2.790559 S    
C15   N12   1.465647 S    
O13   Ba2   2.972381 S    
C36   C43   1.533239 S    
C11   H16   1.109010 S    
C7    H11   1.099810 S    
C3    H4    1.110297 S    
P2    O10   1.778602 S    
C27   C28   1.400251 A    
C44   H33   1.082482 S    
P5    C34   1.850439 S    
O6    C10   1.413168 S    
N17   O40   1.299823 A    
C52   N11   1.155760 T    
C51   N9    1.156491 T    
P3    C40   1.839335 S    
Ba1   O20   2.963871 S    
N12   O32   1.296511 A    
P8    C17   1.887324 S    
C24   C32   1.403480 A    
C42   C43   1.442760 A    
N3    O25   1.303122 A    
C23   C31   1.404127 A    
C20   C53   1.434811 S    
O3    P6    1.749368 S    
C53   N14   1.155691 T    
C10   C45   1.468122 S    
C13   H21   1.105418 S    
O2    Ba1   2.971361 S    
C50   N8    1.156485 T    
N16   O37   1.300732 A    
C7    H10   1.106776 S    
C17   C18   1.427913 A    
P3    O8    1.743406 S    
C7    H9    1.111379 S    
C12   H18   1.106916 S    
C4    O15   1.401189 S    
C18   C21   1.421263 A    
O16   P7    1.769862 S    
P8    O23   1.542562 D    
C6    C7    1.525495 S    
C37   C38   1.407548 A    
C2    C3    1.530100 S    
O14   Ba2   2.856724 S    
C39   C43   1.418249 A    
C39   C40   1.398960 A    
P5    O18   1.545308 D    
N12   O31   1.294639 A    
C17   C32   1.411120 A    
C32   H29   1.078811 S    
C20   C21   1.393329 A    
O16   Ba2   2.962947 S    
C1    C48   1.470062 S    
C29   C30   1.412108 A    
C5    C46   1.472345 S    
C35   C36   1.418292 A    
N18   O41   1.301214 A    
P1    Ba1   3.429258 S    
C4    H5    1.106666 S    
O8    Ba1   2.790034 S    
C40   C44   1.389870 A    
N17   O39   1.298988 A    
N13   O33   1.299639 A    
P5    O19   1.760456 S    
C41   C44   1.387963 A    
C49   N7    1.156049 T    
O12   Ba2   2.869476 S    
C11   C12   1.533580 S    
