data_mof_unit_56723.cif
_audit_creation_date              2013-03-05T16:42:04-0500
_audit_creation_method            fapswitch 2.2
_symmetry_space_group_name_H-M    P1
_symmetry_Int_Tables_number       1
_space_group_crystal_system       triclinic
_cell_length_a                    9.899115
_cell_length_b                    10.767111
_cell_length_c                    13.091061
_cell_angle_alpha                 91.121478
_cell_angle_beta                  68.664018
_cell_angle_gamma                 89.222685
_cell_volume                      1299.10902582

loop_
_atom_site_label
_atom_site_type_symbol
_atom_site_description
_atom_site_fract_x
_atom_site_fract_y
_atom_site_fract_z
_atom_type_partial_charge
O1    O     O_R   0.385310 0.683210 0.499990 -0.607144
O2    O     O_R   0.614650 0.683240 0.500000 -0.603861
C1    C     C_R   0.504794 0.738369 0.489354 0.921364
O3    O     O_R   0.328390 0.499940 0.653610 -0.582913
O4    O     O_R   0.557730 0.499980 0.653620 -0.558425
C2    C     C_R   0.418039 0.495357 0.705592 0.985436
Zn1   Zn    Zn3+2 0.346870 0.499980 0.499990 1.058580
Zn2   Zn    Zn3+2 0.653130 0.500020 0.500010 1.119188
O5    O     O_R   0.385350 0.316760 0.500000 -0.601396
O6    O     O_R   0.614690 0.316790 0.500010 -0.549569
O7    O     O_R   0.442270 0.500020 0.346380 -0.570284
O8    O     O_R   0.671610 0.500060 0.346390 -0.571373
C3    C     C_R   0.503344 0.259497 0.497074 0.976225
C4    C     C_R   0.581655 0.493064 0.294685 0.931538
C5    C     C_R   0.759903 0.330944 0.015676 0.723884
C6    C     C_R   0.631916 0.463373 0.176119 -0.221564
C7    C     C_R   0.229443 0.542619 0.892184 0.626806
C8    C     C_R   0.192398 0.558824 0.005795 -0.100030
C9    C     C_R   0.296570 0.529119 0.050947 -0.212311
C10   C     C_R   0.430434 0.471995 0.986174 0.034989
C11   C     C_R   0.451220 0.433066 0.878213 -0.200589
C12   C     C_R   0.541311 0.446841 0.027246 -0.023084
C13   C     C_R   0.655350 0.361523 0.970415 -0.235678
C14   C     C_R   0.657821 0.304211 0.872451 0.687022
C15   C     C_R   0.557469 0.340462 0.826368 0.617472
C16   C     C_R   0.540777 0.504869 0.123721 -0.090081
C17   C     C_R   0.744210 0.375711 0.120920 -0.229886
C18   C     C_R   0.362400 0.485712 0.826564 -0.201813
H1    H     H_    0.463272 0.578725 0.163529 0.182623
H2    H     H_    0.268249 0.544551 0.138091 0.201914
C19   C     C_R   0.388143 0.935870 0.487956 0.000924
C20   C     C_R   0.515226 0.868790 0.470686 -0.079859
C21   C     C_R   0.648112 0.929424 0.449599 -0.134117
C22   C     C_R   0.645014 0.057624 0.470335 -0.116842
C23   C     C_R   0.513493 0.125936 0.487619 -0.075235
C24   C     C_R   0.390457 0.063104 0.489133 -0.057909
C25   C     C_3   0.302279 0.072688 0.416590 -0.312738
C26   C     C_3   0.298430 0.931770 0.417297 0.396016
H3    H     H_    0.194067 0.117319 0.460644 0.160110
H4    H     H_    0.188998 0.894422 0.459262 0.143764
C27   C     C_R   0.899485 0.589751 0.557990 0.045067
N1    N     N_R   0.856940 0.500860 0.500710 -0.154638
C28   C     C_R   0.963349 0.424968 0.430411 0.581805
C29   C     C_R   0.106258 0.423617 0.431236 0.554323
N2    N     N_R   0.142580 0.500820 0.500710 -0.167272
C30   C     C_R   0.043930 0.592600 0.554253 -0.118488
C31   C     C_3   0.999941 0.627726 0.672079 -0.297379
C32   C     C_3   0.843032 0.611311 0.680232 0.396260
H5    H     H_    0.036229 0.555892 0.716138 0.273003
C33   C     C_2   0.833224 0.314498 0.174570 1.123135
O9    O     O_2   0.774034 0.258868 0.259007 -0.544320
O10   O     O_R   0.984305 0.310468 0.123303 -0.741561
H6    H     H_    0.033659 0.258549 0.163920 0.406648
C34   C     C_2   0.780118 0.115369 0.471079 1.089735
O11   O     O_2   0.889143 0.112301 0.387848 -0.530153
O12   O     O_R   0.785041 0.165405 0.568886 -0.669188
H7    H     H_    0.884255 0.197667 0.560196 0.348546
C35   C     C_2   0.377101 0.121685 0.302472 1.206742
O13   O     O_2   0.499575 0.162393 0.273632 -0.631421
O14   O     O_R   0.303600 0.119332 0.229330 -0.698451
H8    H     H_    0.362493 0.155131 0.155737 0.344853
F1    F     F_    0.372320 0.873536 0.316266 -0.627652
F2    F     F_    0.932803 0.350787 0.358602 -0.610134
F3    F     F_    0.208039 0.346439 0.361119 -0.644361
C36   C     C_2   0.046122 0.758939 0.685690 0.980048
O15   O     O_2   0.129983 0.777017 0.733271 -0.518696
O16   O     O_R   0.995631 0.859352 0.642350 -0.787115
H9    H     H_    0.033631 0.941781 0.657891 0.363410
F4    F     F_    0.787798 0.503725 0.733437 -0.672166
F5    F     F_    0.758694 0.215043 0.819350 -0.540092
C37   C     C_2   0.739401 0.720028 0.726256 0.990716
O17   O     O_2   0.694585 0.742862 0.824971 -0.558100
O18   O     O_R   0.694792 0.794266 0.657688 -0.768695
H10   H     H_    0.625488 0.863984 0.699139 0.364310
F6    F     F_    0.868912 0.247789 0.962851 -0.565330
F7    F     F_    0.136698 0.583103 0.845876 -0.624910
C38   C     C_2   0.047243 0.609288 0.077672 1.032513
O19   O     O_2   0.016356 0.618178 0.176946 -0.600552
O20   O     O_R   0.944323 0.644849 0.033037 -0.693624
H11   H     H_    0.849889 0.676351 0.090849 0.365472
F8    F     F_    0.558932 0.279383 0.734375 -0.614448
C39   C     C_2   0.789379 0.860546 0.397978 1.047035
O21   O     O_2   0.811155 0.797874 0.314412 -0.575507
O22   O     O_R   0.895398 0.865504 0.445042 -0.743906
H12   H     H_    0.985123 0.813591 0.402173 0.353383

loop_
_geom_bond_atom_site_label_1
_geom_bond_atom_site_label_2
_geom_bond_distance
_ccdc_geom_bond_type
C5    F6    1.360455 S    
O18   H10   1.013804 S    
C9    C10   1.411781 A    
C32   F4    1.377526 S    
C28   F2    1.340549 S    
C31   H5    1.104813 S    
C38   O19   1.223441 D    
C29   F3    1.350066 S    
Zn1   O7    1.885150 S    
Zn1   N2    2.018776 S    
C24   C25   1.509650 S    
Zn2   N1    2.021034 S    
C3    C23   1.439966 S    
C19   C24   1.370316 A    
O4    C2    1.302366 A    
O7    C4    1.297365 A    
C35   O14   1.397626 S    
O12   H7    1.013750 S    
C22   C23   1.428428 A    
C27   N1    1.366874 A    
O5    C3    1.301114 A    
C34   O11   1.222702 D    
C2    C18   1.481675 S    
C23   C24   1.395275 A    
C36   O16   1.398682 S    
C7    F7    1.343461 S    
C33   O10   1.398481 S    
C27   C30   1.413594 A    
C21   C39   1.492251 S    
C25   C35   1.514930 S    
C17   C33   1.468603 S    
C6    C17   1.417407 A    
C5    C13   1.405450 A    
C15   F8    1.356123 S    
O3    Zn1   1.951950 S    
C21   C22   1.399325 A    
C38   O20   1.399073 S    
C6    C16   1.391223 A    
C34   O12   1.396847 S    
C14   F5    1.358247 S    
O16   H9    1.014041 S    
C14   C15   1.392097 A    
O3    C2    1.301018 A    
C37   O18   1.395209 S    
C8    C9    1.398956 A    
C33   O9    1.219863 D    
C35   O13   1.221612 D    
N2    C30   1.367524 A    
O14   H8    1.014170 S    
O1    C1    1.293660 A    
C28   C29   1.418516 A    
C25   C26   1.518398 S    
C5    C17   1.403898 A    
C31   C32   1.530620 S    
Zn2   O8    1.951951 S    
C7    C8    1.402913 A    
O22   H12   1.013812 S    
C11   C18   1.409123 A    
C10   C12   1.412168 A    
C22   C34   1.485633 S    
C39   O22   1.398085 S    
C4    C6    1.474183 S    
N1    C28   1.366016 A    
C32   C37   1.508529 S    
O10   H6    1.013495 S    
Zn1   O5    2.004119 S    
C11   C15   1.409485 A    
C30   C31   1.481825 S    
O1    Zn1   2.014282 S    
C7    C18   1.407278 A    
C19   C20   1.384691 A    
O2    Zn2   2.004120 S    
C29   N2    1.365250 A    
O8    C4    1.301996 A    
O6    C3    1.282681 A    
O4    Zn2   1.885148 S    
C19   C26   1.497824 S    
C20   C21   1.413840 A    
O2    C1    1.284666 A    
C37   O17   1.222581 D    
C25   H3    1.112042 S    
C26   H4    1.106534 S    
C8    C38   1.490055 S    
C27   C32   1.502751 S    
C36   O15   1.221039 D    
C1    C20   1.428753 S    
C13   C14   1.404225 A    
O20   H11   1.014017 S    
C10   C11   1.406532 A    
C16   H1    1.081143 S    
Zn2   O6    2.014282 S    
C39   O21   1.222346 D    
C12   C16   1.396298 A    
C12   C13   1.416233 A    
C9    H2    1.079921 S    
C31   C36   1.517783 S    
C26   F1    1.388735 S    
