data_mof_unit_11545.cif
_audit_creation_date              2012-12-10T17:37:48-0500
_audit_creation_method            fapswitch 2.2
_symmetry_space_group_name_H-M    P1
_symmetry_Int_Tables_number       1
_space_group_crystal_system       triclinic
_cell_length_a                    12.433876
_cell_length_b                    13.190044
_cell_length_c                    17.192584
_cell_angle_alpha                 107.564628
_cell_angle_beta                  74.434334
_cell_angle_gamma                 116.683726
_cell_volume                      2372.51028163

loop_
_atom_site_label
_atom_site_type_symbol
_atom_type_description
_atom_site_fract_x
_atom_site_fract_y
_atom_site_fract_z
_atom_type_partial_charge
C1    C     C_R   0.144142 0.713956 0.504962 0.845408
C2    C     C_R   0.893817 0.522658 0.804716 0.201000
C3    C     C_R   0.897214 0.446813 0.153922 -0.088786
C4    C     C_R   0.902558 0.451862 0.234467 -0.271264
C5    C     C_R   0.123741 0.517498 0.202031 0.164612
C6    C     C_R   0.116680 0.511816 0.120686 -0.172335
C7    C     C_R   0.004052 0.475704 0.096453 0.166563
C8    C     C_2   0.913312 0.398047 0.968314 0.415806
C9    C     C_2   0.000762 0.478104 0.012476 -0.295782
C10   C     C_R   0.014803 0.487427 0.259793 -0.036124
C11   C     C_R   0.733942 0.958385 0.438103 -0.194829
C12   C     C_R   0.982878 0.497580 0.651924 0.812557
C13   C     C_R   0.773839 0.162535 0.479382 -0.080827
C14   C     C_R   0.180659 0.927190 0.546105 0.091737
C15   C     C_R   0.261815 0.040671 0.572194 -0.209474
C16   C     C_R   0.386224 0.070164 0.560719 0.384126
C17   C     C_R   0.436047 0.989525 0.508904 -0.049630
C18   C     C_R   0.354860 0.873122 0.481844 0.004295
C19   C     C_R   0.563856 0.019095 0.485690 0.078917
C20   C     C_R   0.608585 0.931093 0.449920 0.158013
C21   C     C_R   0.528580 0.819034 0.420918 -0.236067
C22   C     C_R   0.405427 0.793584 0.430399 -0.132034
C23   C     C_R   0.856232 0.285764 0.488581 0.783477
C24   C     C_R   0.648622 0.133901 0.491797 -0.206515
C25   C     C_R   0.816047 0.073817 0.455939 -0.196017
C26   C     C_R   0.226199 0.839140 0.507532 -0.147805
C27   C     C_R   0.621019 0.635351 0.653835 -0.280507
C28   C     C_R   0.259055 0.355055 0.382829 0.369051
C29   C     C_R   0.368375 0.341140 0.351853 -0.240107
C30   C     C_R   0.464668 0.399504 0.395275 -0.209938
C31   C     C_R   0.454397 0.472098 0.472797 -0.058413
C32   C     C_R   0.345355 0.495328 0.501482 0.150710
C33   C     C_R   0.550138 0.522273 0.522084 -0.012900
C34   C     C_R   0.012904 0.495848 0.347253 0.776281
C35   C     C_R   0.530459 0.582963 0.603311 0.126728
C36   C     C_R   0.422879 0.596757 0.633760 -0.382891
C37   C     C_R   0.341105 0.574197 0.581428 0.466866
C38   C     C_R   0.663806 0.511261 0.496191 0.053094
C39   C     C_R   0.731722 0.626608 0.623567 0.064021
C40   C     C_R   0.961296 0.475276 0.734798 -0.052032
C41   C     C_R   0.006294 0.398734 0.742777 -0.237560
C42   C     C_R   0.985942 0.369635 0.817993 -0.189492
C43   C     C_R   0.921154 0.417224 0.886721 -0.010020
C44   C     C_R   0.875713 0.493510 0.880460 -0.200364
Cu1   Cu    Cu3+1 0.900140 0.524980 0.518800 0.929303
Cu2   Cu    Cu3+1 0.099860 0.475020 0.481200 0.961075
H1    H     H_    0.056742 0.359975 0.690349 0.162511
H2    H     H_    0.199106 0.536331 0.075968 0.128995
H3    H     H_    0.911921 0.093142 0.447711 0.146668
H4    H     H_    0.562063 0.752504 0.386561 0.141038
H5    H     H_    0.768376 0.890798 0.413752 0.135685
H6    H     H_    0.618271 0.201852 0.500990 0.221137
H7    H     H_    0.227815 0.106665 0.607069 0.163533
H8    H     H_    0.351813 0.710472 0.396112 0.163225
H9    H     H_    0.802225 0.667163 0.661940 0.123981
H10   H     H_    0.818082 0.428826 0.277473 0.150596
H11   H     H_    0.411141 0.637938 0.698289 0.130070
H12   H     H_    0.607005 0.684407 0.716012 0.131433
H13   H     H_    0.685750 0.461089 0.436943 0.108792
H14   H     H_    0.544037 0.380502 0.368073 0.135350
H15   H     H_    0.377792 0.279480 0.294992 0.142939
H16   H     H_    0.073685 0.549168 0.985714 0.119517
H17   H     H_    0.827122 0.530823 0.935203 0.127353
H18   H     H_    0.809678 0.423479 0.137391 0.161937
H19   H     H_    0.022886 0.311957 0.823149 0.147682
N1    N     N_R   0.749710 0.562810 0.547300 -0.182588
N2    N     N_R   0.249640 0.437820 0.453210 -0.196653
O1    O     O_R   0.025490 0.682370 0.523640 -0.583555
O2    O     O_R   0.194150 0.640180 0.491890 -0.519662
O3    O     O_R   0.905900 0.523560 0.631310 -0.592536
O4    O     O_R   0.074570 0.481370 0.599560 -0.535236
O5    O     O_R   0.805850 0.359820 0.508110 -0.582596
O6    O     O_R   0.974510 0.317630 0.476360 -0.588461
O7    O     O_R   0.925430 0.518630 0.400440 -0.591619
O8    O     O_R   0.094100 0.476440 0.368690 -0.595704
C45   C     C_3   0.046721 0.903977 0.565176 -0.801399
H20   H     H_    0.031737 0.985647 0.586420 0.208316
H21   H     H_    0.003759 0.855603 0.508717 0.243800
H22   H     H_    0.000705 0.854922 0.615437 0.235165
O9    O     O_3   0.456354 0.178984 0.601621 -0.592710
C46   C     C_3   0.476716 0.169007 0.675410 0.051853
H23   H     H_    0.514752 0.102728 0.663874 0.142623
H24   H     H_    0.390133 0.145423 0.719816 0.143461
C47   C     C_3   0.568368 0.285323 0.714272 -0.762651
H25   H     H_    0.533228 0.353723 0.727449 0.249760
H26   H     H_    0.584337 0.279314 0.772957 0.189679
H27   H     H_    0.656348 0.309824 0.671595 0.258667
C48   C     C_3   0.151520 0.266070 0.341148 -0.793342
H28   H     H_    0.178505 0.206615 0.286404 0.178575
H29   H     H_    0.086608 0.210039 0.383982 0.224270
H30   H     H_    0.106605 0.303030 0.317503 0.250748
O10   O     O_3   0.270298 0.639087 0.602739 -0.520852
C49   C     C_3   0.274212 0.713560 0.682517 0.064636
H31   H     H_    0.369026 0.777654 0.689747 0.138946
H32   H     H_    0.234519 0.660901 0.730934 0.142656
C50   C     C_3   0.200343 0.784920 0.695927 -0.819036
H33   H     H_    0.110370 0.730374 0.675813 0.247068
H34   H     H_    0.185729 0.824870 0.762560 0.196070
H35   H     H_    0.251212 0.856053 0.661747 0.231768
C51   C     C_3   0.247461 0.561050 0.225964 -0.864148
H36   H     H_    0.260123 0.637761 0.277698 0.220532
H37   H     H_    0.256279 0.491671 0.244287 0.251014
H38   H     H_    0.322000 0.588045 0.174052 0.220094
C52   C     C_3   0.842381 0.604794 0.801282 -0.890885
H39   H     H_    0.914784 0.678152 0.774028 0.226069
H40   H     H_    0.766915 0.557392 0.764245 0.247295
H41   H     H_    0.804519 0.642048 0.863728 0.222217
O11   O     O_3   0.830057 0.297543 0.996628 -0.575671
C53   C     C_3   0.727653 0.238325 0.955252 0.070071
H42   H     H_    0.754063 0.199781 0.889825 0.155604
H43   H     H_    0.684557 0.297584 0.957933 0.135922
C54   C     C_3   0.633757 0.140320 0.997341 -0.804879
H44   H     H_    0.605561 0.176014 0.063000 0.245500
H45   H     H_    0.552307 0.093473 0.965719 0.194804
H46   H     H_    0.672986 0.078226 0.994514 0.252630

loop_
_geom_bond_atom_site_label_1
_geom_bond_atom_site_label_2
_ccdc_geom_bond_type
C24   H6    S    
C49   H31   S    
C41   C42   A    
C19   C20   A    
C18   C26   A    
C45   H22   S    
C54   H45   S    
C46   H23   S    
C22   H8    S    
Cu1   Cu2   S    
C6    H2    S    
C15   H7    S    
O10   C49   S    
C28   C29   A    
C47   H26   S    
C3    C7    A    
C53   H43   S    
C5    C6    A    
C11   C25   A    
C15   C16   A    
C50   H35   S    
C1    O1    A    
O11   C53   S    
C13   C23   S    
C52   H39   S    
Cu2   O2    S    
C17   C19   A    
C39   H9    S    
C38   N1    A    
C2    C44   A    
C8    C9    D    
C30   H14   S    
C28   C48   S    
C42   H19   S    
C8    C43   S    
C34   O8    A    
C49   H32   S    
C21   C22   A    
C4    H10   S    
Cu1   O5    S    
C13   C25   A    
C23   O6    A    
C8    O11   S    
C52   H40   S    
Cu2   O8    S    
C46   H24   S    
C45   H20   S    
C44   H17   S    
C29   H15   S    
C11   C20   A    
C31   C33   A    
C9    H16   S    
C28   N2    A    
C47   H25   S    
C36   H11   S    
C53   C54   S    
C27   C39   A    
C16   C17   A    
C27   C35   A    
C3    H18   S    
C51   H38   S    
C1    O2    A    
C13   C24   A    
C50   H34   S    
Cu1   O7    S    
C16   O9    S    
C35   C36   A    
C14   C45   S    
C12   C40   S    
C43   C44   A    
C29   C30   A    
C31   C32   A    
C48   H30   S    
C2    C52   S    
C50   H33   S    
C20   C21   A    
Cu1   O1    S    
C51   H37   S    
C17   C18   A    
C41   H1    S    
C10   C34   S    
C32   C37   A    
C14   C26   A    
Cu2   O4    S    
C34   O7    A    
C32   N2    A    
C40   C41   A    
C12   O4    A    
C48   H29   S    
C49   C50   S    
C1    C26   S    
C39   N1    A    
C42   C43   A    
C4    C10   A    
C3    C4    A    
C46   C47   S    
C5    C51   S    
C7    C9    S    
C12   O3    A    
C36   C37   A    
C37   O10   S    
Cu1   O3    S    
C18   C22   A    
C23   O5    A    
C45   H21   S    
O9    C46   S    
C27   H12   S    
C6    C7    A    
C47   H27   S    
C33   C38   A    
C19   C24   A    
Cu2   N2    S    
C53   H42   S    
C30   C31   A    
Cu2   O6    S    
C51   H36   S    
C33   C35   A    
C54   H44   S    
C52   H41   S    
C25   H3    S    
C11   H5    S    
C38   H13   S    
C2    C40   A    
C5    C10   A    
C48   H28   S    
Cu1   N1    S    
C14   C15   A    
C21   H4    S    
C54   H46   S    
