data_mof_unit_28933.cif
_audit_creation_date              2012-12-10T16:49:22-0500
_audit_creation_method            fapswitch 2.2
_symmetry_space_group_name_H-M    P1
_symmetry_Int_Tables_number       1
_space_group_crystal_system       triclinic
_cell_length_a                    7.759397
_cell_length_b                    8.605197
_cell_length_c                    12.857922
_cell_angle_alpha                 89.588232
_cell_angle_beta                  87.50417
_cell_angle_gamma                 92.911834
_cell_volume                      856.578267333

loop_
_atom_site_label
_atom_site_type_symbol
_atom_type_description
_atom_site_fract_x
_atom_site_fract_y
_atom_site_fract_z
_atom_type_partial_charge
C1    C     C_R   0.456544 0.205812 0.495674 0.923120
C2    C     C_R   0.672122 0.396394 0.144424 -0.235443
C3    C     C_R   0.551194 0.416084 0.870948 0.028174
C4    C     C_R   0.448807 0.583916 0.129052 0.028171
C5    C     C_R   0.555943 0.445398 0.977362 0.122934
C6    C     C_R   0.444057 0.554601 0.022638 0.122935
C7    C     C_2   0.446950 0.045520 0.473936 -0.270526
C8    C     C_2   0.553051 0.954481 0.526062 -0.270557
C9    C     C_2   0.357922 0.997488 0.377135 0.431354
C10   C     C_2   0.642108 0.002519 0.622852 0.431344
C11   C     C_R   0.543455 0.794188 0.504327 0.923121
C12   C     C_R   0.464588 0.498725 0.699590 0.895900
C13   C     C_R   0.535412 0.501275 0.300409 0.895910
C14   C     C_R   0.557743 0.498765 0.189353 -0.042421
C15   C     C_R   0.442256 0.501233 0.810647 -0.042422
C16   C     C_R   0.328317 0.630199 0.961067 -0.222276
C17   C     C_R   0.671682 0.369799 0.038933 -0.222276
C18   C     C_R   0.327876 0.603603 0.855576 -0.235451
H1    H     H_    0.755955 0.331152 0.191739 0.178726
H2    H     H_    0.786363 0.333705 0.831199 0.202092
H3    H     H_    0.394687 0.895084 0.334848 0.081689
H4    H     H_    0.605356 0.104925 0.665141 0.081704
H5    H     H_    0.244043 0.668844 0.808261 0.178728
H6    H     H_    0.240026 0.712734 0.992806 0.153121
H7    H     H_    0.759973 0.287263 0.007195 0.153121
H8    H     H_    0.998691 0.615929 0.421551 0.199144
H9    H     H_    0.001309 0.384071 0.578449 0.199143
H10   H     H_    0.373515 0.806429 0.141432 0.182426
H11   H     H_    0.213640 0.666301 0.168801 0.202093
H12   H     H_    0.626492 0.193573 0.858566 0.182421
N1    N     N_2   0.054030 0.541640 0.471970 -0.157102
N2    N     N_2   0.945970 0.458360 0.528030 -0.157104
N3    N     N_3   0.343926 0.698503 0.177514 -0.463669
N4    N     N_3   0.656078 0.301500 0.822485 -0.463672
O1    O     O_R   0.609680 0.261530 0.506880 -0.638199
O2    O     O_2   0.755026 0.925773 0.657582 -0.552652
O3    O     O_R   0.390320 0.738470 0.493120 -0.638192
O4    O     O_R   0.323330 0.288220 0.488910 -0.572886
O5    O     O_R   0.676670 0.711780 0.511090 -0.572882
O6    O     O_R   0.619510 0.488830 0.661140 -0.588213
O7    O     O_R   0.380490 0.511170 0.338860 -0.588208
O8    O     O_R   0.333160 0.515520 0.643180 -0.644169
O9    O     O_R   0.666840 0.484480 0.356820 -0.644170
O10   O     O_2   0.245022 0.074240 0.342392 -0.552659
Zn1   Zn    Zn3+2 0.691200 0.482180 0.511990 0.988887
Zn2   Zn    Zn3+2 0.308800 0.517820 0.488010 0.988890

loop_
_geom_bond_atom_site_label_1
_geom_bond_atom_site_label_2
_ccdc_geom_bond_type
C12   O6    A    
C15   C18   A    
C10   O2    D    
O7    Zn2   S    
N2    Zn1   S    
N1    N2    D    
C12   C15   S    
O5    Zn1   S    
C17   H7    S    
C13   O7    A    
O3    Zn2   S    
H2    N4    S    
C7    C8    D    
C16   H6    S    
H9    N2    S    
C13   C14   S    
C10   H4    S    
C2    C17   A    
C11   O5    A    
O9    Zn1   S    
C9    H3    S    
C5    C6    A    
C1    O4    A    
C8    C11   S    
C4    C6    A    
H10   N3    S    
C7    C9    S    
C4    C14   A    
O6    Zn1   S    
C2    C14   A    
O4    Zn2   S    
C5    C17   A    
H12   N4    S    
C6    C16   A    
C18   H5    S    
O1    Zn1   S    
H11   N3    S    
C13   O9    A    
C3    C15   A    
C1    O1    A    
C16   C18   A    
O8    Zn2   S    
C11   O3    A    
C4    N3    S    
C9    O10   D    
C12   O8    A    
C3    N4    S    
C2    H1    S    
C1    C7    S    
H8    N1    S    
C8    C10   S    
C3    C5    A    
N1    Zn2   S    
