data_mof_unit_16039.cif
_audit_creation_date              2012-12-10T19:14:28-0500
_audit_creation_method            fapswitch 2.2
_symmetry_space_group_name_H-M    P1
_symmetry_Int_Tables_number       1
_space_group_crystal_system       triclinic
_cell_length_a                    10.639166
_cell_length_b                    9.855437
_cell_length_c                    18.807815
_cell_angle_alpha                 89.895917
_cell_angle_beta                  88.928145
_cell_angle_gamma                 90.340965
_cell_volume                      1971.68403195

loop_
_atom_site_label
_atom_site_type_symbol
_atom_type_description
_atom_site_fract_x
_atom_site_fract_y
_atom_site_fract_z
_atom_type_partial_charge
C1    C     C_R   0.258324 0.499486 0.500124 0.834210
C2    C     C_R   0.357424 0.507614 0.072845 0.314033
C3    C     C_R   0.334681 0.580748 0.806732 -0.027617
C4    C     C_R   0.497761 0.409469 0.827929 -0.031163
C5    C     C_R   0.372717 0.585022 0.735562 -0.232995
C6    C     C_R   0.528376 0.411552 0.755552 -0.183201
C7    C     C_R   0.468193 0.500554 0.710145 0.024614
C8    C     C_R   0.398820 0.493756 0.853790 0.012280
C9    C     C_3   0.077521 0.579012 0.433972 -0.465334
C10   C     C_3   0.071381 0.565106 0.568969 -0.436811
C11   C     C_3   0.932852 0.588988 0.435468 -0.188496
C12   C     C_3   0.926307 0.562839 0.569677 -0.181946
C13   C     C_3   0.071578 0.351082 0.495437 -0.401758
C14   C     C_3   0.122152 0.498749 0.499685 0.141537
C15   C     C_3   0.879123 0.499588 0.498424 -0.025704
C16   C     C_R   0.490983 0.500098 0.365362 0.933442
C17   C     C_3   0.929631 0.352061 0.489951 -0.338012
C18   C     C_3   0.375811 0.079329 0.521467 -0.222873
C19   C     C_3   0.379286 0.918988 0.526870 -0.244532
C20   C     C_3   0.524497 0.082288 0.425138 -0.290721
C21   C     C_3   0.514558 0.920462 0.424260 -0.166790
C22   C     C_3   0.597519 0.081704 0.546602 -0.109896
C23   C     C_3   0.603769 0.920704 0.542232 -0.110291
C24   C     C_R   0.742083 0.500056 0.499196 0.921686
C25   C     C_R   0.496779 0.500006 0.634645 0.895107
C26   C     C_R   0.434632 0.624786 0.255975 -0.182209
C27   C     C_R   0.423496 0.379428 0.256059 -0.136956
C28   C     C_R   0.396258 0.627176 0.185967 -0.116791
C29   C     C_R   0.384794 0.381523 0.185888 -0.128555
C30   C     C_R   0.374572 0.505422 0.149746 0.069367
C31   C     C_R   0.453915 0.500948 0.290749 -0.072273
C32   C     C_R   0.371807 0.500961 0.929717 0.442091
H1    H     H_    0.447674 0.720160 0.282879 0.189997
H2    H     H_    0.428250 0.282701 0.282949 0.183194
H3    H     H_    0.904282 0.310671 0.437392 0.260957
H4    H     H_    0.888237 0.281886 0.530450 0.211211
H5    H     H_    0.302337 0.108721 0.483087 0.130144
H6    H     H_    0.299031 0.876490 0.496934 0.138623
H7    H     H_    0.342520 0.124276 0.572274 0.212469
H8    H     H_    0.362040 0.886638 0.582695 0.212591
H9    H     H_    0.445896 0.117621 0.391420 0.137122
H10   H     H_    0.427387 0.893961 0.395164 0.112431
H11   H     H_    0.689689 0.122062 0.528679 0.069331
H12   H     H_    0.694037 0.896571 0.515473 0.078929
H13   H     H_    0.386182 0.724415 0.159819 0.167840
H14   H     H_    0.366921 0.286011 0.159445 0.166733
H15   H     H_    0.324197 0.650776 0.698876 0.142676
H16   H     H_    0.603182 0.347889 0.734872 0.139668
H17   H     H_    0.112504 0.527357 0.384831 0.178021
H18   H     H_    0.109605 0.511344 0.615964 0.184202
H19   H     H_    0.118174 0.683427 0.433293 0.185345
H20   H     H_    0.104889 0.672184 0.572185 0.159521
H21   H     H_    0.909038 0.696535 0.447328 0.168244
H22   H     H_    0.894647 0.670468 0.571697 0.112993
H23   H     H_    0.112352 0.298039 0.448158 0.176417
H24   H     H_    0.098372 0.292823 0.543606 0.210396
N1    N     N_R   0.389483 0.620600 0.035313 -0.147643
N2    N     N_R   0.328138 0.392310 0.037263 -0.142738
N3    N     N_R   0.396760 0.617341 0.964892 -0.116120
N4    N     N_R   0.334749 0.389091 0.966661 -0.117990
N5    N     N_3   0.499750 0.138610 0.498490 -0.101426
N6    N     N_3   0.499750 0.861390 0.498490 -0.083613
O1    O     O_R   0.314910 0.616040 0.499990 -0.647844
O2    O     O_R   0.314910 0.383960 0.499990 -0.644515
O3    O     O_R   0.500100 0.616080 0.398110 -0.618916
O4    O     O_R   0.500100 0.383920 0.398110 -0.600424
O5    O     O_R   0.685320 0.616040 0.499960 -0.605890
O6    O     O_R   0.685320 0.383960 0.499960 -0.624278
O7    O     O_R   0.500130 0.616000 0.601840 -0.594737
O8    O     O_R   0.500130 0.384000 0.601840 -0.619681
Zn1   Zn    Zn3+2 0.500150 0.654960 0.499970 0.958176
Zn2   Zn    Zn3+2 0.500150 0.345040 0.499970 0.950427
C33   C     C_2   0.590923 0.136526 0.621909 0.524427
H25   H     H_    0.672520 0.188248 0.643016 0.018891
O9    O     O_2   0.498170 0.121686 0.660385 -0.552478
C34   C     C_2   0.620407 0.851725 0.613495 0.494263
H26   H     H_    0.706777 0.797491 0.623524 0.069726
O10   O     O_2   0.540107 0.856237 0.660644 -0.531305
C35   C     C_2   0.643261 0.140446 0.386773 1.073257
O11   O     O_2   0.630518 0.204362 0.331850 -0.561991
O12   O     O_R   0.766759 0.113018 0.406310 -0.795084
H27   H     H_    0.777620 0.032175 0.438128 0.289384
C36   C     C_2   0.617280 0.859124 0.377222 0.910712
O13   O     O_2   0.702006 0.792481 0.401765 -0.626696
O14   O     O_R   0.617182 0.886086 0.304183 -0.812450
H28   H     H_    0.690154 0.842075 0.277762 0.375948
C37   C     C_2   0.226264 0.667121 0.828308 0.434087
H29   H     H_    0.195577 0.747212 0.793027 0.076358
O15   O     O_2   0.167231 0.647833 0.883716 -0.537695
C38   C     C_2   0.576173 0.321773 0.873620 0.447349
H30   H     H_    0.628366 0.238607 0.849741 0.080554
O16   O     O_2   0.588753 0.343975 0.936906 -0.537033
C39   C     C_2   0.880854 0.560154 0.362151 0.966637
O17   O     O_2   0.913485 0.632783 0.312245 -0.600271
O18   O     O_R   0.795374 0.454471 0.350962 -0.785187
H31   H     H_    0.767842 0.448804 0.299733 0.366471
C40   C     C_2   0.873535 0.493568 0.636094 0.887304
O19   O     O_2   0.799199 0.554120 0.674720 -0.654287
O20   O     O_R   0.911104 0.362408 0.654083 -0.824764
H32   H     H_    0.868999 0.328301 0.699552 0.338588

loop_
_geom_bond_atom_site_label_1
_geom_bond_atom_site_label_2
_ccdc_geom_bond_type
C37   H29   S    
C39   O17   D    
C27   C29   A    
C33   H25   S    
O18   H31   S    
C9    H19   S    
C23   C34   S    
C4    C8    A    
C10   H20   S    
C40   O19   D    
C2    N1    A    
O14   H28   S    
C16   C31   S    
C5    H15   S    
C6    H16   S    
C36   O13   D    
C18   H5    S    
C34   O10   D    
N1    N3    A    
C19   N6    S    
N2    N4    A    
C18   C19   S    
C20   N5    S    
O7    Zn1   S    
C24   O5    A    
C11   C15   S    
C23   N6    S    
O4    Zn2   S    
C21   C36   S    
C17   H4    S    
C11   H21   S    
C13   H24   S    
C11   C39   S    
C26   C31   A    
C39   O18   S    
C13   C14   S    
C33   O9    D    
C1    O1    A    
C40   O20   S    
C20   H9    S    
C4    C38   S    
C27   H2    S    
C28   H13   S    
C27   C31   A    
C8    C32   S    
C9    H17   S    
C34   H26   S    
C4    C6    A    
C3    C8    A    
C10   C14   S    
C5    C7    A    
C9    C14   S    
O3    Zn1   S    
C3    C37   S    
O12   H27   S    
C23   H12   S    
C21   H10   S    
C18   H7    S    
C29   C30   A    
C19   H6    S    
C26   H1    S    
C38   O16   D    
O20   H32   S    
C12   C15   S    
O6    Zn2   S    
C12   C40   S    
C9    C11   S    
C21   N6    S    
C10   C12   S    
N5    Zn2   S    
C15   C24   S    
C36   O14   S    
O1    Zn1   S    
C37   O15   D    
C16   O4    A    
C32   N4    A    
C10   H18   S    
C1    O2    A    
C35   O12   S    
C15   C17   S    
C20   C35   S    
C3    C5    A    
C2    N2    A    
C18   N5    S    
C6    C7    A    
C1    C14   S    
C26   C28   A    
C7    C25   S    
C13   C17   S    
C29   H14   S    
C2    C30   S    
C28   C30   A    
C22   N5    S    
C38   H30   S    
C32   N3    A    
C16   O3    A    
N6    Zn1   S    
O5    Zn1   S    
O2    Zn2   S    
C19   H8    S    
C24   O6    A    
C35   O11   D    
C25   O7    A    
C20   C21   S    
C22   C23   S    
O8    Zn2   S    
C25   O8    A    
C17   H3    S    
C22   C33   S    
C22   H11   S    
C12   H22   S    
C13   H23   S    
