data_mof_unit_40512.cif
_audit_creation_date              2012-12-10T17:09:51-0500
_audit_creation_method            fapswitch 2.2
_symmetry_space_group_name_H-M    P1
_symmetry_Int_Tables_number       1
_space_group_crystal_system       triclinic
_cell_length_a                    10.830505
_cell_length_b                    13.018149
_cell_length_c                    11.769554
_cell_angle_alpha                 99.585087
_cell_angle_beta                  91.977177
_cell_angle_gamma                 94.345267
_cell_volume                      1629.6818241

loop_
_atom_site_label
_atom_site_type_symbol
_atom_type_description
_atom_site_fract_x
_atom_site_fract_y
_atom_site_fract_z
_atom_type_partial_charge
C1    C     C_R   0.501727 0.299633 0.478805 0.885737
C2    C     C_R   0.076841 0.584827 0.581703 -0.008809
C3    C     C_R   0.129189 0.504233 0.506935 -0.096985
C4    C     C_R   0.053819 0.429740 0.429230 0.432927
C5    C     C_R   0.925795 0.434993 0.426311 -0.265978
C6    C     C_R   0.872749 0.515774 0.495660 -0.079442
C7    C     C_R   0.494493 0.814203 0.537273 -0.084514
C8    C     C_R   0.501249 0.186182 0.467312 -0.171237
C9    C     C_R   0.436128 0.015387 0.355897 0.288425
C10   C     C_R   0.447607 0.123611 0.366652 -0.224086
C11   C     C_R   0.547721 0.139718 0.558083 0.244000
C12   C     C_R   0.262749 0.500666 0.502106 0.851325
C13   C     C_R   0.524740 0.031601 0.552707 0.019832
C14   C     C_R   0.472780 0.968468 0.449731 0.052283
C15   C     C_R   0.460669 0.860001 0.442723 -0.220172
C16   C     C_R   0.534539 0.877639 0.643484 0.446289
C17   C     C_R   0.551336 0.985612 0.649198 -0.177303
C18   C     C_R   0.382711 0.399502 0.026785 -0.323402
C19   C     C_R   0.393076 0.408229 0.147487 0.583106
C20   C     C_R   0.553705 0.545587 0.155656 0.403324
C21   C     C_R   0.545423 0.540091 0.032745 -0.077325
C22   C     C_R   0.457957 0.464853 0.968255 -0.132860
C23   C     C_R   0.494628 0.700164 0.522057 0.854746
C24   C     C_R   0.447609 0.456376 0.846257 0.460538
C25   C     C_R   0.606881 0.592333 0.850104 -0.043509
C26   C     C_R   0.620192 0.606004 0.971322 0.368227
C27   C     C_R   0.737845 0.506814 0.499022 0.866804
C28   C     C_R   0.149134 0.658213 0.665287 -0.209373
C29   C     C_R   0.095362 0.738703 0.733777 -0.179001
C30   C     C_R   0.973074 0.756582 0.711104 0.298094
C31   C     C_R   0.903044 0.690341 0.621929 0.192516
C32   C     C_R   0.948561 0.595911 0.568276 -0.000267
Cu1   Cu    Cu3+1 0.509250 0.507730 0.615930 1.047352
Cu2   Cu    Cu3+1 0.490750 0.492270 0.384070 1.069417
H1    H     H_    0.584029 0.032884 0.730506 0.192248
H2    H     H_    0.413212 0.158926 0.295982 0.221550
H3    H     H_    0.663357 0.641226 0.802801 0.178217
H4    H     H_    0.315424 0.340742 0.980194 0.200248
H5    H     H_    0.247376 0.656226 0.680150 0.189675
H6    H     H_    0.151756 0.791956 0.799242 0.198538
H7    H     H_    0.866710 0.374420 0.371216 0.152796
H8    H     H_    0.426334 0.810068 0.363397 0.217646
N1    N     N_R   0.523180 0.519350 0.790130 -0.227621
N2    N     N_R   0.476820 0.480650 0.209890 -0.242548
O1    O     O_R   0.506570 0.354460 0.582000 -0.515651
O2    O     O_R   0.490940 0.341410 0.386200 -0.555443
O3    O     O_R   0.327470 0.506530 0.597920 -0.586597
O4    O     O_R   0.311840 0.493480 0.402120 -0.512926
O5    O     O_R   0.509060 0.658590 0.613800 -0.540912
O6    O     O_R   0.493430 0.645540 0.418000 -0.567557
O7    O     O_R   0.688160 0.506520 0.597880 -0.574352
O8    O     O_R   0.672530 0.493470 0.402080 -0.555903
O9    O     O_3   0.107222 0.349947 0.360423 -0.677016
H9    H     H_    0.041728 0.304765 0.310833 0.338180
Br1   Br    Br    0.655266 0.220359 0.682491 -0.436889
Br2   Br    Br    0.324148 0.356657 0.759065 -0.431008
O10   O     O_3   0.704337 0.684089 0.028376 -0.645937
H10   H     H_    0.747006 0.721609 0.972174 0.348988
O11   O     O_3   0.320278 0.343853 0.204648 -0.653793
H11   H     H_    0.264598 0.295300 0.147902 0.322495
Br3   Br    Br    0.676685 0.641727 0.247850 -0.305429
Br4   Br    Br    0.909213 0.878658 0.795755 -0.409000
Br5   Br    Br    0.783436 0.753816 0.540633 -0.407227
O12   O     O_3   0.561688 0.833035 0.739236 -0.692926
H12   H     H_    0.589341 0.888504 0.805523 0.349661
Br6   Br    Br    0.364479 0.937151 0.212627 -0.442190

loop_
_geom_bond_atom_site_label_1
_geom_bond_atom_site_label_2
_ccdc_geom_bond_type
C6    C32   A    
C9    C14   A    
C29   C30   A    
Cu2   O2    S    
C13   C14   A    
C4    O9    S    
C24   Br2   S    
C1    C8    S    
Cu1   O1    S    
C9    C10   A    
C16   O12   S    
Cu2   O4    S    
Cu2   O8    S    
C31   C32   A    
C14   C15   A    
C13   C17   A    
C12   O4    A    
C25   H3    S    
O12   H12   S    
C25   N1    A    
C7    C15   A    
C2    C3    A    
C18   H4    S    
Cu2   N2    S    
O11   H11   S    
C18   C22   A    
O9    H9    S    
C19   N2    A    
C11   C13   A    
C1    O1    A    
O10   H10   S    
C30   C31   A    
C8    C11   A    
C7    C23   S    
C29   H6    S    
C8    C10   A    
C28   C29   A    
C20   N2    A    
C21   C26   A    
C27   O7    A    
Cu1   Cu2   S    
C12   O3    A    
C30   Br4   S    
C5    C6    A    
Cu1   O3    S    
C26   O10   S    
C22   C24   A    
C1    O2    A    
C23   O5    A    
Cu2   O6    S    
Cu1   O5    S    
C3    C4    A    
Cu1   N1    S    
C16   C17   A    
C31   Br5   S    
C11   Br1   S    
C20   C21   A    
C27   O8    A    
C2    C32   A    
C18   C19   A    
C20   Br3   S    
C24   N1    A    
C5    H7    S    
C9    Br6   S    
C7    C16   A    
C23   O6    A    
C2    C28   A    
C3    C12   S    
C17   H1    S    
C28   H5    S    
C19   O11   S    
C25   C26   A    
C21   C22   A    
Cu1   O7    S    
C6    C27   S    
C15   H8    S    
C4    C5    A    
C10   H2    S    
