data_mof_unit_26313.cif
_audit_creation_date              2013-03-05T16:02:23-0500
_audit_creation_method            fapswitch 2.2
_symmetry_space_group_name_H-M    P1
_symmetry_Int_Tables_number       1
_space_group_crystal_system       triclinic
_cell_length_a                    15.007494
_cell_length_b                    14.14366
_cell_length_c                    10.727091
_cell_angle_alpha                 90.116958
_cell_angle_beta                  88.021219
_cell_angle_gamma                 89.669192
_cell_volume                      2275.54048383

loop_
_atom_site_label
_atom_site_type_symbol
_atom_site_description
_atom_site_fract_x
_atom_site_fract_y
_atom_site_fract_z
_atom_type_partial_charge
O1    O     O_R   0.367860 0.580280 0.500020 -0.565643
O2    O     O_R   0.367860 0.419720 0.500020 -0.584648
C1    C     C_R   0.326354 0.500457 0.503880 1.001913
O3    O     O_R   0.500000 0.580270 0.314790 -0.596636
O4    O     O_R   0.500000 0.419730 0.314790 -0.598833
C2    C     C_R   0.502563 0.499573 0.257377 0.891709
Zn1   Zn    Zn3+2 0.500020 0.607200 0.499990 1.026853
Zn2   Zn    Zn3+2 0.500020 0.392800 0.499990 1.012983
O5    O     O_R   0.632160 0.580270 0.499960 -0.615306
O6    O     O_R   0.632160 0.419730 0.499960 -0.629387
O7    O     O_R   0.500030 0.580270 0.685200 -0.613087
O8    O     O_R   0.500030 0.419730 0.685200 -0.614054
C3    C     C_R   0.672486 0.499693 0.498070 0.858887
C4    C     C_R   0.503464 0.499989 0.741972 0.881817
C5    C     C_3   0.484563 0.600042 0.070364 -0.000163
C6    C     C_3   0.434176 0.427540 0.070673 0.012629
H1    H     H_    0.422607 0.628745 0.115784 0.214825
H2    H     H_    0.367503 0.458526 0.090183 0.226899
C7    C     C_3   0.470367 0.595165 0.930933 -0.406482
C8    C     C_3   0.446802 0.418694 0.929700 -0.402330
H3    H     H_    0.397977 0.601765 0.914203 0.216775
H4    H     H_    0.381156 0.417774 0.888081 0.217232
H5    H     H_    0.503772 0.656030 0.884094 0.235635
H6    H     H_    0.479364 0.350019 0.904617 0.233979
H7    H     H_    0.653081 0.507948 0.109316 0.182689
H8    H     H_    0.610931 0.391517 0.088424 0.219491
H9    H     H_    0.645233 0.542499 0.897680 0.202788
H10   H     H_    0.631728 0.417575 0.876864 0.179757
C9    C     C_3   0.598781 0.467273 0.066619 -0.373425
C10   C     C_3   0.505502 0.498178 0.120457 -0.005747
C11   C     C_3   0.505869 0.499515 0.878169 0.057597
C12   C     C_3   0.601921 0.481422 0.923012 -0.400739
C13   C     C_R   0.814380 0.521670 0.387989 -0.188039
C14   C     C_R   0.766873 0.498716 0.497183 -0.031637
C15   C     C_R   0.808892 0.474956 0.606066 -0.228846
C16   C     C_R   0.901040 0.476310 0.607520 0.133448
C17   C     C_R   0.950803 0.499150 0.497512 0.101722
C18   C     C_R   0.906856 0.521006 0.387131 0.071602
C19   C     C_R   0.943772 0.456266 0.717460 -0.191263
C20   C     C_R   0.035699 0.461127 0.720150 -0.096031
C21   C     C_R   0.086724 0.484910 0.612104 0.087767
C22   C     C_R   0.043982 0.501213 0.498612 -0.048528
C23   C     C_R   0.093829 0.521263 0.387285 -0.106779
C24   C     C_R   0.048233 0.547838 0.278252 0.346948
C25   C     C_R   0.955400 0.545121 0.279104 -0.244364
C26   C     C_R   0.179120 0.494239 0.615534 0.086434
C27   C     C_R   0.229435 0.502342 0.503259 -0.230139
C28   C     C_R   0.187225 0.512551 0.389030 0.289636
H11   H     H_    0.779182 0.539716 0.304465 0.141404
H12   H     H_    0.769620 0.457554 0.689733 0.129964
H13   H     H_    0.906029 0.437920 0.801899 0.166769
H14   H     H_    0.065612 0.444203 0.807478 0.211139
H15   H     H_    0.920886 0.565696 0.196113 0.191206
C29   C     C_R   0.563781 0.797248 0.430470 0.018432
C30   C     C_R   0.562768 0.201932 0.428540 0.012333
N1    N     N_R   0.500070 0.750030 0.500050 -0.137677
N2    N     N_R   0.500070 0.249970 0.500050 -0.134965
C31   C     C_R   0.437733 0.800323 0.570058 0.245869
C32   C     C_R   0.437318 0.200770 0.569661 0.250711
C33   C     C_R   0.435169 0.900229 0.565687 0.015778
C34   C     C_R   0.434772 0.100878 0.565174 0.017364
C35   C     C_R   0.500707 0.949611 0.494994 0.035548
C36   C     C_R   0.500111 0.050539 0.493995 0.037170
C37   C     C_R   0.566809 0.898135 0.427227 -0.143018
C38   C     C_R   0.564868 0.101060 0.423782 -0.141407
C39   C     C_R   0.368420 0.952141 0.630742 -0.143543
C40   C     C_R   0.368340 0.049876 0.630725 -0.145007
C41   C     C_R   0.630713 0.049580 0.353394 0.231086
C42   C     C_R   0.632498 0.948750 0.356494 0.232697
H16   H     H_    0.612508 0.755516 0.378159 0.198550
H17   H     H_    0.611845 0.242989 0.376697 0.186417
H18   H     H_    0.314293 0.919027 0.682517 0.190377
H19   H     H_    0.314281 0.083685 0.682770 0.189610
I1    I     I_    0.586238 0.705120 0.104477 -0.278637
I2    I     I_    0.426693 0.283345 0.141401 -0.196387
I3    I     I_    0.238710 0.508743 0.791167 -0.250805
N3    N     N_R   0.239102 0.506560 0.275142 0.202093
O9    O     O_R   0.299349 0.569802 0.249438 -0.415234
O10   O     O_R   0.221777 0.441456 0.193705 -0.365231
N4    N     N_R   0.093446 0.587287 0.170581 0.255948
O11   O     O_R   0.140832 0.663318 0.182522 -0.295400
O12   O     O_R   0.071685 0.560746 0.059490 -0.347079
I4    I     I_    0.348101 0.730595 0.696149 -0.261873
I5    I     I_    0.346011 0.272108 0.694399 -0.295821
N5    N     N_R   0.697539 0.099097 0.280693 0.225518
O13   O     O_R   0.781720 0.083372 0.298134 -0.295421
O14   O     O_R   0.674442 0.154534 0.190525 -0.365471
N6    N     N_R   0.700728 0.898528 0.285935 0.234417
O15   O     O_R   0.713721 0.915456 0.167537 -0.275541
O16   O     O_R   0.755470 0.842612 0.342176 -0.351789

loop_
_geom_bond_atom_site_label_1
_geom_bond_atom_site_label_2
_geom_bond_distance
_ccdc_geom_bond_type
C19   H13   1.084360 S    
C36   C38   1.407842 A    
C6    I2    2.179607 S    
C21   C22   1.414271 A    
C15   C16   1.383778 A    
C4    C11   1.462723 S    
C7    C11   1.549886 S    
C26   I3    2.123281 S    
N5    O13   1.301452 A    
C5    C7    1.519535 S    
C35   C36   1.427525 A    
C16   C17   1.413557 A    
C7    H3    1.110645 S    
C9    C12   1.552969 S    
O4    C2    1.287530 A    
O7    C4    1.291172 A    
N2    C32   1.374717 A    
C31   C33   1.414250 A    
C33   C35   1.410271 A    
C14   C15   1.387386 A    
C17   C22   1.399301 A    
C34   C36   1.410485 A    
O5    C3    1.287081 A    
C18   C25   1.391443 A    
C35   C37   1.407958 A    
C39   H18   1.077951 S    
C11   C12   1.555292 S    
C41   C42   1.426679 A    
C21   C26   1.395397 A    
C40   H19   1.077806 S    
C9    C10   1.555753 S    
C23   C28   1.407111 A    
Zn2   O8    2.022187 S    
N5    O14   1.301380 A    
C39   C40   1.382325 A    
C33   C39   1.403818 A    
C41   N5    1.435546 S    
Zn1   N1    2.020142 S    
O3    Zn1   2.022089 S    
C30   C38   1.427626 A    
Zn1   O7    2.023714 S    
N3    O10   1.301456 A    
H7    C9    1.111267 S    
C29   N1    1.370198 A    
C32   C34   1.414333 A    
C8    H6    1.113109 S    
H10   C12   1.113025 S    
C32   I5    2.130281 S    
N4    O12   1.301587 A    
C19   C20   1.382989 A    
N3    O9    1.298747 A    
O1    C1    1.292616 A    
C28   N3    1.427927 S    
C7    H5    1.110948 S    
C23   C24   1.425328 A    
C17   C18   1.409130 A    
Zn2   N2    2.020138 S    
C34   C40   1.403823 A    
C27   C28   1.406010 A    
C29   H16   1.078593 S    
C24   N4    1.434796 S    
C6    C8    1.522353 S    
C38   C41   1.419394 A    
C15   H12   1.086039 S    
C13   C14   1.390066 A    
C6    H2    1.103248 S    
C37   C42   1.420828 A    
C42   N6    1.435909 S    
O3    C2    1.295546 A    
C20   C21   1.409307 A    
C2    C10   1.467984 S    
C8    H4    1.095711 S    
C30   N2    1.369700 A    
C22   C23   1.417163 A    
C24   C25   1.393651 A    
C5    C10   1.572499 S    
C5    H1    1.109173 S    
C26   C27   1.404501 A    
H9    C12   1.112585 S    
O1    Zn1   2.021754 S    
C16   C19   1.390675 A    
O2    Zn2   2.017436 S    
N6    O16   1.301158 A    
N4    O11   1.301191 A    
O6    C3    1.285649 A    
O4    Zn2   2.023615 S    
C13   C18   1.387529 A    
O2    C1    1.297500 A    
O8    C4    1.289235 A    
C3    C14   1.416209 S    
C20   H14   1.079395 S    
C31   I4    2.122899 S    
C29   C37   1.428345 A    
C1    C27   1.454846 S    
N1    C31   1.373598 A    
C25   H15   1.084754 S    
Zn1   O5    2.017164 S    
C5    I1    2.175666 S    
N6    O15   1.301195 A    
H8    C9    1.112533 S    
Zn2   O6    2.021484 S    
C13   H11   1.085807 S    
C6    C10   1.574429 S    
C30   H17   1.080244 S    
C8    C11   1.542234 S    
