data_mof_unit_35812.cif
_audit_creation_date              2013-03-05T16:09:45-0500
_audit_creation_method            fapswitch 2.2
_symmetry_space_group_name_H-M    P1
_symmetry_Int_Tables_number       1
_space_group_crystal_system       triclinic
_cell_length_a                    12.868438
_cell_length_b                    10.66551
_cell_length_c                    9.915243
_cell_angle_alpha                 88.664881
_cell_angle_beta                  96.16671
_cell_angle_gamma                 90.68995
_cell_volume                      1352.54766785

loop_
_atom_site_label
_atom_site_type_symbol
_atom_site_description
_atom_site_fract_x
_atom_site_fract_y
_atom_site_fract_z
_atom_type_partial_charge
O1    O     O_R   0.499990 0.316750 0.614620 -0.575974
O2    O     O_R   0.500010 0.683250 0.385380 -0.575974
O3    O     O_R   0.499990 0.316780 0.385290 -0.603850
O4    O     O_R   0.500010 0.683220 0.614710 -0.603849
C1    C     C_R   0.502801 0.260413 0.501652 0.955329
C2    C     C_R   0.497199 0.739587 0.498347 0.955328
O5    O     O_R   0.346360 0.499970 0.595710 -0.572407
O6    O     O_R   0.653640 0.500030 0.404290 -0.572406
O7    O     O_R   0.346360 0.499990 0.366380 -0.646011
O8    O     O_R   0.653640 0.500010 0.633620 -0.646011
C3    C     C_R   0.298509 0.499370 0.474119 0.933747
C4    C     C_R   0.701491 0.500630 0.525881 0.933748
Zn1   Zn    Zn3+2 0.500000 0.499980 0.653120 1.052051
Zn2   Zn    Zn3+2 0.500000 0.500020 0.346880 1.052051
C5    C     C_R   0.813318 0.503372 0.541129 -0.057250
C6    C     C_R   0.186682 0.496627 0.458871 -0.057251
C7    C     C_R   0.023695 0.445083 0.329173 -0.127459
C8    C     C_R   0.976305 0.554916 0.670827 -0.127459
C9    C     C_R   0.131474 0.454537 0.338656 -0.185388
C10   C     C_R   0.868526 0.545463 0.661344 -0.185389
C11   C     C_R   0.135085 0.532262 0.568111 -0.115155
C12   C     C_R   0.864915 0.467738 0.431888 -0.115155
C13   C     C_R   0.028030 0.522140 0.560139 0.133765
C14   C     C_R   0.971970 0.477859 0.439860 0.133765
H1    H     H_    0.821800 0.432551 0.340307 0.213514
H2    H     H_    0.178200 0.567449 0.659692 0.213515
H3    H     H_    0.828429 0.573318 0.746361 0.180704
H4    H     H_    0.171571 0.426681 0.253638 0.180704
H5    H     H_    0.981107 0.411505 0.236504 0.180602
H6    H     H_    0.018893 0.588494 0.763495 0.180602
C15   C     C_R   0.575272 0.064564 0.430156 0.324534
C16   C     C_R   0.424728 0.935434 0.569843 0.324534
C17   C     C_R   0.567532 0.935736 0.425335 -0.250685
C18   C     C_R   0.432468 0.064262 0.574665 -0.250684
H7    H     H_    0.622516 0.884685 0.372893 0.238943
H8    H     H_    0.377485 0.115314 0.627108 0.238942
C19   C     C_R   0.493888 0.872172 0.495202 -0.203876
C20   C     C_R   0.506111 0.127827 0.504798 -0.203877
C21   C     C_R   0.582846 0.549539 0.080071 0.385419
C22   C     C_R   0.417154 0.450461 0.919929 0.385421
C23   C     C_R   0.582238 0.548465 0.936971 -0.178255
C24   C     C_R   0.417762 0.451535 0.063029 -0.178256
H9    H     H_    0.647310 0.588569 0.889640 0.186004
H10   H     H_    0.352690 0.411431 0.110360 0.186003
N1    N     N_R   0.499970 0.499970 0.857200 -0.158404
N2    N     N_R   0.500030 0.500030 0.142800 -0.158404
N3    N     N_R   0.655542 0.128713 0.364253 0.220229
O9    O     O_R   0.709295 0.219164 0.424816 -0.421055
O10   O     O_R   0.685368 0.085260 0.253155 -0.335852
N4    N     N_R   0.344460 0.871285 0.635750 0.220231
O11   O     O_R   0.290705 0.780836 0.575186 -0.421054
O12   O     O_R   0.314636 0.914735 0.746850 -0.335851
N5    N     N_R   0.670799 0.605880 0.156754 0.218809
O13   O     O_R   0.764556 0.582464 0.126856 -0.422234
O14   O     O_R   0.656995 0.703439 0.228327 -0.369796
N6    N     N_R   0.329201 0.394120 0.843246 0.218810
O15   O     O_R   0.235444 0.417537 0.873141 -0.422234
O16   O     O_R   0.343006 0.296558 0.771676 -0.369796

loop_
_geom_bond_atom_site_label_1
_geom_bond_atom_site_label_2
_geom_bond_distance
_ccdc_geom_bond_type
N4    O12   1.301702 A    
C13   C14   1.413845 A    
C15   C17   1.377993 A    
C6    C11   1.392216 A    
C8    H6    1.084102 S    
C10   H3    1.083472 S    
N3    O10   1.301705 A    
C7    H5    1.084102 S    
C3    C6    1.430735 S    
C8    C10   1.382633 A    
N3    O9    1.300545 A    
C15   C20   1.405107 A    
O6    C4    1.293624 A    
O7    Zn2   2.007099 S    
N5    O14   1.297616 A    
N4    O11   1.300540 A    
C2    C19   1.414757 S    
C21   C23   1.418361 A    
C22   N6    1.428367 S    
C15   N3    1.438488 S    
N5    O13   1.301328 A    
Zn1   N1    2.023542 S    
C9    H4    1.083472 S    
C23   H9    1.082057 S    
C16   N4    1.438488 S    
C22   N1    1.383820 A    
O3    Zn2   1.982382 S    
O8    C4    1.288907 A    
C21   N2    1.383820 A    
O1    C1    1.287468 A    
O7    C3    1.288906 A    
C22   C24   1.418363 A    
C17   H7    1.081202 S    
C11   H2    1.084362 S    
N6    O16   1.297614 A    
C17   C19   1.393298 A    
O5    C3    1.293622 A    
C4    C5    1.430734 S    
C18   H8    1.081199 S    
C11   C13   1.374479 A    
C6    C9    1.400841 A    
C5    C10   1.400840 A    
O2    Zn2   1.999882 S    
C12   C14   1.374479 A    
C7    C14   1.396489 A    
O1    Zn1   1.999882 S    
C8    C13   1.396489 A    
O3    C1    1.285740 A    
O5    Zn1   1.997796 S    
C1    C20   1.414769 S    
N6    O15   1.301324 A    
O4    C2    1.285743 A    
C24   N2    1.356417 A    
O4    Zn1   1.982382 S    
C21   N5    1.428368 S    
C23   N1    1.356418 A    
O6    Zn2   1.997795 S    
C7    C9    1.382632 A    
C16   C19   1.405104 A    
C12   H1    1.084362 S    
C5    C12   1.392220 A    
C24   H10   1.082055 S    
O2    C2    1.287463 A    
C16   C18   1.377993 A    
Zn2   N2    2.023542 S    
O8    Zn1   2.007098 S    
C18   C20   1.393302 A    
