data_mof_unit_7550.cif
_audit_creation_date              2012-12-10T19:09:33-0500
_audit_creation_method            fapswitch 2.2
_symmetry_space_group_name_H-M    P1
_symmetry_Int_Tables_number       1
_space_group_crystal_system       triclinic
_cell_length_a                    9.597839
_cell_length_b                    10.860866
_cell_length_c                    17.010292
_cell_angle_alpha                 88.468584
_cell_angle_beta                  93.076733
_cell_angle_gamma                 90.610249
_cell_volume                      1769.9033812

loop_
_atom_site_label
_atom_site_type_symbol
_atom_type_description
_atom_site_fract_x
_atom_site_fract_y
_atom_site_fract_z
_atom_type_partial_charge
C1    C     C_R   0.499419 0.262915 0.500530 0.807852
C2    C     C_R   0.634662 0.555490 0.777156 -0.426974
C3    C     C_R   0.567785 0.433192 0.142337 -0.159431
C4    C     C_R   0.569877 0.430239 0.224141 -0.218690
C5    C     C_R   0.469842 0.506707 0.098318 0.377027
C6    C     C_R   0.475590 0.500747 0.263300 -0.019012
C7    C     C_R   0.375252 0.570901 0.219830 -0.212497
C8    C     C_R   0.372239 0.573308 0.137720 -0.153860
C9    C     C_R   0.619538 0.064023 0.497056 0.002082
C10   C     C_R   0.497587 0.130318 0.501159 -0.089085
C11   C     C_R   0.371495 0.063102 0.505028 -0.179110
C12   C     C_R   0.516794 0.496535 0.650920 0.883317
C13   C     C_R   0.372199 0.933969 0.504463 -0.192807
C14   C     C_R   0.498879 0.870042 0.499451 -0.057025
C15   C     C_R   0.620217 0.939894 0.494883 0.042160
C16   C     C_3   0.775065 0.933148 0.488379 -0.366156
C17   C     C_3   0.774283 0.075849 0.491378 0.180541
C18   C     C_R   0.069884 0.573798 0.447867 0.141255
C19   C     C_R   0.075724 0.435393 0.556112 0.464276
C20   C     C_R   0.928460 0.437962 0.556300 -0.019638
C21   C     C_R   0.922613 0.571219 0.446653 0.215673
C22   C     C_3   0.912785 0.561306 0.358978 0.200639
C23   C     C_R   0.500282 0.737212 0.499572 0.811923
C24   C     C_3   0.070508 0.570289 0.360433 -0.501782
C25   C     C_R   0.483383 0.501301 0.349257 0.811726
C26   C     C_R   0.527386 0.489905 0.737382 -0.171684
C27   C     C_R   0.437055 0.413327 0.779697 0.375580
C28   C     C_R   0.453726 0.404741 0.862609 0.238762
C29   C     C_R   0.557821 0.477457 0.902196 0.211756
C30   C     C_R   0.650350 0.549878 0.859507 0.405109
Cu1   Cu    Cu3+1 0.640670 0.499980 0.500000 0.999701
Cu2   Cu    Cu3+1 0.359330 0.500020 0.500000 0.974640
H1    H     H_    0.643218 0.370905 0.256859 0.188655
H2    H     H_    0.273815 0.884944 0.508060 0.162733
H3    H     H_    0.827449 0.887840 0.541222 0.105879
H4    H     H_    0.827492 0.113341 0.545368 0.142537
H5    H     H_    0.875360 0.384721 0.600509 0.157183
H6    H     H_    0.857321 0.638885 0.327509 0.167869
H7    H     H_    0.119936 0.486353 0.338950 0.237766
H8    H     H_    0.641474 0.376916 0.113750 0.164345
H9    H     H_    0.108504 0.658646 0.334586 0.187997
H10   H     H_    0.705211 0.612517 0.743927 0.182796
H11   H     H_    0.301424 0.625687 0.249289 0.152917
H12   H     H_    0.294977 0.628539 0.104641 0.158617
H13   H     H_    0.272768 0.109484 0.508594 0.176939
N1    N     N_2   0.571597 0.477917 0.985245 -0.202191
N2    N     N_2   0.462636 0.511643 0.014810 -0.222974
N3    N     N_R   0.147870 0.500930 0.499500 -0.235232
N4    N     N_R   0.851960 0.500890 0.499500 -0.206040
O1    O     O_R   0.618810 0.319640 0.500000 -0.549586
O2    O     O_R   0.381230 0.319680 0.499990 -0.615856
O3    O     O_R   0.631790 0.498830 0.613930 -0.610782
O4    O     O_R   0.394210 0.498870 0.613920 -0.544501
O5    O     O_R   0.618770 0.680320 0.500010 -0.585142
O6    O     O_R   0.381190 0.680360 0.500000 -0.590293
O7    O     O_R   0.605790 0.501130 0.386080 -0.524560
O8    O     O_R   0.368210 0.501170 0.386070 -0.592979
C31   C     C_2   0.819417 0.882642 0.411545 0.936158
O9    O     O_2   0.732585 0.843729 0.362998 -0.573087
O10   O     O_R   0.960354 0.880617 0.395043 -0.747122
H14   H     H_    0.023121 0.914821 0.439198 0.295426
O11   O     O_3   0.814058 0.137858 0.422039 -0.657366
H15   H     H_    0.744290 0.119870 0.378492 0.348466
O12   O     O_3   0.140678 0.362730 0.613847 -0.709634
H16   H     H_    0.230883 0.338036 0.595729 0.391434
O13   O     O_3   0.865230 0.444641 0.335978 -0.667120
H17   H     H_    0.877468 0.442240 0.278485 0.322821
O14   O     O_3   0.753468 0.616060 0.899942 -0.680449
H18   H     H_    0.809524 0.662368 0.861533 0.330048
O15   O     O_3   0.369758 0.323116 0.902765 -0.717471
H19   H     H_    0.413603 0.303926 0.955600 0.352600
O16   O     O_3   0.339507 0.342667 0.738124 -0.695946
H20   H     H_    0.280669 0.295855 0.774684 0.388877

loop_
_geom_bond_atom_site_label_1
_geom_bond_atom_site_label_2
_ccdc_geom_bond_type
C14   C23   S    
C5    C8    A    
C18   N3    A    
Cu2   O2    S    
C23   O6    A    
O15   H19   S    
C24   H9    S    
C17   H4    S    
C7    H11   S    
C17   O11   S    
C18   C21   A    
C1    O2    A    
C9    C10   A    
C29   N1    S    
Cu2   O6    S    
C28   O15   S    
C12   O4    A    
C14   C15   A    
C25   O7    A    
Cu1   O3    S    
C2    C30   A    
O12   H16   S    
C22   O13   S    
O11   H15   S    
C21   N4    A    
O13   H17   S    
C9    C15   A    
C13   H2    S    
C2    C26   A    
C16   C31   S    
C21   C22   S    
C20   H5    S    
Cu2   N3    S    
C26   C27   A    
C20   N4    A    
C25   O8    A    
Cu2   O8    S    
Cu1   N4    S    
C18   C24   S    
C15   C16   S    
C9    C17   S    
C28   C29   A    
C12   O3    A    
C19   O12   S    
C2    H10   S    
C3    H8    S    
C6    C7    A    
C16   H3    S    
Cu1   O7    S    
C22   C24   S    
C11   H13   S    
C6    C25   S    
C7    C8    A    
C10   C11   A    
C1    C10   S    
Cu1   O1    S    
C29   C30   A    
C3    C4    A    
C5    N2    S    
C8    H12   S    
Cu1   O5    S    
C11   C13   A    
C24   H7    S    
C23   O5    A    
C4    C6    A    
C1    O1    A    
C27   C28   A    
C4    H1    S    
O16   H20   S    
C19   N3    A    
C13   C14   A    
Cu2   O4    S    
C31   O9    D    
N1    N2    D    
C31   O10   S    
O14   H18   S    
Cu1   Cu2   S    
C30   O14   S    
C27   O16   S    
C19   C20   A    
C16   C17   S    
C12   C26   S    
O10   H14   S    
C3    C5    A    
C22   H6    S    
