data_mof_unit_11984.cif
_audit_creation_date              2012-12-10T17:00:03-0500
_audit_creation_method            fapswitch 2.2
_symmetry_space_group_name_H-M    P1
_symmetry_Int_Tables_number       1
_space_group_crystal_system       triclinic
_cell_length_a                    23.431252
_cell_length_b                    10.956295
_cell_length_c                    9.712907
_cell_angle_alpha                 87.770245
_cell_angle_beta                  89.728882
_cell_angle_gamma                 90.731802
_cell_volume                      2491.36935612

loop_
_atom_site_label
_atom_site_type_symbol
_atom_type_description
_atom_site_fract_x
_atom_site_fract_y
_atom_site_fract_z
_atom_type_partial_charge
Br1   Br    Br    0.799109 0.463267 0.789445 -0.317454
Br2   Br    Br    0.602763 0.879548 0.372602 -0.593608
Br3   Br    Br    0.405608 0.333461 0.855974 -0.506832
Br4   Br    Br    0.070591 0.471047 0.052164 -0.313234
Br5   Br    Br    0.190181 0.329325 0.677614 -0.331775
Br6   Br    Br    0.350115 0.723688 0.300467 -0.372720
Br7   Br    Br    0.208692 0.750531 0.301720 -0.312623
Br8   Br    Br    0.795778 0.310180 0.276940 -0.407754
C1    C     C_R   0.502909 0.265063 0.502780 0.757470
C2    C     C_R   0.118926 0.591279 0.587093 0.633118
C3    C     C_R   0.235256 0.447023 0.572365 0.310100
C4    C     C_R   0.391158 0.504215 0.499683 0.866424
C5    C     C_R   0.294531 0.438978 0.577708 -0.235233
C6    C     C_R   0.329031 0.518847 0.496971 -0.212376
C7    C     C_R   0.303794 0.610607 0.411859 0.186256
C8    C     C_R   0.244105 0.621320 0.409776 0.266404
C9    C     C_R   0.209756 0.538137 0.488275 0.141579
C10   C     C_R   0.761122 0.432549 0.387338 0.255640
C11   C     C_R   0.700986 0.431854 0.391439 0.344964
C12   C     C_R   0.972112 0.493683 0.223945 0.425399
C13   C     C_R   0.672240 0.487679 0.500465 -0.334096
C14   C     C_R   0.704060 0.518662 0.617318 0.346078
C15   C     C_R   0.763535 0.507477 0.615457 0.231108
C16   C     C_R   0.497770 0.734012 0.497410 0.775213
C17   C     C_R   0.792526 0.495592 0.488343 0.014997
C18   C     C_2   0.527845 0.935430 0.419945 0.075529
C19   C     C_2   0.488622 0.865143 0.487777 0.310974
C20   C     C_2   0.516592 0.066700 0.397944 0.445464
C21   C     C_2   0.514696 0.133351 0.511971 0.242820
C22   C     C_2   0.465831 0.431726 0.927331 0.329611
C23   C     C_R   0.032303 0.493429 0.226144 0.215344
C24   C     C_2   0.472633 0.419912 0.080939 0.108053
C25   C     C_R   0.609213 0.497910 0.499965 0.882221
C26   C     C_R   0.879950 0.602943 0.566955 0.622552
C27   C     C_R   0.880578 0.530251 0.344511 0.656512
C28   C     C_R   0.940919 0.526796 0.341558 -0.183541
C29   C     C_R   0.970480 0.559827 0.460371 -0.074315
C30   C     C_R   0.939657 0.603774 0.572387 -0.003601
C31   C     C_3   0.936934 0.336289 0.103409 -0.088490
C32   C     C_3   0.651980 0.259269 0.336707 -0.099417
C33   C     C_3   0.678164 0.673950 0.750415 -0.150502
C34   C     C_R   0.061962 0.518501 0.349522 -0.162136
C35   C     C_3   0.406300 0.849556 0.625525 -0.189109
C36   C     C_3   0.491649 0.036243 0.168791 -0.239825
C37   C     C_3   0.492607 0.087870 0.742313 -0.188145
C38   C     C_3   0.565412 0.641958 0.107416 -0.091704
C39   C     C_R   0.030643 0.557333 0.464229 -0.051242
C40   C     C_R   0.059354 0.596658 0.582493 -0.002193
C41   C     C_R   0.028055 0.642212 0.692538 -0.100608
C42   C     C_R   0.968791 0.646965 0.686884 -0.106765
C43   C     C_R   0.121779 0.507542 0.363689 0.678596
Cu1   Cu    Cu3+1 0.500010 0.500020 0.638630 1.012200
Cu2   Cu    Cu3+1 0.499990 0.499980 0.361370 1.055875
H1    H     H_    0.536775 0.530088 0.887546 0.223336
H2    H     H_    0.623644 0.263942 0.428240 0.105848
H3    H     H_    0.688397 0.198551 0.361987 0.190130
H4    H     H_    0.655406 0.696510 0.846323 0.165795
H5    H     H_    0.655745 0.720631 0.662692 0.161583
H6    H     H_    0.722697 0.709565 0.758003 0.202621
H7    H     H_    0.432737 0.836952 0.719620 0.162059
H8    H     H_    0.390944 0.760298 0.589035 0.172319
H9    H     H_    0.368157 0.901932 0.654404 0.208125
H10   H     H_    0.454241 0.979682 0.204503 0.212041
H11   H     H_    0.528167 0.977809 0.142064 0.191883
H12   H     H_    0.453473 0.340618 0.134115 0.145403
H13   H     H_    0.478833 0.087311 0.073284 0.176272
H14   H     H_    0.448065 0.099553 0.704643 0.188918
H15   H     H_    0.504679 0.163260 0.809845 0.198835
H16   H     H_    0.493477 0.002347 0.807142 0.163461
H17   H     H_    0.594324 0.565249 0.084609 0.156830
H18   H     H_    0.573999 0.673613 0.211563 0.225868
H19   H     H_    0.575961 0.718918 0.033736 0.128586
H20   H     H_    0.049221 0.674093 0.783557 0.214490
H21   H     H_    0.945809 0.681373 0.773996 0.210202
H22   H     H_    0.313639 0.367496 0.641474 0.226497
H23   H     H_    0.907859 0.313886 0.017934 0.223810
H24   H     H_    0.917506 0.297941 0.200796 0.161180
H25   H     H_    0.978277 0.291099 0.084729 0.163557
H26   H     H_    0.626992 0.216591 0.254190 0.209761
N1    N     N_R   0.852003 0.538844 0.467895 -0.429736
N2    N     N_R   0.148632 0.545075 0.480030 -0.452630
N3    N     N_2   0.499380 0.498660 0.846910 -0.275142
N4    N     N_2   0.499370 0.498630 0.153040 -0.003698
O1    O     O_R   0.500010 0.321960 0.617040 -0.561400
O2    O     O_R   0.582130 0.500060 0.617050 -0.540327
O3    O     O_R   0.582110 0.500020 0.382900 -0.566639
O4    O     O_2   0.850812 0.672491 0.653843 -0.502223
O5    O     O_3   0.943906 0.464430 0.104539 -0.515741
O6    O     O_3   0.670890 0.376230 0.288020 -0.532369
O7    O     O_3   0.676940 0.546072 0.738824 -0.527703
O8    O     O_3   0.436121 0.916706 0.520554 -0.606512
O9    O     O_3   0.507679 0.121322 0.267380 -0.607675
O10   O     O_3   0.533524 0.079392 0.636039 -0.597553
O11   O     O_3   0.507453 0.609938 0.091296 -0.501847
O12   O     O_2   0.851658 0.536960 0.225064 -0.410797
O13   O     O_2   0.153198 0.457678 0.264431 -0.428277
O14   O     O_2   0.147112 0.631344 0.697846 -0.463851
O15   O     O_R   0.499990 0.321920 0.382900 -0.565893
O16   O     O_R   0.417890 0.499980 0.617100 -0.541674
O17   O     O_R   0.417870 0.499940 0.382950 -0.536818
O18   O     O_R   0.500010 0.678080 0.617100 -0.594738
O19   O     O_R   0.499990 0.678040 0.382960 -0.547369

loop_
_geom_bond_atom_site_label_1
_geom_bond_atom_site_label_2
_ccdc_geom_bond_type
C22   C24   S    
C1    O15   A    
C23   C34   A    
Br3   C22   S    
C17   N1    S    
C36   H13   S    
C27   C28   A    
C16   C19   S    
C37   O10   S    
C36   H11   S    
C18   C19   D    
C31   H24   S    
C20   C21   D    
C11   C13   A    
C33   H5    S    
Br5   C3    S    
C42   H21   S    
C6    C7    A    
C13   C25   S    
C7    C8    A    
C27   N1    A    
C10   C11   A    
Cu1   O1    S    
C25   O2    A    
C4    O16   A    
C26   N1    A    
Br6   C7    S    
C3    C9    A    
C5    H22   S    
C8    C9    A    
C32   H3    S    
C37   H14   S    
C19   O8    S    
Cu2   O3    S    
C32   O6    S    
C29   C39   A    
C9    N2    S    
C43   N2    A    
C38   H19   S    
C36   O9    S    
C1    C21   S    
C43   O13   S    
C26   O4    S    
C33   O7    S    
Cu2   O17   S    
C13   C14   A    
C10   C17   A    
C31   O5    S    
C36   H10   S    
Cu1   O18   S    
C38   H17   S    
C37   H16   S    
C31   H25   S    
C33   H6    S    
C20   O9    S    
Cu1   O2    S    
N4    O11   S    
Br8   C10   S    
C22   N3    D    
C2    O14   S    
C25   O3    A    
C29   C30   A    
C11   O6    S    
C39   C40   A    
C38   O11   S    
Cu2   O19   S    
C32   H2    S    
C37   H15   S    
C14   O7    S    
C32   H26   S    
Br2   C18   S    
C31   H23   S    
Cu1   N3    S    
C38   H18   S    
C35   H7    S    
C40   C41   A    
C4    C6    S    
Br1   C15   S    
C2    C40   A    
C41   H20   S    
H1    N3    S    
Cu1   Cu2   S    
C35   H8    S    
C24   N4    D    
Br7   C8    S    
Cu1   O16   S    
C26   C30   A    
C30   C42   A    
C27   O12   S    
Cu2   O15   S    
C34   C43   A    
C2    N2    A    
C18   C20   S    
Cu2   N4    S    
C16   O18   A    
C33   H4    S    
C21   O10   S    
C3    C5    A    
C12   O5    S    
C16   O19   A    
C34   C39   A    
C15   C17   A    
C35   O8    S    
C4    O17   A    
Br4   C23   S    
C1    O1    A    
C12   C28   A    
C28   C29   A    
C41   C42   A    
C14   C15   A    
C5    C6    A    
C35   H9    S    
C24   H12   S    
C12   C23   A    
