data_mof_unit_50833.cif
_audit_creation_date              2012-12-10T17:04:52-0500
_audit_creation_method            fapswitch 2.2
_symmetry_space_group_name_H-M    P1
_symmetry_Int_Tables_number       1
_space_group_crystal_system       triclinic
_cell_length_a                    13.804607
_cell_length_b                    11.067445
_cell_length_c                    10.065116
_cell_angle_alpha                 112.652632
_cell_angle_beta                  92.958004
_cell_angle_gamma                 94.243236
_cell_volume                      1409.87715547

loop_
_atom_site_label
_atom_site_type_symbol
_atom_type_description
_atom_site_fract_x
_atom_site_fract_y
_atom_site_fract_z
_atom_type_partial_charge
C1    C     C_R   0.491993 0.253660 0.439817 0.731152
C2    C     C_R   0.508978 0.747572 0.560377 0.694826
C3    C     C_R   0.320115 0.503891 0.523463 0.817900
C4    C     C_R   0.679826 0.495097 0.476334 0.815218
C5    C     C_1   0.781333 0.487307 0.460989 -0.165529
C6    C     C_1   0.218398 0.508453 0.538519 -0.176701
C7    C     C_2   0.969676 0.474911 0.439778 -0.168674
C8    C     C_2   0.029785 0.515965 0.559895 -0.175648
C9    C     C_2   0.519122 0.488116 0.067976 -0.009179
C10   C     C_2   0.489601 0.486790 0.918314 0.001827
C11   C     C_1   0.132534 0.512201 0.549758 -0.011093
C12   C     C_1   0.867061 0.480897 0.449956 -0.000903
C13   C     C_2   0.481712 0.111092 0.404802 0.227837
C14   C     C_2   0.521541 0.892108 0.592679 0.241427
C15   C     C_2   0.525829 0.066268 0.496404 -0.208779
C16   C     C_2   0.509154 0.928429 0.479655 -0.210447
Cu1   Cu    Cu3+1 0.516510 0.521490 0.642840 0.927249
Cu2   Cu    Cu3+1 0.483490 0.478510 0.357160 0.934794
H1    H     H_    0.002270 0.553370 0.666030 0.147548
H2    H     H_    0.997197 0.437717 0.333653 0.150790
H3    H     H_    0.483013 0.856647 0.372674 0.178153
H4    H     H_    0.571521 0.134382 0.590253 0.180909
N1    N     N_2   0.458660 0.446210 0.142550 -0.249728
N2    N     N_2   0.541340 0.553790 0.857450 -0.232811
O1    O     O_R   0.508810 0.332170 0.576290 -0.588998
O2    O     O_R   0.491190 0.667830 0.423710 -0.606329
O3    O     O_R   0.480920 0.295870 0.335040 -0.561730
O4    O     O_R   0.519080 0.704130 0.664960 -0.584641
O5    O     O_R   0.378070 0.520740 0.637680 -0.577203
O6    O     O_R   0.621930 0.479260 0.362320 -0.557062
O7    O     O_R   0.350180 0.484440 0.396440 -0.561650
O8    O     O_R   0.649820 0.515560 0.603560 -0.587649
C17   C     C_R   0.605091 0.668085 0.942420 0.284193
C18   C     C_R   0.704105 0.674639 0.917015 -0.101065
C19   C     C_R   0.767088 0.787235 0.996930 -0.175645
C20   C     C_R   0.732268 0.893378 0.104871 -0.132882
C21   C     C_R   0.634359 0.887197 0.132439 -0.171724
C22   C     C_R   0.570077 0.776214 0.049894 -0.240793
H5    H     H_    0.733886 0.590743 0.840182 0.150799
H6    H     H_    0.843394 0.790919 0.977359 0.130354
H7    H     H_    0.781348 0.979850 0.168291 0.131920
H8    H     H_    0.608735 0.969078 0.217466 0.181695
H9    H     H_    0.493944 0.773559 0.070660 0.157283
C23   C     C_R   0.356778 0.449320 0.117746 0.322560
C24   C     C_R   0.293782 0.334431 0.086563 -0.107490
C25   C     C_R   0.192778 0.339223 0.081159 -0.159609
C26   C     C_R   0.154077 0.459051 0.109610 -0.117386
C27   C     C_R   0.216307 0.574557 0.144972 -0.182665
C28   C     C_R   0.317392 0.570278 0.150611 -0.160010
H10   H     H_    0.323112 0.241825 0.068072 0.119077
H11   H     H_    0.144558 0.250210 0.055993 0.126132
H12   H     H_    0.075888 0.462591 0.105615 0.112720
H13   H     H_    0.186198 0.667519 0.169352 0.132142
H14   H     H_    0.365061 0.660641 0.181672 0.122124
O9    O     O_3   0.553334 0.991036 0.728155 -0.605588
C29   C     C_3   0.526044 0.960475 0.845528 0.076520
H15   H     H_    0.579156 0.897999 0.865577 0.212661
H16   H     H_    0.449985 0.912123 0.826730 0.141980
C30   C     C_3   0.532126 0.085277 0.982271 -0.789340
H17   H     H_    0.476351 0.149409 0.974570 0.232606
H18   H     H_    0.517361 0.059359 0.075361 0.257124
H19   H     H_    0.605985 0.139049 0.003072 0.245613
O10   O     O_3   0.430735 0.023769 0.277427 -0.607827
C31   C     C_3   0.330942 0.043528 0.280622 0.086282
H20   H     H_    0.318741 0.146040 0.295283 0.148448
H21   H     H_    0.299491 0.020771 0.369066 0.145414
C32   C     C_3   0.277357 0.951315 0.137376 -0.839763
H22   H     H_    0.288138 0.847668 0.118134 0.240988
H23   H     H_    0.198185 0.963051 0.139157 0.199030
H24   H     H_    0.305707 0.974644 0.047744 0.246378
C33   C     C_R   0.409047 0.385652 0.830374 0.184842
C34   C     C_R   0.423378 0.252167 0.781912 -0.149058
C35   C     C_R   0.346057 0.154788 0.713284 -0.157621
C36   C     C_R   0.253101 0.190088 0.693541 -0.172948
C37   C     C_R   0.236941 0.322666 0.745177 -0.139326
C38   C     C_R   0.313981 0.419822 0.815593 -0.090752
H25   H     H_    0.495058 0.224680 0.797413 0.168964
H26   H     H_    0.357925 0.051931 0.676027 0.157617
H27   H     H_    0.193373 0.114739 0.640236 0.128149
H28   H     H_    0.164408 0.350211 0.733249 0.137568
H29   H     H_    0.299568 0.522095 0.859159 0.128375
C39   C     C_R   0.625552 0.508294 0.110079 0.195528
C40   C     C_R   0.685348 0.413387 0.030529 -0.173196
C41   C     C_R   0.786772 0.436567 0.058055 -0.157247
C42   C     C_R   0.829500 0.555415 0.163637 -0.117268
C43   C     C_R   0.770860 0.650764 0.243084 -0.144883
C44   C     C_R   0.669393 0.627937 0.216048 -0.066795
H30   H     H_    0.653570 0.322983 0.944701 0.130307
H31   H     H_    0.832331 0.363134 0.996012 0.129662
H32   H     H_    0.908043 0.573646 0.183978 0.118219
H33   H     H_    0.804007 0.742972 0.324584 0.128197
H34   H     H_    0.625278 0.703865 0.276369 0.134536

loop_
_geom_bond_atom_site_label_1
_geom_bond_atom_site_label_2
_ccdc_geom_bond_type
C23   C28   A    
O9    C29   S    
C16   H3    S    
Cu1   O5    S    
C35   C36   A    
C19   C20   A    
Cu2   O2    S    
C3    C6    S    
C7    C8    D    
C42   C43   A    
C21   C22   A    
C20   C21   A    
C43   H33   S    
C33   C38   A    
C15   C16   S    
C29   H15   S    
C18   C19   A    
C21   H8    S    
C3    O5    A    
C18   H5    S    
C15   H4    S    
C26   C27   A    
C35   H26   S    
Cu2   O6    S    
C37   H28   S    
C9    C39   S    
C10   C33   S    
C40   H30   S    
C30   H17   S    
C28   H14   S    
C44   H34   S    
C1    O1    A    
C20   H7    S    
C7    C12   S    
C17   C18   A    
C27   H13   S    
C30   H18   S    
C8    H1    S    
C36   C37   A    
Cu2   N1    S    
Cu1   N2    S    
C31   C32   S    
C41   C42   A    
C5    C12   T    
C6    C11   T    
C43   C44   A    
C9    N1    D    
C10   N2    D    
C24   C25   A    
C25   H11   S    
N1    C23   S    
C32   H22   S    
C32   H23   S    
C31   H21   S    
C37   C38   A    
C34   H25   S    
C40   C41   A    
C13   O10   S    
Cu1   Cu2   S    
C2    O2    A    
C3    O7    A    
C4    O8    A    
C27   C28   A    
C7    H2    S    
C36   H27   S    
C13   C15   D    
C14   C16   D    
C1    C13   S    
C41   H31   S    
C23   C24   A    
C9    C10   S    
C25   C26   A    
C30   H19   S    
Cu1   O4    S    
Cu2   O3    S    
C17   C22   A    
C34   C35   A    
C38   H29   S    
C42   H32   S    
C26   H12   S    
N2    C17   S    
C29   C30   S    
C32   H24   S    
Cu1   O1    S    
C31   H20   S    
C19   H6    S    
C22   H9    S    
C24   H10   S    
C8    C11   S    
C29   H16   S    
C14   O9    S    
C2    C14   S    
O10   C31   S    
C4    C5    S    
C33   C34   A    
C39   C40   A    
C1    O3    A    
Cu1   O8    S    
C2    O4    A    
Cu2   O7    S    
C4    O6    A    
C39   C44   A    
