data_mof_unit_21520.cif
_audit_creation_date              2012-12-10T16:53:59-0500
_audit_creation_method            fapswitch 2.2
_symmetry_space_group_name_H-M    P1
_symmetry_Int_Tables_number       1
_space_group_crystal_system       triclinic
_cell_length_a                    8.330782
_cell_length_b                    8.916531
_cell_length_c                    10.781366
_cell_angle_alpha                 90.2061
_cell_angle_beta                  87.514742
_cell_angle_gamma                 90.271543
_cell_volume                      800.091061767

loop_
_atom_site_label
_atom_site_type_symbol
_atom_type_description
_atom_site_fract_x
_atom_site_fract_y
_atom_site_fract_z
_atom_type_partial_charge
C1    C     C_R   0.541733 0.791346 0.502135 0.977046
C2    C     C_3   0.397016 0.629078 0.928486 -0.438809
C3    C     C_3   0.362079 0.598095 0.066437 0.694150
C4    C     C_3   0.530182 0.348202 0.927094 -0.401636
C5    C     C_3   0.681045 0.595062 0.911552 -0.320944
C6    C     C_3   0.526389 0.515704 0.873862 -0.094256
C7    C     C_2   0.816240 0.504990 0.097209 1.163211
C8    C     C_2   0.365436 0.238748 0.112599 1.197744
C9    C     C_2   0.841396 0.571768 0.838386 1.039312
C10   C     C_3   0.510078 0.508058 0.119523 -0.447188
C11   C     C_3   0.512620 0.333756 0.074289 0.060919
C12   C     C_3   0.676845 0.590626 0.058829 0.079214
C13   C     C_2   0.562503 0.953164 0.511776 -0.356469
C14   C     C_2   0.436976 0.046071 0.509978 -0.289178
C15   C     C_R   0.506632 0.506642 0.738839 0.817923
C16   C     C_R   0.458509 0.208378 0.505580 0.956834
C17   C     C_R   0.500268 0.506652 0.259355 0.962730
H1    H     H_    0.291286 0.640614 0.870633 0.214040
H2    H     H_    0.949874 0.314756 0.063851 0.451496
H3    H     H_    0.640069 0.046120 0.295161 0.408167
H4    H     H_    0.089917 0.821381 0.283312 0.378446
H5    H     H_    0.155839 0.424432 0.860972 0.404001
H6    H     H_    0.222430 0.154038 0.252364 0.366927
H7    H     H_    0.047296 0.670136 0.773096 0.327738
H8    H     H_    0.613212 0.923258 0.960615 0.361126
H9    H     H_    0.645328 0.297691 0.894175 0.263799
H10   H     H_    0.684347 0.996814 0.514454 0.189329
H11   H     H_    0.315098 0.002491 0.507586 0.198693
H12   H     H_    0.008171 0.375354 0.414459 0.248523
H13   H     H_    0.991774 0.629279 0.578973 0.194279
H14   H     H_    0.429367 0.747492 0.914660 0.178080
H15   H     H_    0.443099 0.278125 0.877905 0.218768
H16   H     H_    0.667858 0.711326 0.879038 0.134861
N1    N     N_2   0.950330 0.457950 0.465890 -0.107117
N2    N     N_2   0.049670 0.542050 0.534110 -0.167557
O1    O     O_R   0.389250 0.738570 0.508370 -0.610275
O2    O     O_R   0.873791 0.385637 0.023951 -0.721987
O3    O     O_2   0.755256 0.124868 0.041175 -0.221248
O4    O     O_2   0.778178 0.262240 0.233142 -0.328647
O5    O     O_3   0.565206 0.070024 0.229882 -0.435307
O6    O     O_2   0.412025 0.820542 0.247270 -0.258501
O7    O     O_2   0.245768 0.883218 0.072707 -0.185992
O8    O     O_3   0.128315 0.723142 0.250991 -0.419262
O9    O     O_2   0.138822 0.435615 0.175601 -0.282916
O10   O     O_2   0.074073 0.622041 0.014932 -0.285243
O11   O     O_3   0.184515 0.371890 0.937054 -0.574211
O12   O     O_R   0.678390 0.711620 0.486510 -0.600071
O13   O     O_2   0.306061 0.154014 0.038090 -0.500676
O14   O     O_R   0.313584 0.228633 0.237894 -0.758159
O15   O     O_2   0.883162 0.448089 0.799820 -0.572565
O16   O     O_R   0.937685 0.697432 0.810238 -0.764189
O17   O     O_2   0.718249 0.796315 0.242056 -0.247318
O18   O     O_2   0.874215 0.836290 0.050767 -0.157473
O19   O     O_3   0.574285 0.894578 0.045295 -0.445111
O20   O     O_R   0.355430 0.513500 0.696140 -0.649602
O21   O     O_R   0.644580 0.486550 0.674270 -0.615838
O22   O     O_R   0.321610 0.288380 0.513490 -0.602158
O23   O     O_R   0.610750 0.261430 0.491630 -0.598061
O24   O     O_R   0.355420 0.513450 0.325730 -0.507432
O25   O     O_R   0.644570 0.486500 0.303860 -0.545776
O26   O     O_2   0.881862 0.540852 0.191901 -0.431242
S1    S     S_3+6 0.660242 0.201616 0.144062 0.050618
S2    S     S_3+6 0.292411 0.762516 0.159990 0.155828
S3    S     S_3+6 0.185800 0.501101 0.051679 -0.005044
S4    S     S_3+6 0.714243 0.783413 0.103619 0.115856
Zn1   Zn    Zn3+2 0.306940 0.517990 0.514600 1.047192
Zn2   Zn    Zn3+2 0.693060 0.482010 0.485400 1.090606

loop_
_geom_bond_atom_site_label_1
_geom_bond_atom_site_label_2
_ccdc_geom_bond_type
N1    Zn2   S    
C4    H9    S    
O17   S4    D    
C8    O13   D    
C5    C9    S    
H2    O2    S    
C3    S2    S    
C2    H1    S    
O21   Zn2   S    
O18   S4    D    
C12   S4    S    
O10   S3    D    
C13   H10   S    
C9    O16   S    
O22   Zn1   S    
C11   S1    S    
C15   O21   A    
H7    O16   S    
C2    C3    S    
C7    O2    S    
O8    S2    S    
O25   Zn2   S    
O19   S4    S    
C16   O23   A    
C13   C14   D    
O9    S3    D    
C4    C11   S    
C5    H16   S    
C4    H15   S    
C10   C12   S    
H13   N2    S    
C17   O24   A    
C8    C11   S    
H12   N1    S    
O12   Zn2   S    
H5    O11   S    
O1    Zn1   S    
C16   O22   A    
O24   Zn1   S    
C3    S3    S    
C5    C6    S    
H3    O5    S    
C14   C16   S    
C7    C12   S    
H6    O14   S    
C1    C13   S    
C10   C11   S    
O6    S2    D    
C17   O25   A    
O23   Zn2   S    
O20   Zn1   S    
O5    S1    S    
H8    O19   S    
O7    S2    D    
C5    C12   S    
C4    C6    S    
N1    N2    D    
C3    C10   S    
O4    S1    D    
C1    O12   A    
C10   C17   S    
N2    Zn1   S    
C14   H11   S    
C6    C15   S    
H4    O8    S    
C8    O14   S    
C7    O26   D    
C9    O15   D    
C2    C6    S    
C1    O1    A    
O11   S3    S    
C2    H14   S    
O3    S1    D    
C15   O20   A    
