data_mof_unit_8938.cif
_audit_creation_date              2012-10-26T19:45:33-0400
_audit_creation_method            fapswitch 2.2
_symmetry_space_group_name_H-M    P1
_symmetry_Int_Tables_number       1
_space_group_crystal_system       triclinic
_cell_length_a                    10.828059
_cell_length_b                    9.558956
_cell_length_c                    10.744316
_cell_angle_alpha                 89.911852
_cell_angle_beta                  91.245805
_cell_angle_gamma                 89.996844
_cell_volume                      1111.82558391

loop_
_atom_site_label
_atom_site_type_symbol
_atom_type_description
_atom_site_fract_x
_atom_site_fract_y
_atom_site_fract_z
_atom_type_partial_charge
C1    C     C_R   0.262195 0.500005 0.499577 0.528407
C2    C     C_R   0.422453 0.925874 0.422167 -0.021249
C3    C     C_R   0.578282 0.925737 0.577948 0.374814
C4    C     C_R   0.578225 0.074111 0.578028 0.371374
C5    C     C_R   0.499952 0.500082 0.259868 0.588325
C6    C     C_R   0.737790 0.500002 0.499699 0.605761
C7    C     C_R   0.498879 0.499676 0.740048 0.553289
C8    C     C_3   0.395683 0.594839 0.069402 -0.261020
C9    C     C_3   0.477078 0.349910 0.071128 -0.256398
C10   C     C_3   0.397351 0.597554 0.926032 -0.248981
C11   C     C_3   0.475765 0.349329 0.928583 -0.244337
C12   C     C_3   0.627030 0.549180 0.928371 -0.151355
C13   C     C_3   0.629016 0.554298 0.072923 0.407023
C14   C     C_3   0.501629 0.500398 0.121703 0.051977
C15   C     C_3   0.499516 0.498918 0.877936 -0.033900
C16   C     C_R   0.063853 0.372892 0.498883 -0.122048
C17   C     C_R   0.063830 0.627134 0.498402 -0.123005
C18   C     C_R   0.936100 0.372896 0.498816 -0.088413
C19   C     C_R   0.936073 0.627127 0.498324 -0.086620
C20   C     C_R   0.871679 0.500009 0.498946 0.045618
C21   C     C_R   0.128259 0.500013 0.498969 0.016300
C22   C     C_R   0.422465 0.074380 0.422154 -0.032958
Cl1   Cl    Cl    0.681778 0.838013 0.679896 -0.536573
Cl2   Cl    Cl    0.681348 0.161785 0.680373 -0.538856
Cl3   Cl    Cl    0.661431 0.730677 0.122146 -0.522601
Cl4   Cl    Cl    0.754517 0.449374 0.133281 -0.554219
Cu1   Cu    Cu3+1 0.500020 0.640660 0.500000 1.052549
Cu2   Cu    Cu3+1 0.500020 0.359340 0.500000 1.031120
H1    H     H_    0.404199 0.703482 0.105445 0.175929
H2    H     H_    0.700054 0.477803 0.894165 0.171375
H3    H     H_    0.111879 0.273476 0.498993 0.139952
H4    H     H_    0.111840 0.726548 0.498120 0.139562
H5    H     H_    0.888131 0.273478 0.498765 0.182116
H6    H     H_    0.888081 0.726542 0.497868 0.184424
H7    H     H_    0.360180 0.130197 0.359605 0.124081
H8    H     H_    0.360167 0.870265 0.359629 0.126106
H9    H     H_    0.548763 0.275498 0.106319 0.200548
H10   H     H_    0.304908 0.554387 0.100303 0.124145
H11   H     H_    0.386566 0.310781 0.104104 0.126356
H12   H     H_    0.305515 0.564771 0.887715 0.135667
H13   H     H_    0.384924 0.309892 0.893009 0.146318
H14   H     H_    0.414082 0.706640 0.894133 0.173566
H15   H     H_    0.548146 0.275953 0.896482 0.208784
H16   H     H_    0.647769 0.653976 0.889210 0.209364
N1    N     N_R   0.500030 0.852070 0.500030 -0.245194
N2    N     N_R   0.500030 0.147930 0.500030 -0.250175
O1    O     O_R   0.319660 0.618740 0.499990 -0.527058
O2    O     O_R   0.319660 0.381260 0.499990 -0.523702
O3    O     O_R   0.499990 0.618790 0.317690 -0.469551
O4    O     O_R   0.499990 0.381210 0.317690 -0.509540
O5    O     O_R   0.680370 0.618830 0.500010 -0.450232
O6    O     O_R   0.680370 0.381170 0.500010 -0.456075
O7    O     O_R   0.500030 0.618780 0.682310 -0.471858
O8    O     O_R   0.500030 0.381220 0.682310 -0.468934

loop_
_geom_bond_atom_site_label_1
_geom_bond_atom_site_label_2
_ccdc_geom_bond_type
C2    C22   A    
C9    C14   S    
Cu1   O7    S    
C1    O2    A    
C1    C21   S    
C16   C21   A    
C6    O5    A    
C10   H14   S    
C6    C20   S    
C3    Cl1   S    
C19   C20   A    
C12   C15   S    
Cu2   N2    S    
Cu1   N1    S    
C11   C15   S    
C9    H9    S    
C12   H16   S    
C4    N2    A    
C13   C14   S    
C16   H3    S    
C11   H15   S    
C22   H7    S    
Cu2   O6    S    
C5    O3    A    
C5    C14   S    
C8    H10   S    
C8    H1    S    
C8    C10   S    
C17   C19   A    
Cu1   O5    S    
C11   H13   S    
C18   C20   A    
C10   C15   S    
C9    C11   S    
C2    N1    A    
C4    Cl2   S    
C18   H5    S    
C17   C21   A    
C13   Cl4   S    
C7    O7    A    
Cu1   O1    S    
C3    C4    A    
C22   N2    A    
C6    O6    A    
C5    O4    A    
C9    H11   S    
C12   C13   S    
C16   C18   A    
C2    H8    S    
Cu1   Cu2   S    
C17   H4    S    
Cu2   O8    S    
Cu2   O2    S    
C10   H12   S    
C8    C14   S    
C7    C15   S    
C7    O8    A    
C12   H2    S    
Cu2   O4    S    
C3    N1    A    
C1    O1    A    
Cu1   O3    S    
C13   Cl3   S    
C19   H6    S    
