data_mof_unit_53296.cif
_audit_creation_date              2013-03-05T15:49:42-0500
_audit_creation_method            fapswitch 2.2
_symmetry_space_group_name_H-M    P1
_symmetry_Int_Tables_number       1
_space_group_crystal_system       triclinic
_cell_length_a                    23.571555
_cell_length_b                    13.003784
_cell_length_c                    11.718933
_cell_angle_alpha                 100.644435
_cell_angle_beta                  93.811035
_cell_angle_gamma                 90.867704
_cell_volume                      3521.08536823

loop_
_atom_site_label
_atom_site_type_symbol
_atom_site_description
_atom_site_fract_x
_atom_site_fract_y
_atom_site_fract_z
_atom_type_partial_charge
O1    O     O_R   0.502990 0.354470 0.582000 -0.593726
O2    O     O_R   0.497010 0.645530 0.418000 -0.593724
O3    O     O_R   0.495870 0.341410 0.386200 -0.559768
O4    O     O_R   0.504130 0.658590 0.613800 -0.559770
C1    C     C_R   0.501997 0.299035 0.478114 0.810430
C2    C     C_R   0.498003 0.700965 0.521886 0.810431
O5    O     O_R   0.421440 0.506500 0.597920 -0.596954
O6    O     O_R   0.578560 0.493500 0.402080 -0.596949
O7    O     O_R   0.414320 0.493440 0.402120 -0.537594
O8    O     O_R   0.585680 0.506560 0.597880 -0.537593
C3    C     C_R   0.390903 0.497006 0.499948 0.799375
C4    C     C_R   0.609097 0.502995 0.500052 0.799367
Cu1   Cu    Cu3+1 0.504210 0.507730 0.615930 0.983733
Cu2   Cu    Cu3+1 0.495790 0.492270 0.384070 0.983734
C5    C     C_R   0.883163 0.594533 0.545632 0.607272
C6    C     C_R   0.116837 0.405483 0.454361 0.607271
N1    N     N_R   0.852395 0.502792 0.513851 -0.475636
N2    N     N_R   0.147605 0.497224 0.486144 -0.475637
C7    C     C_R   0.877776 0.409737 0.479124 0.600602
C8    C     C_R   0.122224 0.590279 0.520868 0.600603
C9    C     C_R   0.937523 0.405449 0.475840 -0.141707
C10   C     C_R   0.062477 0.594567 0.524150 -0.141708
C11   C     C_R   0.970122 0.500417 0.504276 -0.074745
C12   C     C_R   0.029878 0.499599 0.495715 -0.074745
C13   C     C_R   0.942924 0.596216 0.541109 -0.147418
C14   C     C_R   0.057076 0.403800 0.458881 -0.147418
C15   C     C_R   0.965240 0.309892 0.441565 0.246550
C16   C     C_R   0.034760 0.690124 0.558424 0.246550
C17   C     C_R   0.024130 0.309324 0.430953 0.243776
C18   C     C_R   0.975870 0.690692 0.569036 0.243776
O9    O     O_2   0.855390 0.683593 0.580232 -0.443138
O10   O     O_2   0.144610 0.316423 0.419764 -0.443137
O11   O     O_2   0.844690 0.322539 0.444679 -0.460198
O12   O     O_2   0.155310 0.677477 0.555313 -0.460197
C19   C     C_R   0.238108 0.540958 0.411166 -0.065647
C20   C     C_R   0.761893 0.459051 0.588830 -0.065643
H1    H     H_    0.215165 0.577887 0.347170 0.168392
H2    H     H_    0.784838 0.422120 0.652823 0.168393
C21   C     C_R   0.297239 0.539590 0.415624 -0.192436
C22   C     C_R   0.702762 0.460415 0.584373 -0.192428
H3    H     H_    0.319008 0.575720 0.354088 0.179207
H4    H     H_    0.680994 0.424280 0.645907 0.179204
C23   C     C_R   0.328126 0.493110 0.498649 -0.038175
C24   C     C_R   0.671874 0.506896 0.501351 -0.038182
C25   C     C_R   0.298022 0.443033 0.575575 0.088592
C26   C     C_R   0.701976 0.556979 0.424428 0.088595
C27   C     C_R   0.238465 0.446239 0.570344 -0.107007
C28   C     C_R   0.761534 0.553778 0.429658 -0.107001
H5    H     H_    0.214667 0.409729 0.628902 0.157520
H6    H     H_    0.785330 0.590292 0.371102 0.157522
C29   C     C_R   0.208588 0.494960 0.489053 0.290602
C30   C     C_R   0.791412 0.505055 0.510945 0.290598
C31   C     C_R   0.495261 0.815197 0.535112 -0.107694
C32   C     C_R   0.504740 0.184803 0.464888 -0.107692
C33   C     C_R   0.487055 0.013469 0.343788 0.127093
C34   C     C_R   0.512946 0.986531 0.656212 0.127093
C35   C     C_R   0.488144 0.122158 0.357623 -0.190779
C36   C     C_R   0.511857 0.877842 0.642376 -0.190781
C37   C     C_R   0.526676 0.136887 0.556393 0.092189
C38   C     C_R   0.473324 0.863113 0.443607 0.092186
C39   C     C_R   0.510118 0.031582 0.554354 0.036102
C40   C     C_R   0.489883 0.968418 0.445646 0.036101
H7    H     H_    0.520302 0.842436 0.717582 0.221415
H8    H     H_    0.479699 0.157564 0.282418 0.221415
N3    N     N_R   0.510550 0.519360 0.790130 -0.267614
N4    N     N_R   0.489450 0.480640 0.209870 -0.267613
C41   C     C_R   0.444165 0.404781 0.019325 0.205469
C42   C     C_R   0.555835 0.595218 0.980675 0.205470
C43   C     C_R   0.448891 0.414803 0.142008 0.426084
C44   C     C_R   0.551109 0.585196 0.857992 0.426086
C45   C     C_R   0.523543 0.541389 0.158050 -0.018402
C46   C     C_R   0.476456 0.458612 0.841950 -0.018401
C47   C     C_R   0.519892 0.535010 0.035171 -0.145557
C48   C     C_R   0.480108 0.464990 0.964828 -0.145556
H9    H     H_    0.447018 0.404057 0.786718 0.190045
H10   H     H_    0.552980 0.595945 0.213281 0.190036
N5    N     N_R   0.934391 0.211498 0.418893 0.195052
O13   O     O_R   0.917402 0.171722 0.505243 -0.228418
O14   O     O_R   0.930010 0.155559 0.314351 -0.230818
N6    N     N_R   0.065608 0.788519 0.581094 0.195052
O15   O     O_R   0.082598 0.828292 0.494743 -0.228419
O16   O     O_R   0.069989 0.844460 0.685635 -0.230817
N7    N     N_R   0.590197 0.644518 0.806046 0.163559
O17   O     O_R   0.584731 0.745233 0.820613 -0.368594
O18   O     O_R   0.640513 0.607685 0.788481 -0.310677
N8    N     N_R   0.409804 0.355480 0.193954 0.163560
O19   O     O_R   0.415270 0.254765 0.179385 -0.368593
O20   O     O_R   0.359488 0.392313 0.211521 -0.310677
N9    N     N_R   0.402191 0.333983 0.951437 0.132435
O21   O     O_R   0.417837 0.251755 0.880830 -0.407170
O22   O     O_R   0.348322 0.350291 0.961871 -0.294072
N10   N     N_R   0.597809 0.666015 0.048563 0.132434
O23   O     O_R   0.582164 0.748247 0.119166 -0.407169
O24   O     O_R   0.651678 0.649704 0.038131 -0.294073
N11   N     N_R   0.049846 0.210793 0.393197 0.194076
O25   O     O_R   0.061256 0.183021 0.284894 -0.226766
O26   O     O_R   0.054023 0.143053 0.462092 -0.216360
N12   N     N_R   0.950153 0.789223 0.606790 0.194076
O27   O     O_R   0.938746 0.816999 0.715093 -0.226764
O28   O     O_R   0.945975 0.856960 0.537891 -0.216363
C49   C     C_3   0.326797 0.382427 0.660616 -0.364103
C50   C     C_3   0.352364 0.282009 0.597851 -0.703833
H11   H     H_    0.385007 0.299081 0.539710 0.230481
H12   H     H_    0.372684 0.239168 0.662539 0.270956
H13   H     H_    0.318418 0.230631 0.545140 0.268794
H14   H     H_    0.359063 0.432783 0.718400 0.221397
H15   H     H_    0.295836 0.359368 0.719559 0.239449
C51   C     C_3   0.673198 0.617586 0.339391 -0.364104
C52   C     C_3   0.647629 0.718001 0.402158 -0.703807
H16   H     H_    0.627285 0.760819 0.337473 0.270937
H17   H     H_    0.615005 0.700928 0.460340 0.230479
H18   H     H_    0.681580 0.769400 0.454829 0.268789
H19   H     H_    0.704158 0.640648 0.280446 0.239451
H20   H     H_    0.640933 0.567227 0.281608 0.221396
C53   C     C_3   0.422495 0.812334 0.364206 -0.418936
C54   C     C_3   0.373131 0.788191 0.434348 -0.751522
H21   H     H_    0.383740 0.724771 0.483006 0.225801
H22   H     H_    0.362586 0.859348 0.496811 0.266934
H23   H     H_    0.334969 0.762833 0.374449 0.245859
H24   H     H_    0.404828 0.865984 0.308552 0.215054
H25   H     H_    0.434596 0.740436 0.305180 0.229651
C55   C     C_3   0.577505 0.187666 0.635795 -0.418933
C56   C     C_3   0.626869 0.211811 0.565653 -0.751521
H26   H     H_    0.637414 0.140655 0.503189 0.266933
H27   H     H_    0.616260 0.275232 0.516996 0.225801
H28   H     H_    0.665032 0.237169 0.625552 0.245859
H29   H     H_    0.565404 0.259565 0.694821 0.229653
H30   H     H_    0.595173 0.134016 0.691448 0.215053
C57   C     C_3   0.486576 0.950274 0.220553 -0.438345
C58   C     C_3   0.535957 0.982120 0.154739 -0.681981
H31   H     H_    0.531708 0.063379 0.139244 0.229370
H32   H     H_    0.577129 0.975655 0.204507 0.276409
H33   H     H_    0.536020 0.929523 0.068526 0.271971
H34   H     H_    0.491087 0.865615 0.220603 0.234129
H35   H     H_    0.445799 0.961573 0.171728 0.219959
C59   C     C_3   0.513425 0.049726 0.779447 -0.438342
C60   C     C_3   0.464044 0.017879 0.845261 -0.681981
H36   H     H_    0.422872 0.024342 0.795492 0.276408
H37   H     H_    0.468294 0.936621 0.860758 0.229369
H38   H     H_    0.463981 0.070478 0.931474 0.271971
H39   H     H_    0.554202 0.038427 0.828272 0.219958
H40   H     H_    0.508913 0.134385 0.779397 0.234132

loop_
_geom_bond_atom_site_label_1
_geom_bond_atom_site_label_2
_geom_bond_distance
_ccdc_geom_bond_type
C49   H15   1.112005 S    
C13   C18   1.417154 A    
C49   C50   1.528817 S    
C53   H25   1.108769 S    
C15   C17   1.401911 A    
C47   C48   1.407889 A    
C55   H29   1.108770 S    
C58   H32   1.111033 S    
N11   O25   1.300997 A    
C56   H26   1.111184 S    
C27   H5    1.083729 S    
Cu1   N3    2.014294 S    
N5    O13   1.301095 A    
C51   C52   1.528818 S    
O5    C3    1.298713 A    
C60   H37   1.109608 S    
O1    C1    1.293762 A    
C19   H1    1.082836 S    
C12   C14   1.418288 A    
C28   C30   1.397198 A    
C52   H17   1.107248 S    
C45   H10   1.076780 S    
N8    O20   1.300650 A    
C56   H27   1.108538 S    
N4    C43   1.379147 A    
N3    C44   1.379147 A    
C33   C40   1.421772 A    
C41   N9    1.434087 S    
C54   H21   1.108536 S    
C50   H13   1.110790 S    
C38   C40   1.413712 A    
C51   H20   1.103830 S    
O4    Cu1   1.966541 S    
C59   H40   1.107721 S    
N1    C7    1.363874 A    
C57   H35   1.111330 S    
N7    O17   1.298622 A    
C54   H22   1.111182 S    
C33   C57   1.523229 S    
C26   C51   1.513558 S    
C11   C12   1.418821 A    
C3    C23   1.478810 S    
N9    O22   1.300556 A    
C20   C30   1.395925 A    
C8    O12   1.348764 S    
C37   C55   1.529116 S    
N5    O14   1.300926 A    
C9    C15   1.416795 A    
C10   C16   1.416794 A    
Cu1   Cu2   2.681048 S    
O2    C2    1.293762 A    
C46   H9    1.076783 S    
C16   N6    1.434224 S    
N1    C30   1.436493 S    
C34   C59   1.523229 S    
C31   C38   1.410106 A    
C24   C26   1.424145 A    
N2    C29   1.436492 S    
C32   C37   1.410106 A    
C25   C27   1.402708 A    
C6    C14   1.413158 A    
C60   H38   1.110636 S    
C26   C28   1.402708 A    
C37   C39   1.413711 A    
C50   H11   1.107228 S    
C1    C32   1.467638 S    
C20   C22   1.391820 A    
C46   C48   1.423763 A    
C7    O11   1.348764 S    
C52   H18   1.110807 S    
C45   C47   1.423762 A    
N8    O19   1.298623 A    
C25   C49   1.513559 S    
C56   H28   1.110051 S    
C27   C29   1.397198 A    
O3    C1    1.298354 A    
C42   C47   1.405414 A    
C41   C43   1.416144 A    
C51   H19   1.112005 S    
C19   C21   1.391819 A    
O7    Cu2   1.945895 S    
C59   H39   1.111330 S    
C23   C25   1.424145 A    
C22   H4    1.082190 S    
N4    C45   1.364374 A    
O5    Cu1   1.947907 S    
O6    C4    1.298711 A    
N10   O24   1.300556 A    
Cu2   N4    2.014294 S    
C41   C48   1.405414 A    
C50   H12   1.109178 S    
C44   N7    1.428663 S    
O7    C3    1.298617 A    
O3    Cu2   1.966541 S    
O8    C4    1.298618 A    
O4    C2    1.298353 A    
N7    O18   1.300648 A    
C8    C10   1.413084 A    
C53   H24   1.107383 S    
N12   O28   1.300887 A    
C33   C35   1.392209 A    
C19   C29   1.395925 A    
C10   C12   1.418368 A    
C58   H33   1.110634 S    
O1    Cu1   1.958269 S    
C2    C31   1.467638 S    
C20   H2    1.082836 S    
C35   H8    1.075969 S    
C17   N11   1.433394 S    
C57   C58   1.531007 S    
C49   H14   1.103834 S    
C5    N1    1.364418 A    
O6    Cu2   1.947907 S    
C7    C9    1.413084 A    
C36   H7    1.075968 S    
N6    O15   1.301095 A    
C15   N5    1.434224 S    
O8    Cu1   1.945893 S    
C21   C23   1.406573 A    
C31   C36   1.394066 A    
N11   O26   1.300887 A    
C5    O9    1.348689 S    
C6    O10   1.348690 S    
N3    C46   1.364373 A    
C60   H36   1.111034 S    
C18   N12   1.433396 S    
C54   H23   1.110051 S    
C9    C11   1.418367 A    
C58   H31   1.109605 S    
C55   C56   1.529574 S    
C16   C18   1.401911 A    
C4    C24   1.478813 S    
C52   H16   1.109196 S    
C28   H6    1.083728 S    
N10   O23   1.299874 A    
C42   N10   1.434086 S    
N6    O16   1.300926 A    
C34   C36   1.392211 A    
N2    C8    1.363873 A    
C11   C13   1.418288 A    
C55   H30   1.107384 S    
C39   C40   1.430333 A    
O2    Cu2   1.958268 S    
C5    C13   1.413159 A    
C57   H34   1.107722 S    
C22   C24   1.406571 A    
C21   H3    1.082189 S    
C14   C17   1.417154 A    
C6    N2    1.364417 A    
N12   O27   1.300997 A    
C42   C44   1.416143 A    
C34   C39   1.421774 A    
C59   C60   1.531006 S    
C38   C53   1.529118 S    
N9    O21   1.299874 A    
C43   N8    1.428662 S    
C53   C54   1.529573 S    
C32   C35   1.394065 A    
