data_mof_unit_33459.cif
_audit_creation_date              2012-12-11T15:56:54-0500
_audit_creation_method            fapswitch 2.2
_symmetry_space_group_name_H-M    P1
_symmetry_Int_Tables_number       1
_space_group_crystal_system       triclinic
_cell_length_a                    17.478139
_cell_length_b                    24.369489
_cell_length_c                    15.045585
_cell_angle_alpha                 89.721352
_cell_angle_beta                  126.358632
_cell_angle_gamma                 90.187675
_cell_volume                      5160.7769346

loop_
_atom_site_label
_atom_site_type_symbol
_atom_type_description
_atom_site_fract_x
_atom_site_fract_y
_atom_site_fract_z
_atom_type_partial_charge
C1    C     C_R   0.346032 0.151072 0.907945 -0.115281
C2    C     C_R   0.352155 0.847386 0.907774 0.020133
C3    C     C_R   0.847326 0.651429 0.907883 -0.106216
C4    C     C_R   0.852283 0.347389 0.907867 0.016968
C5    C     C_R   0.691818 0.122709 0.093813 -0.103608
C6    C     C_R   0.690733 0.876391 0.094506 -0.107819
C7    C     C_R   0.192061 0.622395 0.093819 -0.106178
C8    C     C_R   0.191061 0.376984 0.094334 -0.108211
C9    C     C_R   0.598459 0.875329 0.909635 -0.154148
C10   C     C_R   0.600643 0.121441 0.909868 -0.105983
C11   C     C_R   0.098827 0.376059 0.909518 -0.152786
C12   C     C_R   0.101529 0.620281 0.909985 -0.119815
C13   C     C_R   0.431511 0.997724 0.630211 -0.056296
C14   C     C_R   0.919700 0.498454 0.625359 -0.025698
C15   C     C_R   0.807629 0.999360 0.364356 0.047766
C16   C     C_R   0.307745 0.499382 0.364315 0.048591
C17   C     C_R   0.690088 0.134887 0.002409 0.036261
C18   C     C_R   0.686878 0.861054 0.003563 0.055653
C19   C     C_R   0.190805 0.634079 0.002539 0.048673
C20   C     C_R   0.187382 0.361872 0.003378 0.056740
C21   C     C_3   0.993853 0.970441 0.638586 -0.122824
C22   C     C_3   0.012557 0.052058 0.590244 -0.166050
C23   C     C_3   0.494213 0.469483 0.637822 -0.122269
C24   C     C_3   0.512155 0.551932 0.591726 -0.165448
C25   C     C_3   0.930057 0.021980 0.581224 -0.143506
C26   C     C_3   0.429896 0.520960 0.581776 -0.143682
C27   C     C_3   0.899338 0.998962 0.470033 0.171782
C28   C     C_3   0.399503 0.498990 0.470010 0.171895
C29   C     C_3   0.960388 0.947549 0.525019 -0.169109
C30   C     C_3   0.979968 0.029016 0.477782 -0.135436
C31   C     C_3   0.461105 0.447651 0.523716 -0.172410
C32   C     C_3   0.479871 0.529934 0.478666 -0.135735
C33   C     C_3   0.041462 0.977741 0.532914 -0.153326
C34   C     C_3   0.541892 0.478735 0.532519 -0.151853
C35   C     C_R   0.442421 0.847552 0.091541 -0.096637
C36   C     C_R   0.441478 0.151222 0.092275 -0.052078
C37   C     C_R   0.941940 0.347819 0.091709 -0.090971
C38   C     C_R   0.941966 0.651328 0.092287 -0.052774
C39   C     C_3   0.073907 0.000641 0.645129 0.160745
C40   C     C_3   0.573997 0.500580 0.645297 0.164925
C41   C     C_3   0.406876 0.726076 0.093513 -0.551187
C42   C     C_3   0.232436 0.213283 0.969211 -0.532163
C43   C     C_3   0.905918 0.227211 0.095645 -0.549462
C44   C     C_3   0.733708 0.712889 0.969686 -0.534258
C45   C     C_3   0.851650 0.180568 0.106031 0.068493
C46   C     C_3   0.678687 0.762341 0.966454 0.068339
C47   C     C_3   0.352853 0.679440 0.104614 0.068373
C48   C     C_3   0.177905 0.263112 0.965596 0.064792
C49   C     C_3   0.788988 0.233358 0.891392 -0.381111
C50   C     C_3   0.888694 0.757005 0.119204 -0.361469
C51   C     C_3   0.286962 0.733865 0.889894 -0.386261
C52   C     C_3   0.387872 0.256817 0.119099 -0.362766
C53   C     C_3   0.258129 0.783374 0.018856 0.456041
C54   C     C_3   0.316018 0.275696 0.916260 0.454296
C55   C     C_3   0.755525 0.284133 0.015244 0.448812
C56   C     C_3   0.816426 0.775962 0.916347 0.457937
C57   C     C_3   0.333715 0.766209 0.999300 0.144745
C58   C     C_3   0.330880 0.231599 0.001460 0.122988
C59   C     C_3   0.833212 0.266603 0.999311 0.141232
C60   C     C_3   0.831842 0.731740 0.001588 0.124743
C61   C     C_3   0.745436 0.180269 0.001485 0.225780
C62   C     C_3   0.741835 0.815525 0.004589 0.270257
C63   C     C_3   0.246024 0.679625 0.001350 0.222082
C64   C     C_3   0.241856 0.316007 0.004369 0.269655
C65   C     C_3   0.737203 0.182777 0.892220 -0.388570
C66   C     C_3   0.838921 0.808110 0.119401 -0.397674
C67   C     C_3   0.236097 0.682878 0.891117 -0.387097
C68   C     C_3   0.338582 0.308134 0.119389 -0.399093
C69   C     C_3   0.698429 0.233592 0.004611 -0.502948
C70   C     C_3   0.765012 0.826439 0.920834 -0.597016
C71   C     C_3   0.200117 0.732959 0.006618 -0.500901
C72   C     C_3   0.265704 0.326654 0.921176 -0.595372
C73   C     C_3   0.516086 0.029615 0.557198 -0.395913
C74   C     C_3   0.434361 0.938094 0.496780 -0.373621
C75   C     C_3   0.005674 0.535647 0.556137 -0.396679
C76   C     C_3   0.939831 0.439696 0.504401 -0.380910
C77   C     C_R   0.478444 0.045735 0.245835 -0.097223
C78   C     C_R   0.476385 0.953966 0.243098 -0.077383
C79   C     C_R   0.982939 0.545841 0.251326 -0.093531
C80   C     C_R   0.981723 0.453834 0.249699 -0.066347
C81   C     C_3   0.520117 0.030284 0.459510 -0.459115
C82   C     C_3   0.443918 0.939215 0.402860 -0.425108
C83   C     C_3   0.015955 0.535232 0.462828 -0.447615
C84   C     C_3   0.953818 0.440644 0.414131 -0.428407
C85   C     C_3   0.335847 0.024100 0.429558 -0.567501
C86   C     C_3   0.828696 0.520691 0.422477 -0.558533
C87   C     C_3   0.427967 0.997237 0.529363 0.302411
C88   C     C_3   0.921951 0.498422 0.528002 0.302997
C89   C     C_3   0.433581 0.999114 0.359620 0.074443
C90   C     C_3   0.936706 0.499528 0.364744 0.097971
C91   C     C_3   0.334778 0.024200 0.324674 0.842915
C92   C     C_3   0.832946 0.519767 0.321282 0.809166
C93   C     C_R   0.230527 0.953998 0.753571 -0.079558
C94   C     C_R   0.230726 0.046203 0.752672 -0.135101
C95   C     C_R   0.730536 0.453946 0.753410 -0.077604
C96   C     C_R   0.730788 0.546143 0.753163 -0.124411
C97   C     C_R   0.375682 0.181298 0.000511 0.116084
C98   C     C_R   0.381056 0.816213 0.999542 0.030441
C99   C     C_R   0.877078 0.681698 0.000514 0.110566
C100  C     C_R   0.880762 0.316434 0.999709 0.026263
C101  C     C_R   0.448412 0.999675 0.272124 0.173526
C102  C     C_R   0.955495 0.499714 0.280544 0.124008
C103  C     C_R   0.175516 0.000271 0.728288 0.069051
C104  C     C_R   0.675576 0.500182 0.728542 0.058174
C105  C     C_R   0.446920 0.044088 0.691986 0.115588
C106  C     C_R   0.446964 0.952871 0.695386 0.118360
C107  C     C_R   0.937969 0.544416 0.689412 0.100656
C108  C     C_R   0.940951 0.453472 0.692745 0.109157
C109  C     C_R   0.759044 0.953769 0.304075 -0.141723
C110  C     C_R   0.759382 0.045513 0.304731 -0.158610
C111  C     C_R   0.259100 0.453786 0.304069 -0.141959
C112  C     C_R   0.259406 0.545523 0.304716 -0.158549
H1    H     H_    0.300811 0.164898 0.823192 0.089935
H2    H     H_    0.310301 0.834506 0.822621 0.066801
H3    H     H_    0.803226 0.665298 0.823062 0.087059
H4    H     H_    0.810484 0.334486 0.822732 0.070486
H5    H     H_    0.001964 0.947205 0.707303 0.148703
H6    H     H_    0.034710 0.094996 0.618461 0.109327
H7    H     H_    0.502612 0.445412 0.705893 0.155945
H8    H     H_    0.533989 0.594742 0.621195 0.108837
H9    H     H_    0.938252 0.904571 0.497137 0.121522
H10   H     H_    0.972861 0.052818 0.410084 0.119225
H11   H     H_    0.439486 0.404767 0.494696 0.121898
H12   H     H_    0.472621 0.554500 0.411659 0.118158
H13   H     H_    0.088280 0.959629 0.513611 0.127003
H14   H     H_    0.588901 0.461465 0.512761 0.124667
H15   H     H_    0.455967 0.709713 0.076014 0.207248
H16   H     H_    0.240573 0.181328 0.027046 0.254660
H17   H     H_    0.956774 0.210854 0.080871 0.207132
H18   H     H_    0.742409 0.680719 0.027551 0.254562
H19   H     H_    0.452079 0.747023 0.174489 0.146199
H20   H     H_    0.190260 0.193596 0.886294 0.143908
H21   H     H_    0.949269 0.248680 0.176162 0.146797
H22   H     H_    0.691582 0.693275 0.886697 0.142734
H23   H     H_    0.353334 0.690734 0.176669 0.065590
H24   H     H_    0.119295 0.269720 0.876387 0.071847
H25   H     H_    0.850744 0.192111 0.177023 0.066689
H26   H     H_    0.619599 0.768793 0.877369 0.070697
H27   H     H_    0.845517 0.220253 0.883231 0.151266
H28   H     H_    0.893637 0.727114 0.178570 0.181385
H29   H     H_    0.341946 0.721274 0.878739 0.151545
H30   H     H_    0.392524 0.226963 0.178354 0.185927
H31   H     H_    0.763365 0.145220 0.877539 0.166659
H32   H     H_    0.832316 0.803769 0.187715 0.162758
H33   H     H_    0.262063 0.645637 0.875241 0.167938
H34   H     H_    0.331482 0.303776 0.187324 0.164216
H35   H     H_    0.484106 0.834816 0.176917 0.073355
H36   H     H_    0.486584 0.164255 0.177363 0.084960
H37   H     H_    0.983384 0.335300 0.177168 0.074348
H38   H     H_    0.986907 0.664204 0.177474 0.082997
H39   H     H_    0.297666 0.797827 0.105719 0.040838
H40   H     H_    0.267981 0.258113 0.831947 0.017217
H41   H     H_    0.793273 0.299950 0.100969 0.054353
H42   H     H_    0.769000 0.758259 0.832073 0.014948
H43   H     H_    0.195398 0.732072 0.077275 0.174833
H44   H     H_    0.200277 0.334849 0.836856 0.142260
H45   H     H_    0.693430 0.233223 0.075078 0.177119
H46   H     H_    0.699235 0.834081 0.836505 0.141157
H47   H     H_    0.624176 0.236002 0.928244 0.263594
H48   H     H_    0.808412 0.864414 0.944594 0.208266
H49   H     H_    0.125845 0.736085 0.930491 0.263188
H50   H     H_    0.310144 0.364233 0.945774 0.208737
H51   H     H_    0.737775 0.258199 0.817189 0.211099
H52   H     H_    0.962619 0.766979 0.150031 0.221647
H53   H     H_    0.234636 0.759254 0.817197 0.212697
H54   H     H_    0.461880 0.266562 0.149970 0.221514
H55   H     H_    0.661830 0.186881 0.819558 0.168374
H56   H     H_    0.884502 0.844760 0.138895 0.188415
H57   H     H_    0.160331 0.686930 0.819386 0.169403
H58   H     H_    0.384729 0.344581 0.139542 0.187469
H59   H     H_    0.514903 0.072762 0.578935 0.155784
H60   H     H_    0.369453 0.914572 0.468929 0.210316
H61   H     H_    0.994129 0.578767 0.569553 0.174035
H62   H     H_    0.878299 0.412843 0.476806 0.208070
H63   H     H_    0.582247 0.010711 0.629669 0.166865
H64   H     H_    0.497225 0.916368 0.568120 0.146823
H65   H     H_    0.073137 0.521311 0.633702 0.163431
H66   H     H_    0.004363 0.421393 0.579876 0.149145
H67   H     H_    0.587713 0.010526 0.484574 0.177098
H68   H     H_    0.515336 0.922455 0.435154 0.162939
H69   H     H_    0.087252 0.518437 0.494743 0.174616
H70   H     H_    0.027808 0.427043 0.450541 0.165233
H71   H     H_    0.525937 0.073204 0.440265 0.212974
H72   H     H_    0.391896 0.910764 0.336591 0.223561
H73   H     H_    0.017118 0.577980 0.439049 0.214095
H74   H     H_    0.906629 0.409755 0.350535 0.221677
H75   H     H_    0.329979 0.066448 0.451222 0.196705
H76   H     H_    0.273395 0.001983 0.414468 0.209839
H77   H     H_    0.817770 0.563122 0.438327 0.199789
H78   H     H_    0.767506 0.496714 0.406580 0.207098
H79   H     H_    0.474132 0.088082 0.262567 0.167188
H80   H     H_    0.467262 0.911269 0.253626 0.096193
H81   H     H_    0.977761 0.588297 0.266924 0.162045
H82   H     H_    0.974259 0.411114 0.261977 0.098374
H83   H     H_    0.206962 0.911805 0.738133 0.123306
H84   H     H_    0.207717 0.088418 0.736335 0.096922
H85   H     H_    0.706981 0.411749 0.737647 0.125503
H86   H     H_    0.707829 0.588366 0.737911 0.090375
H87   H     H_    0.772376 0.911777 0.333119 0.091006
H88   H     H_    0.774086 0.087317 0.334414 0.096605
H89   H     H_    0.272437 0.411802 0.333164 0.091716
H90   H     H_    0.274097 0.587328 0.334387 0.096010
H91   H     H_    0.748159 0.131289 0.179147 0.088948
H92   H     H_    0.747533 0.870432 0.180509 0.087213
H93   H     H_    0.248355 0.631164 0.179088 0.087970
H94   H     H_    0.248040 0.371147 0.180304 0.087655
H95   H     H_    0.569788 0.866808 0.824971 0.089432
H96   H     H_    0.573602 0.126883 0.825459 0.094772
H97   H     H_    0.070239 0.367939 0.824701 0.087614
H98   H     H_    0.076361 0.623237 0.825404 0.080474
H99   H     H_    0.881252 0.039940 0.597572 0.117194
H100  H     H_    0.380853 0.538106 0.598511 0.118145
N1    N     N_R   0.392450 0.103580 0.942190 -0.038038
N2    N     N_R   0.392450 0.896420 0.942190 -0.031910
N3    N     N_R   0.892450 0.603580 0.942190 -0.039256
N4    N     N_R   0.892450 0.396420 0.942190 -0.033555
N5    N     N_R   0.450490 0.896000 0.057360 -0.028570
N6    N     N_R   0.450490 0.104000 0.057360 -0.041735
N7    N     N_R   0.950490 0.396000 0.057360 -0.030830
N8    N     N_R   0.950490 0.604000 0.057360 -0.043722
N9    N     N_R   0.525490 0.028390 0.207550 -0.064213
N10   N     N_R   0.525490 0.971610 0.207550 -0.057661
N11   N     N_R   0.025490 0.528390 0.207550 -0.061394
N12   N     N_R   0.025490 0.471610 0.207550 -0.056022
N13   N     N_R   0.317450 0.971190 0.792000 -0.043081
N14   N     N_R   0.317450 0.028810 0.792000 -0.042510
N15   N     N_R   0.817450 0.471190 0.792000 -0.042772
N16   N     N_R   0.817450 0.528810 0.792000 -0.038443
N17   N     N_R   0.473900 0.028390 0.792280 -0.069332
N18   N     N_R   0.473900 0.971610 0.792280 -0.067445
N19   N     N_R   0.973900 0.528390 0.792280 -0.078819
N20   N     N_R   0.973900 0.471610 0.792280 -0.068015
N21   N     N_R   0.682310 0.971180 0.208170 -0.040525
N22   N     N_R   0.682310 0.028820 0.208170 -0.039150
N23   N     N_R   0.182310 0.471180 0.208170 -0.040558
N24   N     N_R   0.182310 0.528820 0.208170 -0.038913
N25   N     N_R   0.606470 0.103570 0.057210 -0.039639
N26   N     N_R   0.606470 0.896430 0.057210 -0.046931
N27   N     N_R   0.106470 0.603570 0.057210 -0.038543
N28   N     N_R   0.106470 0.396430 0.057210 -0.046756
N29   N     N_R   0.549740 0.896000 0.943240 -0.043246
N30   N     N_R   0.549740 0.104000 0.943240 -0.033220
N31   N     N_R   0.049740 0.396000 0.943240 -0.043096
N32   N     N_R   0.049740 0.604000 0.943240 -0.033155
Ni1   Ni    Ni4+2 0.433780 0.065390 0.868430 0.232790
Ni2   Ni    Ni4+2 0.433780 0.934610 0.868430 0.228373
Ni3   Ni    Ni4+2 0.933780 0.565390 0.868430 0.233692
Ni4   Ni    Ni4+2 0.933780 0.434610 0.868430 0.227392
Ni5   Ni    Ni4+2 0.565800 0.934190 0.131570 0.216464
Ni6   Ni    Ni4+2 0.565800 0.065810 0.131570 0.227404
Ni7   Ni    Ni4+2 0.065800 0.434190 0.131570 0.215171
Ni8   Ni    Ni4+2 0.065800 0.565810 0.131570 0.224827
N33   N     N_2   0.901500 0.127997 0.137097 -0.112647
H101  H     H_    0.966294 0.128909 0.213788 0.180670
C113  C     C_3   0.903274 0.096150 0.057424 -0.791724
H102  H     H_    0.955894 0.062438 0.100528 0.271353
H103  H     H_    0.924317 0.121819 0.014076 0.244293
H104  H     H_    0.833155 0.076557 0.998257 0.227489
N34   N     N_2   0.632283 0.751584 0.020113 -0.110635
H105  H     H_    0.572389 0.727406 0.973053 0.164836
C114  C     C_3   0.686863 0.739531 0.137333 -0.758842
H106  H     H_    0.643208 0.714575 0.153869 0.250585
H107  H     H_    0.704712 0.777883 0.184787 0.209656
H108  H     H_    0.752485 0.716282 0.168134 0.287183
N35   N     N_2   0.402006 0.626691 0.133970 -0.112530
H109  H     H_    0.467365 0.627252 0.210056 0.179303
C115  C     C_3   0.402037 0.595140 0.052768 -0.792422
H110  H     H_    0.454195 0.561112 0.094536 0.269317
H111  H     H_    0.422673 0.620902 0.009123 0.244052
H112  H     H_    0.331422 0.576001 0.993943 0.228266
N36   N     N_2   0.130691 0.252808 0.018440 -0.112514
H113  H     H_    0.070458 0.228933 0.970931 0.163322
C116  C     C_3   0.184502 0.240730 0.135572 -0.746273
H114  H     H_    0.140299 0.215880 0.151413 0.251079
H115  H     H_    0.202209 0.279069 0.183020 0.208879
H116  H     H_    0.250209 0.217427 0.166983 0.287450
S1    S     S_3+6 0.178353 0.839023 0.934646 -0.034554
O1    O     O_2   0.107167 0.845651 0.959037 -0.174488
O2    O     O_2   0.231769 0.892059 0.961743 -0.301575
O3    O     O_3   0.120332 0.825196 0.799753 -0.580634
H117  H     H_    0.078832 0.857355 0.760734 0.363089
S2    S     S_3+6 0.422961 0.295556 0.932097 -0.022138
O4    O     O_2   0.474949 0.245891 0.934760 -0.288410
O5    O     O_2   0.395688 0.330406 0.834609 -0.272703
O6    O     O_3   0.495751 0.331625 0.048855 -0.492294
H118  H     H_    0.480617 0.370699 0.026896 0.378368
S3    S     S_3+6 0.674365 0.338338 0.926218 -0.016513
O7    O     O_2   0.602033 0.345606 0.948663 -0.151253
O8    O     O_2   0.725864 0.391815 0.949736 -0.288647
O9    O     O_3   0.617954 0.321952 0.792660 -0.585592
H119  H     H_    0.576232 0.353664 0.750866 0.361235
S4    S     S_3+6 0.923414 0.796719 0.933066 -0.023240
O10   O     O_2   0.977311 0.747475 0.938072 -0.285303
O11   O     O_2   0.896138 0.831051 0.834983 -0.276986
O12   O     O_3   0.994248 0.833722 0.048981 -0.496097
H120  H     H_    0.978707 0.872620 0.025673 0.373438
S5    S     S_3+6 0.311864 0.094118 0.270484 -0.070817
O13   O     O_2   0.292913 0.094363 0.159151 -0.278759
O14   O     O_2   0.224533 0.115562 0.256112 -0.289080
O15   O     O_3   0.401507 0.137648 0.353989 -0.610789
H121  H     H_    0.397030 0.145241 0.415373 0.343366
S6    S     S_3+6 0.233898 0.983594 0.216848 -0.006800
O16   O     O_2   0.228454 0.929019 0.259759 -0.322629
O17   O     O_2   0.143066 0.013957 0.172770 -0.261169
O18   O     O_3   0.242727 0.973222 0.112854 -0.481736
H122  H     H_    0.176672 0.967332 0.046817 0.407824
S7    S     S_3+6 0.802360 0.588027 0.258443 -0.084276
O19   O     O_2   0.790932 0.586967 0.151315 -0.311065
O20   O     O_2   0.708990 0.605334 0.233733 -0.290593
O21   O     O_3   0.883549 0.635904 0.340689 -0.605916
H123  H     H_    0.870700 0.645346 0.394644 0.346050
S8    S     S_3+6 0.740624 0.473668 0.216655 0.003248
O22   O     O_2   0.738486 0.420831 0.267073 -0.305962
O23   O     O_2   0.644536 0.500024 0.159619 -0.246416
O24   O     O_3   0.759423 0.459000 0.121986 -0.475141
H124  H     H_    0.724329 0.487371 0.063831 0.393486
N37   N     N_2   0.411538 0.097104 0.644831 -0.122081
H125  H     H_    0.459976 0.123946 0.650938 0.147596
C117  C     C_3   0.344424 0.122157 0.658231 -0.869461
H126  H     H_    0.316059 0.160210 0.607746 0.249845
H127  H     H_    0.379788 0.133408 0.745548 0.256457
H128  H     H_    0.283756 0.094036 0.628344 0.246677
N38   N     N_2   0.398014 0.901939 0.655578 -0.114680
H129  H     H_    0.428804 0.870920 0.640569 0.140720
C118  C     C_3   0.295201 0.902656 0.589888 -0.902003
H130  H     H_    0.271952 0.875401 0.628995 0.238188
H131  H     H_    0.264004 0.887113 0.505655 0.255703
H132  H     H_    0.267309 0.944636 0.582789 0.252482
N39   N     N_2   0.893115 0.596319 0.646026 -0.120161
H133  H     H_    0.924534 0.628431 0.700586 0.179136
C119  C     C_3   0.790567 0.597396 0.584718 -0.910402
H134  H     H_    0.759718 0.622913 0.509462 0.256453
H135  H     H_    0.770869 0.616478 0.635374 0.238566
H136  H     H_    0.758659 0.555686 0.559672 0.253650
N40   N     N_2   0.892652 0.402239 0.655372 -0.113428
H137  H     H_    0.925374 0.370934 0.643852 0.142408
C120  C     C_3   0.789666 0.402657 0.584131 -0.905609
H138  H     H_    0.763389 0.374066 0.618116 0.240248
H139  H     H_    0.762442 0.388694 0.500081 0.259819
H140  H     H_    0.760703 0.444187 0.577847 0.247701

loop_
_geom_bond_atom_site_label_1
_geom_bond_atom_site_label_2
_ccdc_geom_bond_type
C54   S2    S    
C113  H103  S    
N3    Ni3   S    
C55   C59   S    
N39   C119  S    
C15   C109  A    
C77   C101  A    
N11   N12   A    
N4    N7    A    
C112  H90   S    
C42   C58   S    
C120  H138  S    
N16   Ni3   S    
C67   H57   S    
C6    N26   A    
S2    O4    D    
N5    Ni5   S    
N25   N30   A    
C46   C62   S    
C94   H84   S    
C107  N19   A    
C86   C88   S    
C44   H18   S    
N36   H113  S    
C29   C33   S    
C116  H116  S    
C62   C70   S    
C43   H21   S    
C21   H5    S    
N12   Ni7   S    
C17   C61   S    
N15   Ni4   S    
C36   H36   S    
C30   H10   S    
C91   S6    S    
C19   C63   S    
S3    O8    D    
C79   C102  A    
C36   C97   A    
C51   C57   S    
N18   Ni2   S    
C42   H16   S    
C85   H76   S    
C8    N28   A    
C78   C101  A    
N6    Ni6   S    
N22   Ni6   S    
C1    H1    S    
C73   C81   S    
C44   C46   S    
C11   C20   A    
C24   H8    S    
N30   Ni1   S    
C50   H52   S    
N38   H129  S    
C28   C32   S    
C56   H42   S    
C9    H95   S    
C41   H19   S    
C54   H40   S    
C21   C29   S    
C106  N18   A    
C32   C34   S    
C73   H63   S    
C24   C32   S    
C74   H64   S    
N17   N18   A    
C90   C92   S    
N15   N16   A    
C95   H85   S    
C33   H13   S    
C52   C58   S    
C14   C107  A    
C63   C71   S    
C2    N2    A    
C7    C19   A    
C96   C104  A    
C109  H87   S    
C53   C71   S    
C120  H140  S    
C68   H34   S    
O15   H121  S    
N14   Ni1   S    
N33   C113  S    
C22   H6    S    
C71   H49   S    
C89   C101  S    
N19   Ni3   S    
C13   C106  A    
N34   C114  S    
C50   C66   S    
C92   S7    S    
N4    Ni4   S    
N32   Ni3   S    
S4    O11   D    
C14   C88   S    
N3    N8    A    
C2    H2    S    
C84   H70   S    
C50   H28   S    
C75   H65   S    
C95   N15   A    
C41   C57   S    
N40   H137  S    
C93   N13   A    
C66   H32   S    
N9    Ni6   S    
N28   Ni7   S    
N31   Ni4   S    
C26   H100  S    
N38   C118  S    
C3    N3    A    
C16   C111  A    
C109  N21   A    
N11   Ni8   S    
C117  H127  S    
C72   H44   S    
C27   C29   S    
C11   N31   A    
C41   H15   S    
C9    N29   A    
C111  H89   S    
C4    C100  A    
C96   H86   S    
C82   C89   S    
C108  N40   S    
C96   N16   A    
C24   C26   S    
C23   H7    S    
N33   H101  S    
C115  H112  S    
C82   H72   S    
S8    O22   D    
C83   H69   S    
C25   H99   S    
C118  H131  S    
C10   H96   S    
C90   C102  S    
C12   N32   A    
C22   C25   S    
C67   H33   S    
C69   H45   S    
C74   C87   S    
C89   C91   S    
N21   N22   A    
C43   C59   S    
N17   Ni1   S    
C47   N35   S    
S1    O1    D    
C59   C100  S    
S5    O14   D    
C84   C90   S    
N24   Ni8   S    
C35   N5    A    
N13   N14   A    
C51   H29   S    
C44   H22   S    
S6    O17   D    
C86   H78   S    
C62   C66   S    
C110  H88   S    
C43   H17   S    
O3    H117  S    
C48   N36   S    
C18   C62   S    
C51   C67   S    
C80   C102  A    
N20   Ni4   S    
N9    N10   A    
C61   C65   S    
N35   C115  S    
C13   C87   S    
C55   S3    S    
C41   C47   S    
C31   C34   S    
C42   C48   S    
N1    Ni1   S    
C43   C45   S    
C55   C69   S    
C78   N10   A    
S7    O19   D    
C49   H27   S    
N25   Ni6   S    
C51   H53   S    
C108  N20   A    
N13   Ni2   S    
C55   H41   S    
C21   C25   S    
C22   C30   S    
C47   H23   S    
N27   Ni8   S    
C48   H24   S    
C5    H91   S    
C114  H108  S    
N1    N6    A    
C79   N11   A    
S2    O5    D    
C79   H81   S    
S8    O24   S    
S7    O21   S    
C50   C60   S    
C76   H62   S    
C22   C39   S    
C69   H47   S    
C70   H48   S    
C119  H136  S    
C49   H51   S    
C3    C99   A    
C9    C18   A    
S2    O6    S    
S1    O3    S    
C53   H39   S    
C72   H50   S    
C37   C100  A    
C113  H102  S    
C85   H75   S    
C106  N38   S    
C84   H74   S    
C7    H93   S    
C76   C84   S    
N21   Ni5   S    
C53   S1    S    
N26   N29   A    
C5    N25   A    
C4    N4    A    
C76   H66   S    
C47   C63   S    
C65   H31   S    
C48   C64   S    
C5    C17   A    
C23   C40   S    
O9    H119  S    
N39   H133  S    
C23   C26   S    
N37   C117  S    
C73   C87   S    
C68   H58   S    
C29   H9    S    
C111  N23   A    
N23   N24   A    
C35   C98   A    
C81   C89   S    
C14   C108  A    
C113  H104  S    
O24   H124  S    
N7    Ni7   S    
C15   C110  A    
C93   C103  A    
C74   C82   S    
C120  H139  S    
N29   Ni2   S    
C77   H79   S    
C78   H80   S    
C81   H67   S    
C13   C105  A    
C36   N6    A    
O12   H120  S    
C53   C57   S    
C112  N24   A    
N28   N31   A    
C56   C60   S    
C70   H46   S    
C105  N17   A    
C119  H134  S    
C6    H92   S    
O6    H118  S    
C80   N12   A    
C56   S4    S    
S3    O7    D    
C34   H14   S    
C71   H43   S    
S3    O9    S    
C8    C20   A    
C8    H94   S    
C94   C103  A    
C1    N1    A    
C54   C58   S    
C37   N7    A    
C64   C68   S    
C16   C112  A    
N40   C120  S    
C46   N34   S    
O21   H123  S    
C4    H4    S    
C28   C31   S    
C37   H37   S    
C38   C99   A    
C49   C59   S    
C39   C103  S    
C65   H55   S    
C66   H56   S    
C115  H110  S    
C12   H98   S    
C3    H3    S    
C115  H111  S    
C75   C83   S    
C114  H106  S    
C44   C60   S    
C57   C98   S    
C12   C19   A    
C45   C61   S    
S8    O23   D    
C118  H130  S    
C94   N14   A    
C117  H126  S    
O18   H122  S    
C42   H20   S    
C110  N22   A    
C23   C31   S    
C16   C28   S    
C75   H61   S    
S5    O13   D    
C32   H12   S    
C10   N30   A    
N23   Ni7   S    
C60   C99   S    
C85   C91   S    
S6    O18   S    
C33   C39   S    
C49   C65   S    
C34   C40   S    
S4    O10   D    
C91   S5    S    
C10   C17   A    
C116  H115  S    
C15   C27   S    
N27   N32   A    
C73   H59   S    
N35   H109  S    
C76   C88   S    
C74   H60   S    
C52   C68   S    
C46   H26   S    
C52   H54   S    
C117  H128  S    
C27   C30   S    
C93   H83   S    
C58   C97   S    
C85   C87   S    
C6    C18   A    
C63   C67   S    
C38   N8    A    
C1    C97   A    
C114  H107  S    
C52   H30   S    
S7    O20   D    
C20   C64   S    
C118  H132  S    
C40   C104  S    
C21   C39   S    
C45   H25   S    
C116  H114  S    
N2    Ni2   S    
C35   H35   S    
C119  H135  S    
C77   N9    A    
C7    N27   A    
C56   C70   S    
S1    O2    D    
N26   Ni5   S    
S5    O15   S    
C81   H71   S    
N34   H105  S    
C105  N37   S    
C95   C104  A    
C92   S8    S    
C61   C69   S    
N36   C116  S    
C83   C90   S    
S6    O16   D    
C86   H77   S    
C30   C33   S    
S4    O12   S    
N2    N5    A    
C25   C27   S    
C80   H82   S    
C26   C28   S    
N8    Ni8   S    
C31   H11   S    
C86   C92   S    
C11   H97   S    
C24   C40   S    
C107  N39   S    
C64   C72   S    
N37   H125  S    
N10   Ni5   S    
C75   C88   S    
C54   C72   S    
C2    C98   A    
C82   H68   S    
N19   N20   A    
C83   H73   S    
C38   H38   S    
C45   N33   S    
