data_mof_unit_5377.cif
_audit_creation_date              2012-12-10T18:42:33-0500
_audit_creation_method            fapswitch 2.2
_symmetry_space_group_name_H-M    P1
_symmetry_Int_Tables_number       1
_space_group_crystal_system       triclinic
_cell_length_a                    8.584265
_cell_length_b                    10.636011
_cell_length_c                    9.891025
_cell_angle_alpha                 89.587327
_cell_angle_beta                  98.431434
_cell_angle_gamma                 90.696309
_cell_volume                      893.233931831

loop_
_atom_site_label
_atom_site_type_symbol
_atom_type_description
_atom_site_fract_x
_atom_site_fract_y
_atom_site_fract_z
_atom_type_partial_charge
C1    C     C_R   0.502831 0.260368 0.500631 0.949592
C2    C     C_R   0.391048 0.065057 0.564500 -0.211823
C3    C     C_R   0.495563 0.872019 0.498699 -0.194647
C4    C     C_R   0.504437 0.127981 0.501300 -0.194647
C5    C     C_R   0.598206 0.578852 0.082561 0.448987
C6    C     C_R   0.401793 0.421148 0.917438 0.448987
C7    C     C_R   0.597803 0.578544 0.939244 -0.153981
C8    C     C_R   0.402197 0.421456 0.060755 -0.153981
C9    C     C_R   0.497169 0.739632 0.499369 0.949592
C10   C     C_R   0.201327 0.499751 0.464289 0.972463
C11   C     C_R   0.798673 0.500249 0.535711 0.972463
C12   C     C_2   0.036229 0.499003 0.445095 -0.287875
C13   C     C_2   0.963771 0.500996 0.554905 -0.287874
C14   C     C_R   0.614517 0.064084 0.436700 0.406753
C15   C     C_R   0.385483 0.935916 0.563300 0.406753
C16   C     C_R   0.608952 0.934942 0.435500 -0.211823
Cl1   Cl    Cl    0.764337 0.141781 0.362661 -0.542948
Cl2   Cl    Cl    0.235663 0.858219 0.637339 -0.542948
Cl3   Cl    Cl    0.727644 0.682829 0.180846 -0.572948
Cl4   Cl    Cl    0.272356 0.317171 0.819154 -0.572948
H1    H     H_    0.974763 0.496497 0.340817 0.213607
H2    H     H_    0.025237 0.503503 0.659183 0.213607
H3    H     H_    0.694818 0.883562 0.388244 0.234182
H4    H     H_    0.305182 0.116437 0.611756 0.234182
H5    H     H_    0.675931 0.641291 0.893749 0.194349
H6    H     H_    0.324069 0.358709 0.106251 0.194349
N1    N     N_R   0.499960 0.499970 0.857200 -0.138584
N2    N     N_R   0.500040 0.500030 0.142800 -0.138584
O1    O     O_R   0.499990 0.316750 0.614620 -0.579168
O2    O     O_R   0.500010 0.683250 0.385380 -0.579168
O3    O     O_R   0.499990 0.316780 0.385290 -0.591946
O4    O     O_R   0.500010 0.683220 0.614710 -0.591946
O5    O     O_R   0.271750 0.499990 0.587840 -0.569900
O6    O     O_R   0.728250 0.500010 0.412160 -0.569900
O7    O     O_R   0.271750 0.500010 0.358510 -0.627184
O8    O     O_R   0.728250 0.499990 0.641490 -0.627184
Zn1   Zn    Zn3+2 0.500000 0.499980 0.653120 1.051070
Zn2   Zn    Zn3+2 0.500000 0.500020 0.346880 1.051070

loop_
_geom_bond_atom_site_label_1
_geom_bond_atom_site_label_2
_ccdc_geom_bond_type
C15   Cl2   S    
C2    C4    A    
C10   O7    A    
C5    Cl3   S    
C10   O5    A    
C5    N2    A    
C6    Cl4   S    
C6    N1    A    
C7    H5    S    
O3    Zn2   S    
N2    Zn2   S    
C1    C4    S    
C1    O1    A    
C7    N1    A    
O4    Zn1   S    
C4    C14   A    
C2    C15   A    
C11   C13   S    
C14   Cl1   S    
C10   C12   S    
C9    O2    A    
N1    Zn1   S    
C3    C9    S    
C11   O8    A    
C13   H2    S    
C16   H3    S    
C2    H4    S    
C8    H6    S    
C8    N2    A    
C14   C16   A    
C1    O3    A    
O7    Zn2   S    
C3    C15   A    
C12   C13   D    
O2    Zn2   S    
O1    Zn1   S    
C5    C7    A    
O8    Zn1   S    
C6    C8    A    
C9    O4    A    
O6    Zn2   S    
C12   H1    S    
C11   O6    A    
O5    Zn1   S    
C3    C16   A    
