data_mof_unit_37970.cif
_audit_creation_date              2012-12-11T14:40:26-0500
_audit_creation_method            fapswitch 2.2
_symmetry_space_group_name_H-M    P1
_symmetry_Int_Tables_number       1
_space_group_crystal_system       triclinic
_cell_length_a                    20.141233
_cell_length_b                    11.144911
_cell_length_c                    19.385197
_cell_angle_alpha                 89.906821
_cell_angle_beta                  95.844155
_cell_angle_gamma                 90.319961
_cell_volume                      4328.75237446

loop_
_atom_site_label
_atom_site_type_symbol
_atom_type_description
_atom_site_fract_x
_atom_site_fract_y
_atom_site_fract_z
_atom_type_partial_charge
C1    C     C_R   0.722600 0.956304 0.360989 0.545284
C2    C     C_3   0.260105 0.377246 0.561853 0.032895
C3    C     C_3   0.923674 0.963652 0.477677 -0.313465
C4    C     C_3   0.634926 0.093658 0.020876 -0.294347
C5    C     C_3   0.680679 0.190876 0.049500 -0.401470
C6    C     C_3   0.365544 0.162148 0.977684 -0.283927
C7    C     C_3   0.334439 0.280518 0.982341 -0.425171
C8    C     C_3   0.134226 0.659719 0.022177 -0.284230
C9    C     C_3   0.166458 0.778125 0.019091 -0.422947
C10   C     C_3   0.864353 0.594860 0.978800 -0.293179
C11   C     C_3   0.818590 0.693124 0.952090 -0.403505
C12   C     C_3   0.244901 0.884513 0.436288 0.034411
C13   C     C_3   0.762483 0.865483 0.560563 0.030914
C14   C     C_3   0.729219 0.502046 0.470118 -0.095122
C15   C     C_3   0.283132 0.494724 0.529440 -0.091185
C16   C     C_3   0.241975 0.010065 0.467331 -0.103802
C17   C     C_3   0.779417 0.989357 0.532107 -0.082962
C18   C     C_3   0.797924 0.490822 0.514032 -0.134584
C19   C     C_3   0.211945 0.504819 0.489861 -0.131567
C20   C     C_3   0.306683 0.978954 0.514631 -0.142365
C21   C     C_R   0.276750 0.955247 0.639257 0.537902
C22   C     C_3   0.708403 0.991485 0.491672 -0.131776
C23   C     C_3   0.811648 0.369989 0.480689 -0.112033
C24   C     C_3   0.189253 0.388294 0.523849 -0.109214
C25   C     C_3   0.309523 0.853062 0.483048 -0.104874
C26   C     C_3   0.691468 0.868346 0.521329 -0.107581
C27   C     C_3   0.776853 0.301190 0.536316 -0.137774
C28   C     C_3   0.212017 0.311475 0.464728 -0.139707
C29   C     C_3   0.265762 0.799935 0.537083 -0.147668
C30   C     C_3   0.719052 0.803152 0.460374 -0.146090
C31   C     C_3   0.762842 0.421238 0.568846 0.063490
C32   C     C_R   0.222851 0.455080 0.360467 0.549267
C33   C     C_3   0.235104 0.426561 0.431760 0.070503
C34   C     C_3   0.262858 0.925004 0.567950 0.059887
C35   C     C_3   0.736325 0.924695 0.431925 0.066544
C36   C     C_3   0.536486 0.251011 0.970054 -0.115662
C37   C     C_3   0.485405 0.267085 0.024673 -0.103090
C38   C     C_3   0.015494 0.766895 0.975159 -0.103908
C39   C     C_3   0.964225 0.751552 0.029843 -0.114753
C40   C     C_3   0.566759 0.142452 0.010746 -0.008801
C41   C     C_3   0.438689 0.174516 0.986364 0.012055
C42   C     C_3   0.061235 0.673469 0.013505 0.011023
C43   C     C_R   0.776217 0.453356 0.639903 0.536420
C44   C     C_3   0.932797 0.643410 0.989285 -0.009281
C45   C     C_3   0.517736 0.161855 0.065730 0.053972
C46   C     C_3   0.487900 0.162672 0.931460 0.057849
C47   C     C_3   0.011924 0.662466 0.068525 0.057619
C48   C     C_3   0.982020 0.662045 0.934281 0.053655
C49   C     C_R   0.535875 0.180035 0.337979 0.539497
C50   C     C_R   0.465035 0.180344 0.662781 0.535588
C51   C     C_R   0.035850 0.680113 0.337944 0.537424
C52   C     C_R   0.964961 0.680408 0.662730 0.536717
C53   C     C_3   0.471144 0.069491 0.027890 -0.125699
C54   C     C_3   0.708221 0.310322 0.492153 -0.116087
C55   C     C_3   0.518594 0.054337 0.971030 -0.123994
C56   C     C_3   0.980081 0.554473 0.029074 -0.124673
C57   C     C_3   0.027652 0.568938 0.972148 -0.125025
C58   C     C_1   0.758888 0.424087 0.903582 -0.023537
C59   C     C_1   0.230206 0.446918 0.088226 -0.020782
C60   C     C_1   0.270057 0.946787 0.911785 -0.020556
C61   C     C_1   0.740728 0.924774 0.096199 -0.024222
C62   C     C_1   0.751044 0.424916 0.038188 -0.066918
C63   C     C_1   0.234724 0.453648 0.952044 -0.070648
C64   C     C_1   0.265657 0.953528 0.047922 -0.071059
C65   C     C_3   0.283534 0.300254 0.502860 -0.133656
C66   C     C_1   0.748752 0.925410 0.961600 -0.066185
C67   C     C_1   0.752327 0.421876 0.964981 -0.069219
C68   C     C_1   0.232429 0.451511 0.025715 -0.070490
C69   C     C_1   0.267953 0.951260 0.974290 -0.071022
C70   C     C_1   0.747260 0.922635 0.034783 -0.069735
C71   C     C_1   0.748274 0.411497 0.099794 -0.018673
C72   C     C_1   0.243415 0.430325 0.892239 -0.024112
C73   C     C_1   0.256990 0.930605 0.107823 -0.024629
C74   C     C_1   0.751657 0.911985 0.900004 -0.020104
C75   C     C_R   0.736532 0.353323 0.364171 0.544098
C76   C     C_3   0.201028 0.828633 0.489617 -0.118312
C77   C     C_R   0.270290 0.330821 0.631721 0.555588
C78   C     C_R   0.237069 0.854602 0.363765 0.541212
C79   C     C_R   0.772583 0.822006 0.631683 0.555256
C80   C     C_R   0.723034 0.951358 0.164733 0.529424
C81   C     C_R   0.279827 0.958158 0.838847 0.531212
C82   C     C_R   0.220236 0.458098 0.161141 0.530279
C83   C     C_R   0.776872 0.451236 0.835165 0.528646
C84   C     C_R   0.535790 0.177670 0.139308 0.541775
C85   C     C_R   0.466922 0.177865 0.859040 0.543651
C86   C     C_R   0.033049 0.677670 0.140956 0.543383
C87   C     C_3   0.790225 0.799493 0.499883 -0.138774
C88   C     C_R   0.963990 0.677839 0.860756 0.543699
C89   C     C_R   0.738168 0.366485 0.167870 0.525227
C90   C     C_R   0.260653 0.369519 0.830111 0.541629
C91   C     C_R   0.239522 0.869615 0.170038 0.533300
C92   C     C_R   0.761876 0.866717 0.832079 0.534014
C93   C     C_1   0.488288 0.172335 0.596311 -0.019157
C94   C     C_1   0.515672 0.171786 0.405793 -0.020924
C95   C     C_1   0.988001 0.672793 0.596172 -0.019184
C96   C     C_1   0.015547 0.672386 0.405720 -0.019131
C97   C     C_1   0.506693 0.167793 0.465936 -0.073938
C98   C     C_3   0.743222 0.381812 0.437190 0.026920
C99   C     C_1   0.499133 0.167991 0.536751 -0.072734
C100  C     C_1   0.006453 0.669034 0.465821 -0.072295
C101  C     C_1   0.998777 0.669096 0.536581 -0.072744
C102  C     C_3   0.696413 0.431271 0.525496 0.150981
C103  C     C_3   0.303950 0.417737 0.469672 0.145009
C104  C     C_3   0.199781 0.954130 0.521368 0.160801
C105  C     C_3   0.804816 0.922916 0.470682 0.148060
C106  C     C_3   0.577937 0.475786 0.515765 -0.306147
C107  C     C_3   0.423223 0.456573 0.473157 -0.313070
C108  C     C_3   0.082144 0.004912 0.505499 -0.313034
Cr1   Cr    Cr6+3 0.765830 0.160660 0.268180 1.028851
Cr2   Cr    Cr6+3 0.384070 0.324050 0.751550 1.017844
Cr3   Cr    Cr6+3 0.115930 0.824050 0.248450 1.016984
Cr4   Cr    Cr6+3 0.884070 0.824050 0.751550 1.015239
Cr5   Cr    Cr6+3 0.234170 0.160660 0.731820 1.028132
Cr6   Cr    Cr6+3 0.265830 0.660660 0.268180 1.034352
Cr7   Cr    Cr6+3 0.734170 0.660660 0.731820 1.027389
Cr8   Cr    Cr6+3 0.612110 0.009150 0.248770 1.019527
Cr9   Cr    Cr6+3 0.387890 0.009150 0.751230 1.020981
Cr10  Cr    Cr6+3 0.112110 0.509150 0.248770 1.020288
Cr11  Cr    Cr6+3 0.887890 0.509150 0.751230 1.018016
Cr12  Cr    Cr6+3 0.615930 0.324050 0.248450 1.015530
H1    H     H_    0.666130 0.247992 0.479800 0.101658
H2    H     H_    0.669682 0.060851 0.483342 0.106999
H3    H     H_    0.839297 0.554189 0.528769 0.107498
H4    H     H_    0.178289 0.582125 0.479098 0.108524
H5    H     H_    0.859302 0.345415 0.460260 0.144873
H6    H     H_    0.141019 0.375898 0.546928 0.147407
H7    H     H_    0.355887 0.813722 0.465537 0.144811
H8    H     H_    0.643596 0.846322 0.542485 0.149416
H9    H     H_    0.800363 0.234282 0.573118 0.117693
H10   H     H_    0.176349 0.248305 0.435518 0.127460
H11   H     H_    0.275118 0.727016 0.576328 0.114514
H12   H     H_    0.318216 0.223934 0.510606 0.098846
H13   H     H_    0.686705 0.745938 0.424427 0.122265
H14   H     H_    0.564921 0.323395 0.946125 0.124168
H15   H     H_    0.469469 0.353645 0.046380 0.130896
H16   H     H_    0.032285 0.853245 0.953309 0.130355
H17   H     H_    0.936364 0.824280 0.053654 0.124496
H18   H     H_    0.445849 0.994626 0.053352 0.120019
H19   H     H_    0.532273 0.968158 0.947119 0.123080
H20   H     H_    0.965637 0.468379 0.053081 0.122419
H21   H     H_    0.052261 0.493781 0.946721 0.120273
H22   H     H_    0.633764 0.411123 0.603394 0.253664
H23   H     H_    0.155795 0.772504 0.477099 0.101641
H24   H     H_    0.535555 0.479813 0.549976 0.139038
H25   H     H_    0.570259 0.396028 0.479885 0.151969
H26   H     H_    0.579615 0.561668 0.484839 0.156431
H27   H     H_    0.363136 0.384713 0.389171 0.252718
H28   H     H_    0.462449 0.469107 0.437372 0.146893
H29   H     H_    0.433920 0.376465 0.506768 0.154692
H30   H     H_    0.421271 0.538895 0.505870 0.149294
H31   H     H_    0.135726 0.964427 0.598099 0.260561
H32   H     H_    0.040372 0.016867 0.538287 0.132653
H33   H     H_    0.074250 0.917933 0.477371 0.147567
H34   H     H_    0.831699 0.735420 0.503259 0.099849
H35   H     H_    0.083134 0.080613 0.467985 0.160802
H36   H     H_    0.864458 0.909873 0.389143 0.256574
H37   H     H_    0.963852 0.970375 0.442877 0.142584
H38   H     H_    0.931876 0.882796 0.511087 0.154256
H39   H     H_    0.923881 0.045465 0.510679 0.154543
H40   H     H_    0.682856 0.253185 0.004852 0.157147
H41   H     H_    0.656914 0.236221 0.091811 0.189688
H42   H     H_    0.731024 0.158139 0.069335 0.171339
H43   H     H_    0.631654 0.016468 0.057509 0.184711
H44   H     H_    0.648863 0.064769 0.969122 0.156792
H45   H     H_    0.704712 0.565000 0.431980 0.103964
H46   H     H_    0.343029 0.318847 0.036292 0.152031
H47   H     H_    0.355867 0.343570 0.945060 0.190029
H48   H     H_    0.280787 0.257534 0.969057 0.167779
H49   H     H_    0.351022 0.119450 0.925760 0.170749
H50   H     H_    0.350094 0.109655 0.022149 0.160384
H51   H     H_    0.158968 0.817505 0.965179 0.152085
H52   H     H_    0.144442 0.840875 0.055933 0.190282
H53   H     H_    0.219833 0.755273 0.033742 0.168739
H54   H     H_    0.147792 0.615094 0.073811 0.171592
H55   H     H_    0.149270 0.608279 0.977236 0.160331
H56   H     H_    0.319912 0.556214 0.557683 0.111946
H57   H     H_    0.815094 0.751498 0.998150 0.156907
H58   H     H_    0.843186 0.743043 0.911831 0.188339
H59   H     H_    0.768683 0.660062 0.929997 0.171957
H60   H     H_    0.867167 0.519934 0.940637 0.184992
H61   H     H_    0.850810 0.562853 0.030212 0.156749
H62   H     H_    0.233985 0.084720 0.428993 0.100656
H63   H     H_    0.811236 0.049623 0.566222 0.113201
H64   H     H_    0.352219 0.035134 0.527279 0.113988
N1    N     N_2   0.638709 0.462892 0.559987 -0.489511
N2    N     N_2   0.360659 0.439666 0.431377 -0.494068
N3    N     N_2   0.142974 0.003639 0.551032 -0.485489
N4    N     N_2   0.861733 0.955309 0.434913 -0.493556
O1    O     O_R   0.783230 0.287800 0.346510 -0.511630
O2    O     O_R   0.454570 0.285140 0.836900 -0.516214
O3    O     O_R   0.045430 0.785140 0.163100 -0.516017
O4    O     O_R   0.954570 0.785140 0.836900 -0.521936
O5    O     O_R   0.677850 0.374730 0.185500 -0.503119
O6    O     O_R   0.322150 0.374730 0.814500 -0.497628
O7    O     O_R   0.177850 0.874730 0.185500 -0.499683
O8    O     O_R   0.822150 0.874730 0.814500 -0.500645
O9    O     O_3   0.664630 0.164620 0.255130 -0.277256
O10   O     O_3   0.335370 0.164620 0.744870 -0.284689
O11   O     O_3   0.164630 0.664620 0.255130 -0.277153
O12   O     O_R   0.216770 0.287800 0.653490 -0.508503
O13   O     O_3   0.835370 0.664620 0.744870 -0.288452
O14   O     O_R   0.760130 0.037060 0.338610 -0.487002
O15   O     O_R   0.239870 0.037060 0.661390 -0.503568
O16   O     O_R   0.260130 0.537060 0.338610 -0.482098
O17   O     O_R   0.739870 0.537060 0.661390 -0.494829
O18   O     O_R   0.666620 0.921370 0.332440 -0.529390
O19   O     O_R   0.333380 0.921370 0.667560 -0.518420
O20   O     O_R   0.166620 0.421370 0.332440 -0.529321
O21   O     O_R   0.833380 0.421370 0.667560 -0.523614
O22   O     O_R   0.557170 0.082420 0.312350 -0.494078
O23   O     O_R   0.283230 0.787800 0.346510 -0.517128
O24   O     O_R   0.442830 0.082420 0.687650 -0.495870
O25   O     O_R   0.057170 0.582420 0.312350 -0.495313
O26   O     O_R   0.942830 0.582420 0.687650 -0.494241
O27   O     O_R   0.548310 0.285980 0.316250 -0.515618
O28   O     O_R   0.451690 0.285980 0.683750 -0.518815
O29   O     O_R   0.048310 0.785980 0.316250 -0.517141
O30   O     O_R   0.951690 0.785980 0.683750 -0.518871
O31   O     O_R   0.680520 0.375500 0.327470 -0.509289
O32   O     O_R   0.319480 0.375500 0.672530 -0.510075
O33   O     O_R   0.180520 0.875500 0.327470 -0.508024
O34   O     O_R   0.716770 0.787800 0.653490 -0.508927
O35   O     O_R   0.819480 0.875500 0.672530 -0.508801
O36   O     O_R   0.780350 0.286970 0.193350 -0.508638
O37   O     O_R   0.219650 0.286970 0.806650 -0.502853
O38   O     O_R   0.280350 0.786970 0.193350 -0.504833
O39   O     O_R   0.719650 0.786970 0.806650 -0.505656
O40   O     O_R   0.757460 0.036290 0.196640 -0.498368
O41   O     O_R   0.242540 0.036290 0.803360 -0.495677
O42   O     O_R   0.257460 0.536290 0.196640 -0.494940
O43   O     O_R   0.742540 0.536290 0.803360 -0.498330
O44   O     O_R   0.663740 0.920540 0.179290 -0.512810
O45   O     O_R   0.554500 0.081650 0.170370 -0.507593
O46   O     O_R   0.336260 0.920540 0.820710 -0.506045
O47   O     O_R   0.163740 0.420540 0.179290 -0.508610
O48   O     O_R   0.836260 0.420540 0.820710 -0.511545
O49   O     O_R   0.445500 0.081650 0.829630 -0.511184
O50   O     O_R   0.054500 0.581650 0.170370 -0.512422
O51   O     O_R   0.945500 0.581650 0.829630 -0.506328
O52   O     O_R   0.545430 0.285140 0.163100 -0.521662

loop_
_geom_bond_atom_site_label_1
_geom_bond_atom_site_label_2
_ccdc_geom_bond_type
C61   C70   T    
C76   C104  S    
C24   H6    S    
C7    H48   S    
C39   H17   S    
Cr3   O3    S    
Cr8   O9    S    
C43   O17   A    
C14   C18   S    
C90   O37   A    
Cr1   O9    S    
Cr11  O13   S    
C59   C82   S    
C2    C15   S    
C2    C65   S    
C3    N4    S    
C18   H3    S    
C89   O36   A    
C13   C79   S    
C27   C54   S    
C48   C57   S    
Cr9   O49   S    
C29   C76   S    
C66   C70   S    
C51   O29   A    
Cr12  O27   S    
C15   C19   S    
C22   C35   S    
C107  N2    S    
C86   O3    A    
C106  H25   S    
C31   C43   S    
C62   C67   S    
C19   C24   S    
C60   C69   T    
C105  N4    S    
Cr1   O14   S    
C75   O1    A    
C8    C42   S    
C38   C42   S    
C38   C39   S    
C56   H20   S    
C8    H54   S    
C14   C102  S    
Cr2   O10   S    
C20   C25   S    
Cr10  O11   S    
C61   C80   S    
C66   C74   T    
C96   C100  T    
C55   H19   S    
C56   C57   S    
C52   C95   S    
Cr3   O33   S    
C74   C92   S    
C104  N3    S    
C44   C56   S    
C86   O50   A    
Cr4   O8    S    
C5    H40   S    
Cr8   O22   S    
C108  N3    S    
Cr11  O48   S    
Cr3   O11   S    
C108  H32   S    
C107  H30   S    
Cr10  O47   S    
C16   C104  S    
C108  H33   S    
C12   C16   S    
C92   O39   A    
Cr1   O1    S    
C8    C9    S    
C6    C41   S    
C12   C78   S    
C46   C55   S    
Cr2   O6    S    
C3    H38   S    
C41   C46   S    
C4    H44   S    
C36   C46   S    
C11   H57   S    
C23   C27   S    
C49   C94   S    
C32   O20   A    
Cr2   O32   S    
C93   C99   T    
Cr7   O43   S    
C87   C105  S    
C16   C20   S    
C51   C96   S    
C23   H5    S    
C46   C85   S    
C20   C34   S    
C51   O25   A    
H36   N4    S    
C82   O42   A    
C45   C53   S    
C81   O41   A    
C82   O47   A    
Cr8   O44   S    
C3    H39   S    
C84   O52   A    
C103  N2    S    
Cr4   O13   S    
C80   O44   A    
C43   O21   A    
C1    O14   A    
C42   C57   S    
C97   C99   S    
Cr1   O40   S    
C54   C102  S    
C14   C98   S    
C48   C88   S    
C53   C55   S    
H27   N2    S    
C25   C29   S    
C40   C45   S    
Cr10  O50   S    
C19   H4    S    
C8    H55   S    
C102  N1    S    
Cr11  O21   S    
C27   C31   S    
C53   H18   S    
C47   C86   S    
C4    C40   S    
C36   C40   S    
C49   O22   A    
C73   C91   S    
C37   H15   S    
C19   C33   S    
C59   C68   T    
Cr2   O28   S    
C21   C34   S    
C94   C97   T    
Cr9   O19   S    
C85   O2    A    
H31   N3    S    
C88   O51   A    
C10   C44   S    
C29   C34   S    
Cr2   O2    S    
C75   C98   S    
C34   C104  S    
C18   C23   S    
C24   C28   S    
C5    H41   S    
Cr6   O23   S    
Cr8   O45   S    
Cr10  O20   S    
C31   C102  S    
Cr7   O39   S    
C35   C105  S    
C17   C105  S    
C32   O16   A    
Cr6   O38   S    
C91   O7    A    
C60   C81   S    
C17   H63   S    
C16   H62   S    
Cr5   O37   S    
C90   O6    A    
C75   O31   A    
Cr5   O10   S    
C40   C55   S    
C89   O5    A    
C13   C87   S    
C52   O26   A    
Cr12  O9    S    
C71   C89   S    
C4    H43   S    
C77   O32   A    
C11   H58   S    
C26   H8    S    
C64   C69   S    
C80   O40   A    
C14   H45   S    
C106  H24   S    
C1    O18   A    
C41   C53   S    
C6    C7    S    
Cr1   O36   S    
Cr4   O4    S    
Cr12  O52   S    
C9    H53   S    
C15   H56   S    
C83   O48   A    
C54   H1    S    
C64   C73   T    
C28   C33   S    
C26   C30   S    
C38   H16   S    
Cr6   O11   S    
Cr7   O17   S    
C91   O38   A    
C2    C24   S    
C27   H9    S    
C30   H13   S    
Cr6   O16   S    
C13   C26   S    
C9    H51   S    
C45   C84   S    
C11   H59   S    
C65   C103  S    
C37   C45   S    
C21   O15   A    
C65   H12   S    
C1    C35   S    
C79   O34   A    
C39   C47   S    
C50   O28   A    
C6    H50   S    
C88   O4    A    
H22   N1    S    
C7    H47   S    
C63   C68   S    
C36   C37   S    
C33   C103  S    
Cr7   O34   S    
C38   C48   S    
C7    H46   S    
Cr9   O24   S    
C17   C22   S    
C106  N1    S    
C4    C5    S    
C92   O8    A    
C36   H14   S    
Cr6   O42   S    
C50   C93   S    
Cr5   O41   S    
C39   C44   S    
C95   C101  T    
C57   H21   S    
C30   C35   S    
C49   O27   A    
C52   O30   A    
Cr12  O5    S    
C106  H26   S    
C20   H64   S    
C12   C25   S    
C10   H60   S    
C32   C33   S    
C21   O19   A    
C12   C76   S    
C28   C65   S    
C25   H7    S    
C2    C77   S    
C58   C83   S    
C5    H42   S    
C107  H28   S    
C28   H10   S    
Cr11  O51   S    
C29   H11   S    
C108  H35   S    
C83   O43   A    
Cr9   O46   S    
Cr12  O31   S    
Cr7   O13   S    
C100  C101  S    
Cr4   O35   S    
Cr5   O12   S    
C62   C71   T    
C84   O45   A    
Cr10  O25   S    
C85   O49   A    
C42   C47   S    
Cr5   O15   S    
C37   C41   S    
C79   O35   A    
C77   O12   A    
C10   C11   S    
C78   O33   A    
C50   O24   A    
C13   C17   S    
C107  H29   S    
C76   H23   S    
C15   C103  S    
C58   C67   T    
C87   H34   S    
C23   C98   S    
C63   C72   T    
Cr11  O26   S    
C22   C26   S    
C3    H37   S    
C10   H61   S    
Cr4   O30   S    
C81   O46   A    
C54   C98   S    
C9    H52   S    
C18   C31   S    
Cr3   O29   S    
C72   C90   S    
C30   C87   S    
C78   O23   A    
Cr8   O18   S    
Cr9   O10   S    
C44   C48   S    
Cr3   O7    S    
C47   C56   S    
C6    H49   S    
C22   H2    S    
