data_mof_unit_7406.cif
_audit_creation_date              2012-10-26T21:03:14-0400
_audit_creation_method            fapswitch 2.2
_symmetry_space_group_name_H-M    P1
_symmetry_Int_Tables_number       1
_space_group_crystal_system       triclinic
_cell_length_a                    14.405848
_cell_length_b                    8.824717
_cell_length_c                    7.734021
_cell_angle_alpha                 104.647544
_cell_angle_beta                  97.563543
_cell_angle_gamma                 101.099818
_cell_volume                      916.468658365

loop_
_atom_site_label
_atom_site_type_symbol
_atom_type_description
_atom_site_fract_x
_atom_site_fract_y
_atom_site_fract_z
_atom_type_partial_charge
C1    C     C_R   0.497087 0.199203 0.451522 0.519290
C2    C     C_1   0.957552 0.500309 0.503096 -0.009585
C3    C     C_2   0.495530 0.029586 0.427281 -0.150465
C4    C     C_2   0.504470 0.970414 0.572719 -0.150464
C5    C     C_R   0.394549 0.306565 0.942759 0.200485
C6    C     C_R   0.344029 0.213715 0.045301 -0.064150
C7    C     C_R   0.280731 0.061481 0.973590 -0.156765
C8    C     C_R   0.255519 0.992346 0.789081 -0.098650
C9    C     C_R   0.289533 0.080649 0.678463 -0.165149
C10   C     C_R   0.353054 0.233064 0.752784 -0.077007
C11   C     C_R   0.605451 0.693434 0.057241 0.200485
C12   C     C_R   0.502913 0.800797 0.548478 0.519290
C13   C     C_R   0.655972 0.786284 0.954699 -0.064150
C14   C     C_R   0.719271 0.938516 0.026409 -0.156766
C15   C     C_R   0.744484 0.007650 0.210918 -0.098650
C16   C     C_R   0.710469 0.919348 0.321537 -0.165150
C17   C     C_R   0.646947 0.766935 0.247216 -0.077006
C18   C     C_R   0.331098 0.499284 0.495687 0.513125
C19   C     C_R   0.668902 0.500715 0.504313 0.513125
C20   C     C_1   0.228069 0.498781 0.488987 -0.040742
C21   C     C_1   0.771931 0.501219 0.511013 -0.040741
C22   C     C_1   0.142770 0.499028 0.490688 -0.048943
C23   C     C_1   0.857230 0.500972 0.509312 -0.048942
C24   C     C_1   0.042448 0.499691 0.496904 -0.009585
Cu1   Cu    Cu3+1 0.509570 0.517380 0.684380 0.907148
Cu2   Cu    Cu3+1 0.490430 0.482620 0.315620 0.907148
H1    H     H_    0.486949 0.953158 0.289162 0.149245
H2    H     H_    0.793673 0.124982 0.267639 0.133384
H3    H     H_    0.734643 0.968465 0.467757 0.103439
H4    H     H_    0.639294 0.725689 0.358174 0.174577
H5    H     H_    0.513051 0.046842 0.710838 0.149246
H6    H     H_    0.346098 0.246042 0.185002 0.172842
H7    H     H_    0.249580 0.998212 0.063307 0.107032
H8    H     H_    0.206331 0.875012 0.732360 0.133383
H9    H     H_    0.265359 0.031532 0.532242 0.103440
H10   H     H_    0.360706 0.274311 0.641826 0.174577
H11   H     H_    0.653901 0.753958 0.814998 0.172842
H12   H     H_    0.750423 0.001785 0.936693 0.107032
N1    N     N_2   0.476020 0.456430 0.038520 -0.139028
N2    N     N_2   0.523980 0.543570 0.961480 -0.139028
O1    O     O_R   0.506220 0.286130 0.619770 -0.511474
O2    O     O_R   0.493780 0.713870 0.380230 -0.511474
O3    O     O_R   0.490060 0.256780 0.308370 -0.511818
O4    O     O_R   0.509940 0.743220 0.691630 -0.511819
O5    O     O_R   0.384130 0.514680 0.655740 -0.497954
O6    O     O_R   0.615870 0.485320 0.344260 -0.497954
O7    O     O_R   0.367980 0.485330 0.344330 -0.508837
O8    O     O_R   0.632020 0.514670 0.655670 -0.508837

loop_
_geom_bond_atom_site_label_1
_geom_bond_atom_site_label_2
_ccdc_geom_bond_type
C8    C9    A    
C6    H6    S    
C6    C7    A    
C14   H12   S    
C11   C13   A    
C9    C10   A    
C13   H11   S    
C18   O7    A    
C2    C23   S    
C3    H1    S    
C16   H3    S    
C19   O6    A    
C5    C10   A    
C12   O4    A    
C8    H8    S    
C13   C14   A    
C17   H4    S    
C7    H7    S    
Cu1   O8    S    
C15   H2    S    
C5    C6    A    
Cu2   O7    S    
Cu1   O4    S    
C1    O1    A    
C19   C21   S    
C20   C22   T    
Cu2   O3    S    
C18   C20   S    
C5    N1    S    
Cu1   N2    S    
C2    C24   T    
C11   N2    S    
C22   C24   S    
Cu2   N1    S    
C4    H5    S    
C4    C12   S    
Cu2   O6    S    
C3    C4    D    
C18   O5    A    
Cu1   O5    S    
C7    C8    A    
Cu2   O2    S    
Cu1   O1    S    
N1    N2    D    
C9    H9    S    
C14   C15   A    
C11   C17   A    
C12   O2    A    
C1    C3    S    
Cu1   Cu2   S    
C19   O8    A    
C21   C23   T    
C1    O3    A    
C15   C16   A    
C16   C17   A    
C10   H10   S    
