data_mof_unit_35696.cif
_audit_creation_date              2012-12-10T16:53:30-0500
_audit_creation_method            fapswitch 2.2
_symmetry_space_group_name_H-M    P1
_symmetry_Int_Tables_number       1
_space_group_crystal_system       triclinic
_cell_length_a                    7.878569
_cell_length_b                    8.550174
_cell_length_c                    13.694315
_cell_angle_alpha                 93.217589
_cell_angle_beta                  79.577913
_cell_angle_gamma                 93.446214
_cell_volume                      904.669210316

loop_
_atom_site_label
_atom_site_type_symbol
_atom_type_description
_atom_site_fract_x
_atom_site_fract_y
_atom_site_fract_z
_atom_type_partial_charge
C1    C     C_R   0.545551 0.794217 0.497562 0.954302
C2    C     C_1   0.554606 0.477877 0.123059 -0.048078
C3    C     C_2   0.569512 0.957763 0.496155 -0.365424
C4    C     C_2   0.430488 0.042237 0.503845 -0.365418
C5    C     C_R   0.273263 0.583515 0.041992 0.147943
C6    C     C_R   0.225246 0.737133 0.033618 -0.156959
C7    C     C_R   0.068483 0.788191 0.087147 -0.150753
C8    C     C_R   0.958012 0.685719 0.148226 -0.088017
C9    C     C_R   0.003868 0.531909 0.155394 -0.095229
C10   C     C_R   0.160892 0.480776 0.102709 -0.126307
C11   C     C_R   0.726709 0.416349 0.958015 0.147923
C12   C     C_R   0.454449 0.205783 0.502438 0.954300
C13   C     C_R   0.839037 0.519046 0.897244 -0.126322
C14   C     C_R   0.996078 0.467911 0.844585 -0.095266
C15   C     C_R   0.041999 0.314138 0.851836 -0.088050
C16   C     C_R   0.931572 0.211708 0.912965 -0.150754
C17   C     C_R   0.774792 0.262771 0.966468 -0.156971
C18   C     C_R   0.472471 0.504602 0.686259 0.887993
C19   C     C_R   0.527528 0.495393 0.313742 0.887972
C20   C     C_1   0.542429 0.485721 0.210540 -0.180769
C21   C     C_1   0.457559 0.514234 0.789462 -0.180769
C22   C     C_2   0.565032 0.472750 0.018985 -0.030524
C23   C     C_2   0.434940 0.527127 0.981017 -0.030530
C24   C     C_1   0.445371 0.522038 0.876943 -0.048099
H1    H     H_    0.701116 0.008069 0.488811 0.206363
H2    H     H_    0.163538 0.274613 0.810700 0.134522
H3    H     H_    0.967844 0.093073 0.919317 0.132410
H4    H     H_    0.690918 0.182916 0.014433 0.129479
H5    H     H_    0.298884 0.991931 0.511189 0.206364
H6    H     H_    0.309164 0.817026 0.985700 0.129477
H7    H     H_    0.032265 0.906861 0.080864 0.132416
H8    H     H_    0.836488 0.725244 0.189385 0.134524
H9    H     H_    0.917404 0.451403 0.200964 0.171260
H10   H     H_    0.193625 0.360638 0.107883 0.138494
H11   H     H_    0.806264 0.639162 0.892013 0.138533
H12   H     H_    0.082505 0.548388 0.798975 0.171299
I1    I     I_    0.056808 0.281548 0.374167 -0.291069
I2    I     I_    0.943193 0.718455 0.625831 -0.291072
N1    N     N_2   0.954190 0.457600 0.473930 0.029520
N2    N     N_2   0.045810 0.542400 0.526070 0.029508
O1    O     O_R   0.388300 0.738660 0.506400 -0.602915
O2    O     O_R   0.611700 0.261340 0.493600 -0.602918
O3    O     O_R   0.679920 0.711490 0.489690 -0.601838
O4    O     O_R   0.320080 0.288510 0.510310 -0.601838
O5    O     O_R   0.333200 0.515510 0.649910 -0.627120
O6    O     O_R   0.666800 0.484490 0.350090 -0.627120
O7    O     O_R   0.624820 0.488340 0.633200 -0.586101
O8    O     O_R   0.375180 0.511660 0.366800 -0.586086
Zn1   Zn    Zn3+2 0.305280 0.518140 0.511160 1.018859
Zn2   Zn    Zn3+2 0.694720 0.481860 0.488840 1.018855

loop_
_geom_bond_atom_site_label_1
_geom_bond_atom_site_label_2
_ccdc_geom_bond_type
O4    Zn1   S    
C2    C22   S    
C9    H9    S    
C23   C24   S    
O3    Zn2   S    
C6    C7    A    
C4    C12   S    
C18   C21   S    
C9    C10   A    
O6    Zn2   S    
C11   C22   S    
C19   C20   S    
C5    C23   S    
O5    Zn1   S    
C18   O7    A    
N1    Zn2   S    
C16   H3    S    
C19   O6    A    
C5    C10   A    
I1    N1    S    
C13   C14   A    
I2    N2    S    
C11   C13   A    
N2    Zn1   S    
C16   C17   A    
O2    Zn2   S    
C10   H10   S    
O1    Zn1   S    
O8    Zn1   S    
C6    H6    S    
C13   H11   S    
O7    Zn2   S    
C14   H12   S    
C5    C6    A    
C7    H7    S    
C2    C20   T    
C15   C16   A    
C8    H8    S    
C18   O5    A    
C7    C8    A    
C3    H1    S    
C12   O4    A    
C21   C24   T    
C1    O1    A    
N1    N2    D    
C22   C23   D    
C11   C17   A    
C15   H2    S    
C12   O2    A    
C19   O8    A    
C14   C15   A    
C17   H4    S    
C1    O3    A    
C3    C4    D    
C4    H5    S    
C8    C9    A    
C1    C3    S    
