data_mof_unit_66483.cif
_audit_creation_date              2012-12-10T19:35:24-0500
_audit_creation_method            fapswitch 2.2
_symmetry_space_group_name_H-M    P1
_symmetry_Int_Tables_number       1
_space_group_crystal_system       triclinic
_cell_length_a                    13.44233
_cell_length_b                    15.851337
_cell_length_c                    17.128474
_cell_angle_alpha                 83.649404
_cell_angle_beta                  90.124797
_cell_angle_gamma                 109.924308
_cell_volume                      3407.73792095

loop_
_atom_site_label
_atom_site_type_symbol
_atom_type_description
_atom_site_fract_x
_atom_site_fract_y
_atom_site_fract_z
_atom_type_partial_charge
C1    C     C_R   0.498824 0.510294 0.348547 0.835019
C2    C     C_R   0.981828 0.540046 0.511291 0.097430
C3    C     C_R   0.872291 0.516162 0.530117 0.076084
C4    C     C_R   0.030073 0.473023 0.525694 0.096257
C5    C     C_R   0.971986 0.387386 0.566662 0.062999
C6    C     C_R   0.868372 0.369525 0.593502 -0.187522
C7    C     C_R   0.819449 0.433115 0.576177 -0.183688
C8    C     C_R   0.134038 0.488074 0.499523 -0.321441
C9    C     C_R   0.123920 0.338997 0.558201 0.619819
C10   C     C_R   0.819271 0.576895 0.503524 -0.119125
C11   C     C_R   0.496540 0.515775 0.262220 -0.154455
C12   C     C_R   0.702937 0.547724 0.501739 0.799874
C13   C     C_R   0.525009 0.452331 0.224980 -0.218568
C14   C     C_R   0.524653 0.454870 0.143677 -0.239217
C15   C     C_R   0.495444 0.521313 0.097680 0.275853
C16   C     C_R   0.467054 0.584773 0.134190 0.581043
C17   C     C_R   0.466428 0.582410 0.216005 -0.194909
C18   C     C_R   0.519477 0.555723 0.857301 -0.191728
C19   C     C_R   0.517735 0.561806 0.775848 0.585123
C20   C     C_R   0.506390 0.472378 0.902392 0.289219
C21   C     C_R   0.502964 0.484517 0.737606 -0.163143
C22   C     C_R   0.491865 0.401868 0.782597 -0.288500
C23   C     C_R   0.500328 0.489705 0.651481 0.844104
C24   C     C_R   0.494051 0.396180 0.864297 -0.175159
C25   C     C_R   0.552111 0.262438 0.460964 0.049256
C26   C     C_R   0.549414 0.172639 0.463199 -0.276249
C27   C     C_R   0.478742 0.104202 0.516388 0.364285
C28   C     C_R   0.413141 0.129518 0.565759 -0.261481
C29   C     C_R   0.418427 0.220046 0.561635 0.079330
C30   C     C_R   0.451152 0.828872 0.537064 0.420750
C31   C     C_R   0.448145 0.738726 0.539401 -0.045236
C32   C     C_R   0.521415 0.897495 0.483715 0.165704
C33   C     C_R   0.581228 0.781051 0.437922 -0.042826
C34   C     C_R   0.297072 0.451786 0.504347 0.847143
C35   C     C_R   0.586312 0.871932 0.434136 0.423298
C36   C     C_R   0.018885 0.320916 0.581689 -0.240389
C37   C     C_R   0.182423 0.423686 0.518190 -0.167652
C38   C     C_R   0.878398 0.665481 0.471941 -0.197879
C39   C     C_R   0.987806 0.692579 0.462068 0.017883
C40   C     C_R   0.039118 0.630310 0.479978 -0.200563
Cu1   Cu    Cu3+1 0.505120 0.585970 0.496130 0.988188
Cu2   Cu    Cu3+1 0.494880 0.414030 0.503870 0.975214
H1    H     H_    0.531550 0.616584 0.884806 0.207571
H2    H     H_    0.481093 0.341398 0.754770 0.193696
H3    H     H_    0.548082 0.405305 0.117101 0.190817
H4    H     H_    0.484871 0.331928 0.898174 0.172111
H5    H     H_    0.548745 0.400886 0.258770 0.181971
H6    H     H_    0.357849 0.079106 0.607468 0.184952
H7    H     H_    0.824579 0.305816 0.627723 0.156756
H8    H     H_    0.367415 0.238408 0.600128 0.179336
H9    H     H_    0.602062 0.157407 0.423706 0.185775
H10   H     H_    0.606525 0.314398 0.419968 0.140585
H11   H     H_    0.974899 0.255604 0.613315 0.175792
H12   H     H_    0.179946 0.549849 0.464458 0.174374
H13   H     H_    0.839311 0.713525 0.453705 0.173687
H14   H     H_    0.124074 0.655230 0.471167 0.140294
H15   H     H_    0.740780 0.416939 0.601585 0.171462
N1    N     N_2   0.494899 0.528083 0.014569 -0.176546
N2    N     N_2   0.506115 0.462935 0.985689 -0.233960
N3    N     N_R   0.487180 0.284900 0.509690 -0.180426
N4    N     N_2   0.470365 0.010669 0.522742 -0.116750
N5    N     N_2   0.530123 0.991432 0.477125 -0.154927
N6    N     N_R   0.512820 0.715120 0.490310 -0.272652
O1    O     O_R   0.504790 0.580580 0.382450 -0.588277
O2    O     O_R   0.496140 0.435390 0.388990 -0.583935
O3    O     O_R   0.657420 0.608020 0.495150 -0.578149
O4    O     O_R   0.648770 0.462830 0.501690 -0.599095
O5    O     O_R   0.503860 0.564610 0.611010 -0.526895
O6    O     O_R   0.495210 0.419420 0.617550 -0.607181
O7    O     O_R   0.351230 0.537170 0.498310 -0.611824
O8    O     O_R   0.342580 0.391980 0.504850 -0.524756
F1    F     F_    0.169066 0.275263 0.577648 -0.659125
F2    F     F_    0.438625 0.648613 0.089396 -0.626433
C41   C     C_1   0.431342 0.647266 0.250400 0.402927
N7    N     N_1   0.403164 0.699185 0.277810 -0.252901
C42   C     C_1   0.374282 0.671947 0.594890 0.534487
N8    N     N_1   0.314468 0.618963 0.639689 -0.255841
F3    F     F_    0.385266 0.848095 0.586855 -0.622645
C43   C     C_1   0.648767 0.758916 0.384660 0.456656
N9    N     N_1   0.703071 0.741794 0.341306 -0.286025
F4    F     F_    0.654702 0.935880 0.381662 -0.620291
C44   C     C_1   0.047574 0.784233 0.430872 0.288607
N10   N     N_1   0.095618 0.857840 0.405841 -0.219634
F5    F     F_    0.531528 0.643697 0.735071 -0.637734

loop_
_geom_bond_atom_site_label_1
_geom_bond_atom_site_label_2
_ccdc_geom_bond_type
C34   C37   S    
Cu1   Cu2   S    
C23   O6    A    
C1    C11   S    
C9    F1    S    
C4    C8    A    
C35   F4    S    
C26   C27   A    
C21   C22   A    
C28   C29   A    
C19   C21   A    
C3    C7    A    
C38   C39   A    
C15   C16   A    
C5    C36   A    
C18   C19   A    
C36   H11   S    
C27   N4    S    
C11   C17   A    
C38   H13   S    
C20   C24   A    
C16   C17   A    
C40   H14   S    
Cu2   O2    S    
C1    O2    A    
C25   N3    A    
C14   H3    S    
C34   O7    A    
C13   C14   A    
Cu1   O5    S    
C29   H8    S    
C12   O4    A    
C22   H2    S    
C41   N7    T    
C16   F2    S    
C32   C35   A    
C31   N6    A    
C42   N8    T    
Cu2   N3    S    
C39   C40   A    
C13   H5    S    
C33   C43   S    
C25   C26   A    
C12   O3    A    
Cu2   O6    S    
C23   O5    A    
C2    C4    A    
C9    C36   A    
C29   N3    A    
C30   C31   A    
C33   N6    A    
C9    C37   A    
C20   N2    S    
C6    C7    A    
C10   C12   S    
C21   C23   S    
Cu2   O4    S    
C15   N1    S    
C22   C24   A    
C8    C37   A    
Cu1   N6    S    
C8    H12   S    
C19   F5    S    
C1    O1    A    
C28   H6    S    
C17   C41   S    
C39   C44   S    
C4    C5    A    
Cu1   O3    S    
C10   C38   A    
C24   H4    S    
C2    C3    A    
N1    N2    D    
C25   H10   S    
C32   N5    S    
C3    C10   A    
C26   H9    S    
C30   C32   A    
C11   C13   A    
C31   C42   S    
C5    C6    A    
Cu2   O8    S    
C33   C35   A    
C18   C20   A    
C6    H7    S    
N4    N5    D    
C43   N9    T    
C30   F3    S    
C2    C40   A    
C44   N10   T    
C27   C28   A    
C14   C15   A    
Cu1   O1    S    
C18   H1    S    
C34   O8    A    
C7    H15   S    
Cu1   O7    S    
