data_mof_unit_64404.cif
_audit_creation_date              2012-10-26T18:57:59-0400
_audit_creation_method            fapswitch 2.2
_symmetry_space_group_name_H-M    P1
_symmetry_Int_Tables_number       1
_space_group_crystal_system       triclinic
_cell_length_a                    15.11557
_cell_length_b                    13.866725
_cell_length_c                    15.985182
_cell_angle_alpha                 90.000014
_cell_angle_beta                  90.160367
_cell_angle_gamma                 89.999984
_cell_volume                      3350.53621045

loop_
_atom_site_label
_atom_site_type_symbol
_atom_type_description
_atom_site_fract_x
_atom_site_fract_y
_atom_site_fract_z
_atom_type_partial_charge
C1    C     C_R   0.329880 0.499994 0.499949 0.558068
C2    C     C_R   0.456728 0.790596 0.438432 0.060121
C3    C     C_R   0.432192 0.209335 0.463239 0.056669
C4    C     C_R   0.543272 0.790596 0.561568 0.060121
C5    C     C_R   0.500000 0.054643 0.500000 0.024002
C6    C     C_R   0.500000 0.945286 0.500000 0.027807
C7    C     C_R   0.499925 0.500003 0.341164 0.555864
C8    C     C_R   0.500075 0.500003 0.658836 0.555864
C9    C     C_R   0.500029 0.587568 0.956340 -0.095514
C10   C     C_R   0.499972 0.412517 0.043659 -0.095104
C11   C     C_R   0.499969 0.587568 0.043660 -0.095514
C12   C     C_R   0.670120 0.499994 0.500051 0.558067
C13   C     C_R   0.500030 0.412517 0.956341 -0.095104
C14   C     C_R   0.500059 0.500042 0.912703 0.040572
C15   C     C_R   0.499941 0.500042 0.087297 0.040572
C16   C     C_1   0.500091 0.500035 0.823157 -0.046428
C17   C     C_1   0.499909 0.500035 0.176843 -0.046428
C18   C     C_1   0.499904 0.500018 0.251959 -0.013990
C19   C     C_1   0.500096 0.500018 0.748041 -0.013990
C20   C     C_R   0.094925 0.577359 0.464237 0.391251
C21   C     C_R   0.904824 0.422515 0.464369 0.389962
C22   C     C_R   0.905075 0.577358 0.535762 0.391251
C23   C     C_R   0.048502 0.499942 0.499966 0.096527
C24   C     C_R   0.095176 0.422513 0.535627 0.389962
C25   C     C_R   0.186939 0.577714 0.465111 -0.104926
C26   C     C_R   0.812821 0.422174 0.465319 -0.108293
C27   C     C_R   0.813061 0.577712 0.534888 -0.104926
C28   C     C_R   0.187178 0.422172 0.534678 -0.108292
C29   C     C_R   0.233394 0.499963 0.499908 -0.108343
C30   C     C_R   0.766606 0.499963 0.500091 -0.108344
C31   C     C_R   0.951497 0.499942 0.500031 0.096528
C32   C     C_R   0.569437 0.107879 0.536890 -0.128285
C33   C     C_R   0.456460 0.892051 0.436909 -0.125703
C34   C     C_R   0.430563 0.107879 0.463110 -0.128285
C35   C     C_R   0.543540 0.892051 0.563091 -0.125703
C36   C     C_R   0.567808 0.209335 0.536761 0.056669
Cu1   Cu    Cu3+1 0.500000 0.596430 0.500000 0.966688
Cu2   Cu    Cu3+1 0.500000 0.403570 0.500000 0.962639
F1    F     F_    0.051242 0.651596 0.427215 -0.571635
F2    F     F_    0.948242 0.348267 0.427314 -0.572693
F3    F     F_    0.948758 0.651593 0.572786 -0.571636
F4    F     F_    0.051758 0.348264 0.572678 -0.572693
H1    H     H_    0.221868 0.637840 0.437223 0.164922
H2    H     H_    0.422363 0.751304 0.389767 0.128181
H3    H     H_    0.378564 0.248483 0.433943 0.136542
H4    H     H_    0.577637 0.751304 0.610233 0.128181
H5    H     H_    0.499949 0.655553 0.077077 0.120803
H6    H     H_    0.500050 0.344531 0.922925 0.122382
H7    H     H_    0.500048 0.655553 0.922923 0.120803
H8    H     H_    0.499953 0.344531 0.077075 0.122382
H9    H     H_    0.777706 0.362037 0.437477 0.169250
H10   H     H_    0.778132 0.637837 0.562778 0.164922
H11   H     H_    0.222294 0.362035 0.562520 0.169250
H12   H     H_    0.625671 0.071938 0.564909 0.110463
H13   H     H_    0.423172 0.927990 0.385698 0.101715
H14   H     H_    0.374329 0.071938 0.435092 0.110463
H15   H     H_    0.576828 0.927990 0.614302 0.101715
H16   H     H_    0.621436 0.248483 0.566057 0.136542
N1    N     N_R   0.500000 0.258690 0.500000 -0.226399
N2    N     N_R   0.500000 0.741310 0.500000 -0.223504
O1    O     O_R   0.371460 0.581430 0.500010 -0.494381
O2    O     O_R   0.628540 0.418570 0.499990 -0.508873
O3    O     O_R   0.628540 0.581430 0.499990 -0.494381
O4    O     O_R   0.371460 0.418570 0.500010 -0.508873
O5    O     O_R   0.499980 0.581410 0.380310 -0.503361
O6    O     O_R   0.500020 0.418590 0.619690 -0.491378
O7    O     O_R   0.500020 0.581410 0.619690 -0.503362
O8    O     O_R   0.499980 0.418590 0.380310 -0.491378

loop_
_geom_bond_atom_site_label_1
_geom_bond_atom_site_label_2
_ccdc_geom_bond_type
C33   H13   S    
C13   H6    S    
Cu1   O1    S    
C23   C24   A    
C20   C23   A    
C34   H14   S    
Cu1   Cu2   S    
C22   F3    S    
C7    O5    A    
C24   F4    S    
C11   H5    S    
C3    N1    A    
C12   O2    A    
C6    C33   A    
C35   H15   S    
C7    C18   S    
C5    C34   A    
C25   H1    S    
C1    C29   S    
C17   C18   T    
C4    C35   A    
C10   H8    S    
C4    H4    S    
C13   C14   A    
C27   H10   S    
C27   C30   A    
C8    O6    A    
C9    C11   A    
C4    N2    A    
C21   C31   A    
C21   F2    S    
C16   C19   T    
C32   C36   A    
C2    C33   A    
C32   H12   S    
C28   C29   A    
Cu1   O3    S    
C21   C26   A    
Cu2   O8    S    
C9    C14   A    
C26   C30   A    
Cu2   O4    S    
C22   C27   A    
C25   C29   A    
C5    C6    S    
C14   C16   S    
Cu1   N2    S    
C20   C25   A    
C36   H16   S    
Cu2   N1    S    
C8    C19   S    
C1    O4    A    
Cu1   O7    S    
C2    N2    A    
C9    H7    S    
C6    C35   A    
C8    O7    A    
C15   C17   S    
C22   C31   A    
C2    H2    S    
C12   O3    A    
C20   F1    S    
Cu2   O6    S    
C3    C34   A    
C12   C30   S    
C7    O8    A    
C26   H9    S    
C36   N1    A    
C11   C15   A    
C28   H11   S    
C3    H3    S    
C5    C32   A    
C24   C28   A    
Cu1   O5    S    
C1    O1    A    
C10   C15   A    
Cu2   O2    S    
C10   C13   A    
C23   C31   S    
