data_mof_unit_66108.cif
_audit_creation_date              2012-12-10T19:27:03-0500
_audit_creation_method            fapswitch 2.2
_symmetry_space_group_name_H-M    P1
_symmetry_Int_Tables_number       1
_space_group_crystal_system       triclinic
_cell_length_a                    30.489069
_cell_length_b                    30.489204
_cell_length_c                    27.7299
_cell_angle_alpha                 89.997968
_cell_angle_beta                  90.00427
_cell_angle_gamma                 89.996007
_cell_volume                      25777.3667271

loop_
_atom_site_label
_atom_site_type_symbol
_atom_type_description
_atom_site_fract_x
_atom_site_fract_y
_atom_site_fract_z
_atom_type_partial_charge
C1    C     C_R   0.118029 0.381957 0.249995 -0.102504
C2    C     C_R   0.881987 0.381989 0.249999 -0.101625
C3    C     C_1   0.999947 0.499986 0.525491 0.038373
C4    C     C_1   0.999988 0.499947 0.974508 0.038376
C5    C     C_1   0.999988 0.499956 0.025486 0.035528
C6    C     C_1   0.500053 0.000013 0.974508 0.038188
C7    C     C_1   0.500044 0.000011 0.025486 0.035331
C8    C     C_R   0.108063 0.339241 0.234004 0.117493
C9    C     C_R   0.869679 0.638958 0.793527 0.129974
C10   C     C_R   0.339192 0.891965 0.234197 0.116741
C11   C     C_R   0.630986 0.138357 0.706366 0.122878
C12   C     C_R   0.891903 0.660752 0.234023 0.117504
C13   C     C_R   0.381761 0.118127 0.750018 -0.108334
C14   C     C_R   0.130734 0.361396 0.793538 0.123110
C15   C     C_R   0.660756 0.108080 0.234008 0.117611
C16   C     C_R   0.393378 0.837286 0.743999 0.123717
C17   C     C_R   0.106623 0.662714 0.755994 0.124132
C18   C     C_R   0.854826 0.376410 0.290629 0.124341
C19   C     C_R   0.369317 0.138649 0.706469 0.123010
C20   C     C_R   0.623556 0.854802 0.290627 0.124581
C21   C     C_R   0.868990 0.361664 0.793640 0.122870
C22   C     C_R   0.145260 0.623499 0.290576 0.123931
C23   C     C_R   0.630310 0.861032 0.706475 0.129949
C24   C     C_R   0.618008 0.881987 0.250008 -0.101356
C25   C     C_R   0.376428 0.145193 0.290607 0.124101
C26   C     C_R   0.638809 0.869486 0.793492 0.122745
C27   C     C_R   0.354800 0.123555 0.209373 0.124587
C28   C     C_R   0.861664 0.368986 0.706359 0.122915
C29   C     C_R   0.123497 0.645260 0.209426 0.123930
C30   C     C_R   0.361192 0.130482 0.793563 0.130095
C31   C     C_R   0.645192 0.876426 0.209395 0.124093
C32   C     C_R   0.162715 0.606622 0.744012 0.124114
C33   C     C_R   0.876408 0.354826 0.209368 0.124342
C34   C     C_R   0.608082 0.160755 0.265995 0.117611
C35   C     C_R   0.881807 0.381805 0.750000 -0.112255
C36   C     C_R   0.337286 0.893376 0.755995 0.123703
C37   C     C_R   0.839241 0.608063 0.265994 0.117488
C38   C     C_R   0.138762 0.369468 0.706427 0.130149
C39   C     C_R   0.391966 0.839192 0.265800 0.116741
C40   C     C_R   0.638358 0.130987 0.793637 0.122914
C41   C     C_R   0.160753 0.391904 0.265979 0.117511
C42   C     C_R   0.861200 0.630526 0.706510 0.122785
C43   C     C_R   0.140698 0.307142 0.233640 -0.184742
C44   C     C_R   0.837287 0.671302 0.793219 -0.185027
C45   C     C_R   0.307100 0.859327 0.233839 -0.185853
C46   C     C_R   0.118009 0.618010 0.250001 -0.099794
C47   C     C_R   0.663382 0.170688 0.706699 -0.186241
C48   C     C_R   0.859257 0.692840 0.233672 -0.184802
C49   C     C_R   0.163135 0.329066 0.793198 -0.184309
C50   C     C_R   0.692847 0.140719 0.233650 -0.184696
C51   C     C_R   0.360798 0.805139 0.744052 -0.186686
C52   C     C_R   0.139205 0.694861 0.755941 -0.186424
C53   C     C_R   0.822235 0.344272 0.290203 -0.183015
C54   C     C_R   0.336916 0.170980 0.706808 -0.184243
C55   C     C_R   0.655691 0.822205 0.290208 -0.182926
C56   C     C_R   0.836595 0.329332 0.793307 -0.186210
C57   C     C_R   0.618124 0.881763 0.749982 -0.108087
C58   C     C_R   0.177852 0.655636 0.290149 -0.183454
C59   C     C_R   0.662701 0.828686 0.706783 -0.184937
C60   C     C_R   0.344283 0.177780 0.290175 -0.182980
C61   C     C_R   0.671148 0.837092 0.793152 -0.184163
C62   C     C_R   0.322203 0.155690 0.209793 -0.182922
C63   C     C_R   0.829333 0.336591 0.706692 -0.186238
C64   C     C_R   0.155634 0.677852 0.209853 -0.183447
C65   C     C_R   0.328857 0.162882 0.793253 -0.185080
C66   C     C_R   0.677779 0.844281 0.209826 -0.182978
C67   C     C_R   0.194862 0.639203 0.744067 -0.186390
C68   C     C_R   0.381987 0.118008 0.249992 -0.101347
C69   C     C_R   0.844270 0.322236 0.209792 -0.183024
C70   C     C_R   0.640721 0.192847 0.266352 -0.184702
C71   C     C_R   0.305140 0.860794 0.755942 -0.186664
C72   C     C_R   0.807142 0.640697 0.266358 -0.184741
C73   C     C_R   0.171097 0.337068 0.706737 -0.185179
C74   C     C_R   0.359328 0.807100 0.266160 -0.185841
C75   C     C_R   0.670690 0.163382 0.793306 -0.186262
C76   C     C_R   0.192840 0.359258 0.266331 -0.184802
C77   C     C_R   0.828862 0.662920 0.706851 -0.184198
C78   C     C_R   0.183027 0.316937 0.249983 0.053498
C79   C     C_R   0.282703 0.217259 0.249975 0.015364
C80   C     C_R   0.816883 0.683269 0.750045 0.048573
C81   C     C_R   0.316953 0.816953 0.250000 0.054499
C82   C     C_R   0.683205 0.183204 0.750003 0.050460
C83   C     C_R   0.816936 0.683026 0.250018 0.053499
C84   C     C_R   0.183273 0.316878 0.749958 0.048589
C85   C     C_R   0.683045 0.183044 0.250001 0.053405
C86   C     C_R   0.316800 0.816796 0.749998 0.050776
C87   C     C_R   0.183203 0.683201 0.750004 0.050492
C88   C     C_R   0.816992 0.316993 0.249998 0.050574
C89   C     C_R   0.316730 0.183120 0.750040 0.048272
C90   C     C_R   0.717317 0.782600 0.749947 0.012885
C91   C     C_R   0.682992 0.816980 0.250021 0.050607
C92   C     C_R   0.816795 0.316792 0.749999 0.050154
C93   C     C_R   0.183004 0.683005 0.250001 0.052043
C94   C     C_R   0.683116 0.816731 0.749958 0.048282
C95   C     C_R   0.316981 0.182993 0.249981 0.050601
C96   C     C_3   0.255204 0.322106 0.179986 -0.845662
C97   C     C_3   0.725162 0.657706 0.764452 -0.842980
C98   C     C_3   0.321934 0.744945 0.179769 -0.849301
C99   C     C_3   0.657485 0.275187 0.761679 -0.842641
C100  C     C_3   0.744736 0.677859 0.180035 -0.845551
C101  C     C_R   0.217277 0.717277 0.250001 0.014436
C102  C     C_3   0.275187 0.342395 0.762761 -0.832049
C103  C     C_3   0.677846 0.255261 0.180042 -0.845390
C104  C     C_3   0.291528 0.775805 0.841438 -0.842195
C105  C     C_3   0.224198 0.708481 0.841441 -0.840533
C106  C     C_3   0.739185 0.327788 0.188589 -0.842763
C107  C     C_3   0.342435 0.274976 0.762904 -0.842939
C108  C     C_3   0.672209 0.739205 0.188578 -0.843076
C109  C     C_3   0.724812 0.342514 0.761671 -0.842447
C110  C     C_3   0.260635 0.672382 0.188299 -0.845296
C111  C     C_3   0.657744 0.724955 0.764343 -0.831828
C112  C     C_R   0.881876 0.618237 0.750019 -0.107362
C113  C     C_R   0.782636 0.282633 0.750000 0.012044
C114  C     C_3   0.327738 0.260765 0.188524 -0.842758
C115  C     C_3   0.774838 0.842293 0.735548 -0.842749
C116  C     C_3   0.239207 0.172211 0.311423 -0.843046
C117  C     C_3   0.842516 0.224808 0.738331 -0.842473
C118  C     C_3   0.172384 0.760639 0.311704 -0.845306
C119  C     C_3   0.224818 0.157606 0.737206 -0.831898
C120  C     C_3   0.760766 0.827737 0.311482 -0.842787
C121  C     C_3   0.208477 0.724189 0.658564 -0.840573
C122  C     C_3   0.827793 0.239189 0.311406 -0.842758
C123  C     C_3   0.755267 0.177851 0.319958 -0.845401
C124  C     C_R   0.717259 0.782702 0.250027 0.015357
C125  C     C_3   0.275801 0.791517 0.658561 -0.842155
C126  C     C_3   0.822105 0.755201 0.320021 -0.845698
C127  C     C_3   0.157565 0.225020 0.737122 -0.843153
C128  C     C_3   0.244948 0.821938 0.320232 -0.849282
C129  C     C_3   0.775188 0.157482 0.738327 -0.842622
C130  C     C_3   0.177857 0.244737 0.319961 -0.845514
C131  C     C_3   0.842259 0.775046 0.735688 -0.831949
C132  C     C_R   0.282600 0.217319 0.750049 0.013041
C133  C     C_R   0.782721 0.282721 0.249998 0.015427
C134  C     C_R   0.217364 0.717362 0.750003 0.012059
C135  C     C_R   0.282639 0.782635 0.749999 0.012115
C136  C     C_R   0.717320 0.217319 0.250000 0.014746
C137  C     C_R   0.217401 0.282680 0.749949 0.012953
C138  C     C_R   0.782657 0.717296 0.250026 0.014680
C139  C     C_R   0.717365 0.217363 0.750003 0.011936
C140  C     C_R   0.381962 0.881962 0.249999 -0.102424
C141  C     C_R   0.282678 0.782678 0.250000 0.013892
C142  C     C_R   0.782683 0.717400 0.750056 0.012785
C143  C     C_R   0.217297 0.282658 0.249975 0.014686
C144  C     C_R   0.252945 0.285655 0.217335 0.143491
C145  C     C_R   0.738242 0.705379 0.756964 0.144710
C146  C     C_R   0.285588 0.747110 0.217243 0.144227
C147  C     C_R   0.705272 0.261927 0.755618 0.144212
C148  C     C_R   0.747003 0.714305 0.217387 0.143429
C149  C     C_R   0.261928 0.294670 0.756141 0.140218
C150  C     C_R   0.714310 0.252983 0.217377 0.143383
C151  C     C_R   0.618193 0.118193 0.750001 -0.111485
C152  C     C_R   0.270184 0.762620 0.794014 0.143843
C153  C     C_R   0.237383 0.729821 0.794016 0.143215
C154  C     C_R   0.745756 0.287030 0.219363 0.142847
C155  C     C_R   0.294690 0.261826 0.756201 0.144713
C156  C     C_R   0.712957 0.745754 0.219373 0.142966
C157  C     C_R   0.738072 0.294727 0.755615 0.144235
C158  C     C_R   0.254151 0.713055 0.219227 0.143233
C159  C     C_R   0.705396 0.738141 0.756907 0.140335
C160  C     C_R   0.286995 0.254209 0.219320 0.142827
C161  C     C_R   0.761758 0.794620 0.743040 0.144723
C162  C     C_R   0.881957 0.618029 0.250005 -0.102518
C163  C     C_R   0.245755 0.212958 0.280628 0.142956
C164  C     C_R   0.794729 0.238068 0.744386 0.144240
C165  C     C_R   0.213056 0.754153 0.280776 0.143235
C166  C     C_R   0.238074 0.205329 0.743850 0.140255
C167  C     C_R   0.754209 0.786994 0.280684 0.142841
C168  C     C_R   0.229820 0.737376 0.705988 0.143225
C169  C     C_R   0.787033 0.245758 0.280633 0.142839
C170  C     C_R   0.752986 0.214312 0.282622 0.143390
C171  C     C_R   0.262620 0.770176 0.705986 0.143834
C172  C     C_R   0.785654 0.752944 0.282669 0.143507
C173  C     C_R   0.118241 0.381871 0.749981 -0.107670
C174  C     C_R   0.205311 0.238173 0.743803 0.144698
C175  C     C_R   0.247111 0.785590 0.282758 0.144223
C176  C     C_R   0.761929 0.205269 0.744387 0.144211
C177  C     C_R   0.214305 0.247004 0.282612 0.143411
C178  C     C_R   0.794604 0.761859 0.743101 0.140297
C179  C     C_R   0.500004 0.000001 0.120812 0.843505
C180  C     C_R   0.500021 0.000002 0.879187 0.845658
C181  C     C_R   0.999998 0.499995 0.120811 0.843753
C182  C     C_R   0.999999 0.499979 0.879187 0.845780
C183  C     C_R   0.999979 0.499998 0.620813 0.845779
C184  C     C_R   0.618037 0.118036 0.250001 -0.102538
C185  C     C_R   0.999995 0.499999 0.379188 0.843751
C186  C     C_R   0.500001 0.000021 0.620813 0.845660
C187  C     C_R   0.500002 0.000005 0.379188 0.843509
C188  C     C_R   0.415868 0.915868 0.250000 0.868969
C189  C     C_R   0.584189 0.084190 0.750000 0.861081
C190  C     C_R   0.915868 0.584130 0.249999 0.869149
C191  C     C_R   0.084201 0.415829 0.749990 0.868145
C192  C     C_R   0.584132 0.084131 0.250000 0.869090
C193  C     C_R   0.415810 0.915811 0.750000 0.861012
C194  C     C_R   0.084130 0.415868 0.250000 0.869131
C195  C     C_R   0.381809 0.881809 0.749997 -0.111485
C196  C     C_R   0.915830 0.584200 0.750010 0.868354
C197  C     C_R   0.415799 0.084170 0.750010 0.867789
C198  C     C_R   0.584122 0.915879 0.250001 0.880189
C199  C     C_R   0.915810 0.415810 0.750000 0.860568
C200  C     C_R   0.084121 0.584122 0.250000 0.881131
C201  C     C_R   0.584169 0.915801 0.749990 0.867953
C202  C     C_R   0.415879 0.084122 0.249999 0.880167
C203  C     C_R   0.084190 0.584189 0.750000 0.861156
C204  C     C_R   0.915877 0.415877 0.250000 0.879865
C205  C     C_1   0.500007 0.000027 0.431001 -0.103115
C206  C     C_R   0.118192 0.618191 0.750002 -0.111426
C207  C     C_1   0.500007 0.000045 0.569004 -0.094938
C208  C     C_1   0.999973 0.499994 0.431000 -0.102866
C209  C     C_1   0.999955 0.499991 0.569004 -0.094720
C210  C     C_1   0.999993 0.499955 0.930996 -0.094715
C211  C     C_1   0.999992 0.499973 0.068999 -0.102867
C212  C     C_1   0.500045 0.000008 0.930996 -0.094942
C213  C     C_1   0.500027 0.000006 0.069000 -0.103115
C214  C     C_1   0.500012 0.000044 0.474514 0.035333
C215  C     C_1   0.500012 0.000053 0.525491 0.038191
C216  C     C_1   0.999956 0.499989 0.474514 0.035526
H1    H     H_    0.133099 0.274442 0.220857 0.177340
H2    H     H_    0.801083 0.340320 0.321285 0.177684
H3    H     H_    0.183195 0.698335 0.662025 0.251261
H4    H     H_    0.192111 0.753030 0.642070 0.244170
H5    H     H_    0.840979 0.205623 0.305988 0.247665
H6    H     H_    0.855052 0.261711 0.302344 0.253167
H7    H     H_    0.819557 0.243906 0.350040 0.244541
H8    H     H_    0.761574 0.191939 0.356199 0.247916
H9    H     H_    0.724504 0.158837 0.323495 0.252295
H10   H     H_    0.781978 0.154648 0.310563 0.244415
H11   H     H_    0.246958 0.807880 0.642068 0.244214
H12   H     H_    0.301654 0.816801 0.662019 0.251082
H13   H     H_    0.327586 0.186908 0.673430 0.176343
H14   H     H_    0.288609 0.766259 0.633428 0.245102
H15   H     H_    0.808004 0.761479 0.356261 0.247912
H16   H     H_    0.841126 0.724438 0.323541 0.252237
H17   H     H_    0.845303 0.781922 0.310657 0.244382
H18   H     H_    0.153347 0.208306 0.701881 0.244592
H19   H     H_    0.147458 0.202536 0.766558 0.245324
H20   H     H_    0.134249 0.252840 0.737548 0.250476
H21   H     H_    0.238743 0.807741 0.356444 0.246638
H22   H     H_    0.275725 0.840933 0.323734 0.251985
H23   H     H_    0.218215 0.845174 0.311011 0.244814
H24   H     H_    0.659622 0.801034 0.321281 0.177703
H25   H     H_    0.797467 0.147654 0.768071 0.244951
H26   H     H_    0.747392 0.134141 0.738749 0.250903
H27   H     H_    0.792165 0.152982 0.703280 0.244369
H28   H     H_    0.191961 0.238456 0.356202 0.247898
H29   H     H_    0.158830 0.275495 0.323482 0.252261
H30   H     H_    0.154663 0.218013 0.310593 0.244420
H31   H     H_    0.846113 0.791287 0.700121 0.243812
H32   H     H_    0.852576 0.797961 0.764642 0.245340
H33   H     H_    0.865654 0.747296 0.736345 0.254021
H34   H     H_    0.826967 0.313713 0.826758 0.176396
H35   H     H_    0.199073 0.659519 0.321188 0.176830
H36   H     H_    0.671861 0.812622 0.673428 0.176264
H37   H     H_    0.340343 0.198951 0.321244 0.177700
H38   H     H_    0.687205 0.827892 0.826501 0.176337
H39   H     H_    0.301031 0.159621 0.178721 0.177701
H40   H     H_    0.813712 0.326962 0.673241 0.176394
H41   H     H_    0.828118 0.687356 0.826575 0.176062
H42   H     H_    0.159517 0.699072 0.178815 0.176830
H43   H     H_    0.312921 0.172174 0.826637 0.176269
H44   H     H_    0.698950 0.840340 0.178758 0.177700
H45   H     H_    0.228979 0.630336 0.739182 0.175814
H46   H     H_    0.840318 0.301083 0.178710 0.177685
H47   H     H_    0.633129 0.225548 0.279138 0.177335
H48   H     H_    0.271023 0.869660 0.760832 0.175813
H49   H     H_    0.774442 0.633099 0.279140 0.177343
H50   H     H_    0.186994 0.327739 0.673343 0.176062
H51   H     H_    0.366959 0.774360 0.278800 0.177049
H52   H     H_    0.274359 0.866958 0.221199 0.177050
H53   H     H_    0.686328 0.172992 0.826753 0.176187
H54   H     H_    0.225546 0.366843 0.279108 0.177312
H55   H     H_    0.812814 0.672128 0.673501 0.176131
H56   H     H_    0.261485 0.308007 0.143745 0.247921
H57   H     H_    0.224441 0.341128 0.176464 0.252239
H58   H     H_    0.281924 0.345305 0.189356 0.244383
H59   H     H_    0.708850 0.653875 0.799982 0.244552
H60   H     H_    0.702341 0.647275 0.735456 0.245271
H61   H     H_    0.752979 0.634388 0.763939 0.250483
H62   H     H_    0.307737 0.738733 0.143558 0.246639
H63   H     H_    0.672992 0.186326 0.673252 0.176189
H64   H     H_    0.340925 0.775725 0.176263 0.251983
H65   H     H_    0.345175 0.718216 0.188993 0.244814
H66   H     H_    0.647656 0.297462 0.731933 0.244946
H67   H     H_    0.634144 0.247392 0.761260 0.250900
H68   H     H_    0.652988 0.292169 0.796724 0.244377
H69   H     H_    0.738455 0.691964 0.143795 0.247888
H70   H     H_    0.775495 0.658832 0.176514 0.252260
H71   H     H_    0.718012 0.654664 0.189400 0.244420
H72   H     H_    0.291837 0.346626 0.798038 0.243883
H73   H     H_    0.297758 0.352400 0.733365 0.245363
H74   H     H_    0.866842 0.725546 0.220896 0.177315
H75   H     H_    0.247428 0.365781 0.762209 0.254042
H76   H     H_    0.691932 0.261564 0.143799 0.247915
H77   H     H_    0.658831 0.224500 0.176509 0.252298
H78   H     H_    0.654646 0.281975 0.189435 0.244415
H79   H     H_    0.307892 0.746964 0.857931 0.244219
H80   H     H_    0.316810 0.801659 0.837977 0.251073
H81   H     H_    0.266270 0.788614 0.866569 0.245103
H82   H     H_    0.211394 0.733741 0.866574 0.245235
H83   H     H_    0.198341 0.683202 0.837982 0.251271
H84   H     H_    0.253039 0.692114 0.857934 0.244171
H85   H     H_    0.172503 0.313177 0.826586 0.176137
H86   H     H_    0.705620 0.340976 0.194009 0.247663
H87   H     H_    0.761709 0.355047 0.197646 0.253164
H88   H     H_    0.743896 0.319549 0.149954 0.244539
H89   H     H_    0.352561 0.297444 0.733460 0.245319
H90   H     H_    0.346635 0.291707 0.798138 0.244625
H91   H     H_    0.365746 0.247152 0.762516 0.250472
H92   H     H_    0.659016 0.705642 0.193980 0.247641
H93   H     H_    0.644949 0.761733 0.197630 0.253126
H94   H     H_    0.680462 0.743930 0.149949 0.244526
H95   H     H_    0.707843 0.347017 0.796722 0.244392
H96   H     H_    0.725548 0.133127 0.220864 0.177335
H97   H     H_    0.752607 0.365856 0.761235 0.250892
H98   H     H_    0.702526 0.352337 0.731932 0.244948
H99   H     H_    0.294224 0.659195 0.193542 0.247807
H100  H     H_    0.238157 0.645088 0.197364 0.253254
H101  H     H_    0.255786 0.680723 0.149710 0.243319
H102  H     H_    0.647419 0.702026 0.735410 0.245341
H103  H     H_    0.653904 0.708735 0.799922 0.243835
H104  H     H_    0.634348 0.752704 0.763679 0.254010
H105  H     H_    0.340929 0.294329 0.193929 0.247642
H106  H     H_    0.355002 0.238239 0.197573 0.253176
H107  H     H_    0.369665 0.771023 0.739162 0.175812
H108  H     H_    0.319479 0.256045 0.149895 0.244531
H109  H     H_    0.797665 0.852725 0.764538 0.245267
H110  H     H_    0.791144 0.846120 0.700013 0.244575
H111  H     H_    0.747023 0.865614 0.736065 0.250470
H112  H     H_    0.205644 0.159017 0.306018 0.247642
H113  H     H_    0.261736 0.144952 0.302374 0.253126
H114  H     H_    0.243931 0.180467 0.350052 0.244535
H115  H     H_    0.847017 0.207831 0.703284 0.244400
H116  H     H_    0.865857 0.252603 0.738759 0.250888
H117  H     H_    0.852340 0.202530 0.768076 0.244945
H118  H     H_    0.130338 0.728978 0.760825 0.175812
H119  H     H_    0.159196 0.794226 0.306456 0.247806
H120  H     H_    0.145092 0.738157 0.302642 0.253251
H121  H     H_    0.180727 0.755795 0.350293 0.243318
H122  H     H_    0.202263 0.147581 0.766610 0.245349
H123  H     H_    0.208150 0.153393 0.701935 0.243907
H124  H     H_    0.252581 0.134225 0.737720 0.254029
H125  H     H_    0.794330 0.840926 0.306080 0.247641
H126  H     H_    0.738241 0.855001 0.302433 0.253176
H127  H     H_    0.756044 0.819478 0.350110 0.244522
H128  H     H_    0.233735 0.711380 0.633432 0.245237
I1    I     I_    0.044877 0.321539 0.208349 -0.300142
I2    I     I_    0.860436 0.416349 0.353040 -0.287816
I3    I     I_    0.399590 0.124441 0.639236 -0.300387
I4    I     I_    0.583578 0.860387 0.353008 -0.291305
I5    I     I_    0.898702 0.376383 0.861053 -0.300902
I6    I     I_    0.139770 0.583435 0.352902 -0.299404
I7    I     I_    0.599590 0.874929 0.639409 -0.295959
I8    I     I_    0.416400 0.139619 0.353001 -0.288661
I9    I     I_    0.624810 0.899999 0.860646 -0.300616
I10   I     I_    0.360383 0.083576 0.146992 -0.291305
I11   I     I_    0.876378 0.398699 0.638947 -0.300585
I12   I     I_    0.900383 0.625047 0.860593 -0.300480
I13   I     I_    0.083430 0.639769 0.147100 -0.299346
I14   I     I_    0.375296 0.100007 0.860711 -0.295858
I15   I     I_    0.639618 0.916396 0.147001 -0.288658
I16   I     I_    0.183819 0.541087 0.731883 -0.308138
I17   I     I_    0.916344 0.360437 0.146957 -0.287866
I18   I     I_    0.544905 0.178473 0.291660 -0.299791
I19   I     I_    0.316181 0.958911 0.768130 -0.309235
I20   I     I_    0.821538 0.544877 0.291645 -0.300135
I21   I     I_    0.124594 0.399867 0.639255 -0.300360
I22   I     I_    0.455216 0.821388 0.291190 -0.304438
I23   I     I_    0.321387 0.955213 0.208807 -0.304455
I24   I     I_    0.623676 0.101236 0.861035 -0.305480
I25   I     I_    0.178487 0.455077 0.291636 -0.301172
I26   I     I_    0.875211 0.600025 0.639356 -0.305501
I27   I     I_    0.601234 0.123673 0.638967 -0.305739
I28   I     I_    0.955077 0.678487 0.208370 -0.301169
I29   I     I_    0.100533 0.375663 0.860794 -0.305230
I30   I     I_    0.678473 0.044903 0.208343 -0.299775
I31   I     I_    0.458914 0.816185 0.731862 -0.309005
I32   I     I_    0.041087 0.683819 0.768123 -0.307866
O1    O     O_3   0.500000 0.000000 0.250000 -0.511270
O2    O     O_R   0.500000 0.036340 0.856210 -0.611472
O3    O     O_R   0.963660 0.500000 0.143790 -0.623321
O4    O     O_R   0.036340 0.500000 0.856210 -0.624171
O5    O     O_R   0.000000 0.536340 0.643790 -0.624274
O6    O     O_R   1.000000 0.463660 0.356210 -0.623304
O7    O     O_R   0.536340 0.000000 0.643790 -0.611550
O8    O     O_R   0.463660 0.000000 0.356210 -0.624598
O9    O     O_R   0.000000 0.463660 0.643790 -0.611529
O10   O     O_R   0.000000 0.536340 0.356210 -0.624290
O11   O     O_R   0.463660 0.000000 0.643790 -0.624421
O12   O     O_3   0.500000 0.000000 0.750000 -0.513077
O13   O     O_R   0.536340 0.000000 0.356210 -0.623156
O14   O     O_R   0.448830 0.912520 0.222210 -0.619631
O15   O     O_R   0.551170 0.087480 0.777790 -0.617340
O16   O     O_R   0.912520 0.551170 0.222210 -0.619393
O17   O     O_R   0.087480 0.448830 0.777790 -0.606600
O18   O     O_R   0.551170 0.087480 0.222210 -0.619297
O19   O     O_R   0.448830 0.912520 0.777790 -0.617216
O20   O     O_R   0.087480 0.448830 0.222210 -0.619391
O21   O     O_R   0.912520 0.551170 0.777790 -0.620976
O22   O     O_R   0.448830 0.087480 0.777790 -0.620996
O23   O     O_3   0.000000 0.500000 0.250000 -0.511361
O24   O     O_R   0.551170 0.912520 0.222210 -0.614736
O25   O     O_R   0.912520 0.448830 0.777790 -0.617428
O26   O     O_R   0.087480 0.551170 0.222210 -0.614782
O27   O     O_R   0.551170 0.912520 0.777790 -0.606724
O28   O     O_R   0.448830 0.087480 0.222210 -0.614737
O29   O     O_R   0.087480 0.551170 0.777790 -0.617023
O30   O     O_R   0.912520 0.448830 0.222210 -0.614770
O31   O     O_R   0.948830 0.412520 0.722210 -0.617430
O32   O     O_R   0.051170 0.587480 0.277790 -0.614790
O33   O     O_R   0.412520 0.051170 0.722210 -0.606683
O34   O     O_3   0.000000 0.500000 0.750000 -0.513171
O35   O     O_R   0.587480 0.948830 0.277790 -0.614742
O36   O     O_R   0.051170 0.587480 0.722210 -0.617079
O37   O     O_R   0.948830 0.412520 0.277790 -0.614761
O38   O     O_R   0.587480 0.948830 0.722210 -0.621040
O39   O     O_R   0.412520 0.051170 0.277790 -0.614732
O40   O     O_R   0.948830 0.587480 0.277790 -0.619395
O41   O     O_R   0.051170 0.412520 0.722210 -0.620920
O42   O     O_R   0.412520 0.948830 0.277790 -0.619620
O43   O     O_R   0.587480 0.051170 0.722210 -0.617339
O44   O     O_R   0.051170 0.412520 0.277790 -0.619387
O45   O     O_R   0.500000 0.036340 0.143790 -0.623139
O46   O     O_R   0.948830 0.587480 0.722210 -0.606653
O47   O     O_R   0.587480 0.051170 0.277790 -0.619309
O48   O     O_R   0.412520 0.948830 0.722210 -0.617170
O49   O     O_R   0.500000 0.963660 0.856210 -0.624503
O50   O     O_R   0.036340 0.500000 0.143790 -0.624273
O51   O     O_R   0.963660 0.500000 0.856210 -0.611627
O52   O     O_R   0.500000 0.963660 0.143790 -0.624616
Zn1   Zn    Zn3+2 0.448040 0.000000 0.289870 1.044198
Zn2   Zn    Zn3+2 0.051960 0.500000 0.210130 1.044757
Zn3   Zn    Zn3+2 0.500000 0.051960 0.789870 1.043576
Zn4   Zn    Zn3+2 0.500000 0.948040 0.210130 1.044186
Zn5   Zn    Zn3+2 0.051960 0.500000 0.789870 1.044349
Zn6   Zn    Zn3+2 0.948040 0.500000 0.210130 1.045511
Zn7   Zn    Zn3+2 0.500000 0.948040 0.789870 1.043910
Zn8   Zn    Zn3+2 0.500000 0.051960 0.210130 1.045588
Zn9   Zn    Zn3+2 0.551960 0.000000 0.710130 1.043544
Zn10  Zn    Zn3+2 0.000000 0.551960 0.289870 1.044744
Zn11  Zn    Zn3+2 1.000000 0.448040 0.710130 1.043565
Zn12  Zn    Zn3+2 0.551960 0.000000 0.289870 1.045578
Zn13  Zn    Zn3+2 0.448040 0.000000 0.710130 1.043962
Zn14  Zn    Zn3+2 0.000000 0.448040 0.289870 1.045523
Zn15  Zn    Zn3+2 0.000000 0.551960 0.710130 1.044286
Zn16  Zn    Zn3+2 0.948040 0.500000 0.789870 1.043525

loop_
_geom_bond_atom_site_label_1
_geom_bond_atom_site_label_2
_ccdc_geom_bond_type
C14   I29   S    
C110  H100  S    
C118  H119  S    
C58   H35   S    
C65   C89   A    
C100  H71   S    
C114  H108  S    
C17   C206  A    
C88   C133  S    
C77   C80   A    
O1    Zn4   S    
O2    Zn3   S    
O16   Zn6   S    
C185  O10   A    
C132  C155  A    
C39   C74   A    
C126  H17   S    
C27   C68   A    
C197  O33   A    
C64   H42   S    
C25   C60   A    
C144  C160  A    
C54   H13   S    
C36   C71   A    
C33   C69   A    
O30   Zn6   S    
C29   C64   A    
C24   C198  S    
O28   Zn8   S    
C62   C95   A    
C10   C140  A    
C118  H121  S    
C17   C52   A    
O40   Zn10  S    
C47   H63   S    
C117  H117  S    
C166  C174  A    
C19   I3    S    
C68   C202  S    
O46   Zn15  S    
C13   C30   A    
O6    Zn14  S    
C25   I8    S    
C93   C101  S    
C79   C160  A    
C61   C94   A    
C26   I9    S    
C128  H21   S    
C182  O51   A    
C173  C191  S    
C12   I28   S    
O15   Zn3   S    
C180  O49   A    
C27   I10   S    
C130  C177  S    
C96   C144  S    
C117  H116  S    
C198  O24   A    
C129  H27   S    
C15   C184  A    
C109  H95   S    
O21   Zn16  S    
C97   H59   S    
C69   H46   S    
C69   C88   A    
C123  H9    S    
C1    C41   A    
C101  C158  A    
C80   C142  S    
C121  H4    S    
C74   C81   A    
C32   C206  A    
C162  C190  S    
C103  H78   S    
C71   H48   S    
C121  C168  S    
C99   C147  S    
C39   C140  A    
C128  C175  S    
O48   Zn13  S    
C97   C145  S    
C26   C61   A    
C45   C81   A    
C4    C5    S    
C22   C58   A    
C111  H103  S    
C6    C7    S    
C21   C35   A    
C75   H53   S    
C127  H19   S    
C104  C152  S    
C126  H15   S    
C149  C155  A    
C16   C195  A    
C36   I19   S    
C127  H18   S    
C119  H124  S    
O33   Zn13  S    
C201  O27   A    
C202  O28   A    
C125  C171  S    
C26   C57   A    
C126  C172  S    
C73   H50   S    
C102  C149  S    
C28   C63   A    
O17   Zn5   S    
C108  H92   S    
C122  H6    S    
C16   I31   S    
C113  C157  A    
C203  O36   A    
C83   C138  S    
C107  C155  S    
C143  C144  A    
C37   C162  A    
C41   C76   A    
C105  C153  S    
C109  H98   S    
C1    C8    A    
C96   H58   S    
C110  H101  S    
C16   C51   A    
O18   Zn8   S    
C98   H65   S    
C35   C199  S    
C128  H23   S    
C23   C59   A    
C13   C197  S    
C131  H32   S    
C49   C84   A    
C65   H43   S    
C76   C78   A    
C14   C173  A    
C66   H44   S    
C145  C159  A    
C134  C153  A    
C129  H26   S    
C135  C152  A    
C100  H70   S    
C182  C210  S    
O23   Zn6   S    
C102  H72   S    
C90   C159  A    
C180  C212  S    
C106  H88   S    
C60   H37   S    
C111  C159  S    
C103  C150  S    
C130  H28   S    
C187  O13   A    
C168  C171  A    
O1    Zn1   S    
C28   C35   A    
C138  C148  A    
C125  H12   S    
C50   C85   A    
C127  C174  S    
O9    Zn11  S    
C196  O21   A    
C87   C134  S    
C139  C176  A    
O3    Zn6   S    
C116  H112  S    
O29   Zn5   S    
C67   H45   S    
C130  H29   S    
O1    Zn8   S    
C107  H90   S    
C62   H39   S    
O25   Zn16  S    
C133  C154  A    
O37   Zn14  S    
O10   Zn10  S    
C191  O41   A    
O35   Zn12  S    
C119  H122  S    
C189  O43   A    
O34   Zn16  S    
C183  O5    A    
C56   H34   S    
C115  C161  S    
C116  H114  S    
C60   C95   A    
C165  C175  A    
C27   C62   A    
C71   C86   A    
C74   H51   S    
C63   H40   S    
C108  H94   S    
C187  C205  S    
C10   C45   A    
C184  C192  S    
C114  C160  S    
C102  H73   S    
C19   C54   A    
C11   C151  A    
C114  H105  S    
C136  C170  A    
C84   C137  S    
C32   C67   A    
O39   Zn1   S    
O7    Zn9   S    
C134  C168  A    
C110  H99   S    
C105  H82   S    
O50   Zn2   S    
C23   C57   A    
C39   I22   S    
C118  H120  S    
C75   C82   A    
O22   Zn3   S    
C146  C158  A    
C11   I27   S    
C118  C165  S    
C48   C83   A    
C49   H85   S    
C106  H86   S    
C98   H64   S    
C142  C178  A    
O26   Zn2   S    
C143  C177  A    
C199  O31   A    
C123  C170  S    
C48   H74   S    
O12   Zn7   S    
C194  O44   A    
C34   I18   S    
C86   C135  S    
C152  C153  A    
C42   C77   A    
O20   Zn2   S    
O34   Zn5   S    
C57   C201  S    
O45   Zn8   S    
C182  O4    A    
C102  H75   S    
C70   C85   A    
C180  O2    A    
C131  H33   S    
C147  C157  A    
C3    C209  T    
C116  C163  S    
C11   C47   A    
C142  C145  A    
C8    C43   A    
C12   C48   A    
C10   I23   S    
C43   C78   A    
C191  O17   A    
O8    Zn1   S    
C58   C93   A    
O44   Zn14  S    
C115  H110  S    
O43   Zn9   S    
C128  H22   S    
C185  O6    A    
C133  C169  A    
C112  C196  S    
C55   C91   A    
C18   C53   A    
C120  H125  S    
C117  H115  S    
C201  O38   A    
C106  C154  S    
C76   H54   S    
C163  C177  A    
C77   H55   S    
C103  H77   S    
C59   C94   A    
C135  C171  A    
C55   H24   S    
C92   C113  S    
C34   C70   A    
C110  C158  S    
C186  O11   A    
C99   H68   S    
C109  C157  S    
C121  H3    S    
C185  C208  S    
C25   C68   A    
C181  O50   A    
C51   C86   A    
C199  O25   A    
C131  C178  S    
C90   C94   S    
C117  C164  S    
C5    C211  T    
C203  C206  S    
C190  O40   A    
C13   C19   A    
C138  C172  A    
C140  C188  S    
O23   Zn10  S    
C188  O14   A    
C44   C80   A    
C189  O15   A    
C98   H62   S    
C123  H10   S    
C97   H61   S    
C107  H91   S    
C3    C216  S    
C100  C148  S    
C104  H79   S    
O12   Zn3   S    
C126  H16   S    
C79   C95   S    
C82   C139  S    
O12   Zn9   S    
C124  C167  A    
C205  C214  T    
O13   Zn12  S    
C119  H123  S    
O47   Zn12  S    
C108  C156  S    
C122  C169  S    
O34   Zn11  S    
O24   Zn4   S    
C207  C215  T    
C101  C165  A    
C20   I4    S    
O4    Zn5   S    
C131  H31   S    
C141  C146  A    
O1    Zn12  S    
C186  C207  S    
C2    C33   A    
C22   C46   A    
C122  H7    S    
C183  C209  S    
C121  H128  S    
C181  O3    A    
O36   Zn15  S    
C17   I32   S    
C109  H97   S    
C42   I26   S    
C196  O46   A    
C21   C56   A    
C32   I16   S    
O31   Zn11  S    
C167  C172  A    
C104  H80   S    
C123  H8    S    
C40   C75   A    
C181  C211  S    
C29   C46   A    
C1    C194  S    
C24   C31   A    
C137  C174  A    
C192  O18   A    
C120  H127  S    
C103  H76   S    
C129  H25   S    
C202  O39   A    
C72   H49   S    
C164  C176  A    
C197  O22   A    
C97   H60   S    
C72   C83   A    
O19   Zn7   S    
O14   Zn4   S    
C179  C213  S    
C99   H66   S    
O27   Zn7   S    
C37   I20   S    
C37   C72   A    
C148  C156  A    
C161  C178  A    
C29   I13   S    
O49   Zn7   S    
C50   H96   S    
C120  C167  S    
C200  O32   A    
C31   C66   A    
C188  O42   A    
C61   H38   S    
C2    C18   A    
C22   I6    S    
C169  C170  A    
C30   I14   S    
C130  H30   S    
C111  H104  S    
O42   Zn1   S    
C51   H107  S    
C107  H89   S    
C38   I21   S    
C139  C147  A    
C127  H20   S    
C89   C132  S    
O51   Zn16  S    
C28   I11   S    
C132  C166  A    
C64   C93   A    
C9    I12   S    
C204  O37   A    
C47   C82   A    
C14   C49   A    
C6    C212  T    
C198  O35   A    
C4    C210  T    
C15   C50   A    
C42   C112  A    
C44   H41   S    
C115  H111  S    
C45   H52   S    
C20   C24   A    
C41   I25   S    
C104  H81   S    
C193  C195  S    
C122  H5    S    
C63   C92   A    
C129  C176  S    
C34   C184  A    
C53   C88   A    
C73   C84   A    
C15   I30   S    
C204  O30   A    
C81   C141  S    
C208  C216  T    
C96   H57   S    
C137  C149  A    
C43   H1    S    
C21   I5    S    
C20   C55   A    
C23   I7    S    
C70   H47   S    
C179  O45   A    
C90   C161  A    
C30   C65   A    
C2    C204  S    
C54   C89   A    
C125  H14   S    
C214  C215  S    
C38   C173  A    
C8    I1    S    
C98   C146  S    
C12   C162  A    
C100  H69   S    
C40   C151  A    
O41   Zn11  S    
C106  H87   S    
C46   C200  S    
C151  C189  S    
C186  O7    A    
C40   I24   S    
C119  C166  S    
C7    C213  T    
C203  O29   A    
C200  O26   A    
O11   Zn13  S    
C91   C124  S    
C124  C156  A    
O23   Zn14  S    
O32   Zn10  S    
C193  O19   A    
C105  H84   S    
C194  O20   A    
C111  H102  S    
C53   H2    S    
C9    C44   A    
C187  O8    A    
C52   C87   A    
C79   C163  A    
O12   Zn13  S    
C125  H11   S    
C136  C150  A    
C66   C91   A    
C96   H56   S    
C114  H106  S    
O34   Zn15  S    
C67   C87   A    
O5    Zn15  S    
C85   C136  S    
C116  H113  S    
C36   C195  A    
C78   C143  S    
C113  C164  A    
C115  H109  S    
C193  O48   A    
C108  H93   S    
C9    C112  A    
C52   H118  S    
C179  O52   A    
C192  O47   A    
O38   Zn9   S    
C120  H126  S    
C18   I2    S    
C56   C92   A    
C33   I17   S    
C150  C154  A    
C190  O16   A    
C59   H36   S    
C141  C175  A    
C105  H83   S    
O23   Zn2   S    
O52   Zn4   S    
C31   I15   S    
C183  O9    A    
C38   C73   A    
C99   H67   S    
