data_mof_unit_13425.cif
_audit_creation_date              2013-03-05T15:54:35-0500
_audit_creation_method            fapswitch 2.2
_symmetry_space_group_name_H-M    P1
_symmetry_Int_Tables_number       1
_space_group_crystal_system       triclinic
_cell_length_a                    17.450198
_cell_length_b                    24.391265
_cell_length_c                    14.950962
_cell_angle_alpha                 90.184591
_cell_angle_beta                  125.29213
_cell_angle_gamma                 89.697203
_cell_volume                      5194.01691422

loop_
_atom_site_label
_atom_site_type_symbol
_atom_site_description
_atom_site_fract_x
_atom_site_fract_y
_atom_site_fract_z
_atom_type_partial_charge
C1    C     C_R   0.809780 0.625205 0.905208 -0.114496
C2    C     C_R   0.148526 0.651586 0.093942 -0.128638
C3    C     C_R   0.350136 0.151956 0.906072 -0.127433
C4    C     C_R   0.690785 0.123334 0.093465 -0.119069
H1    H     H_    0.750704 0.626186 0.820859 0.112830
H2    H     H_    0.181226 0.665531 0.177097 0.115107
H3    H     H_    0.316606 0.165626 0.822722 0.113476
H4    H     H_    0.749567 0.126137 0.177997 0.113498
N1    N     N_R   0.892620 0.603790 0.941770 -0.042025
N2    N     N_R   0.107380 0.603790 0.058230 -0.041911
N3    N     N_R   0.392620 0.103790 0.941770 -0.040601
N4    N     N_R   0.607380 0.103790 0.058230 -0.041619
C5    C     C_R   0.941640 0.350397 0.092967 -0.083346
C6    C     C_R   0.093151 0.375194 0.904091 -0.118962
C7    C     C_R   0.416191 0.865275 0.095052 -0.141781
C8    C     C_R   0.556593 0.850270 0.905836 -0.033002
H5    H     H_    0.988004 0.335771 0.176302 0.093429
H6    H     H_    0.066072 0.373236 0.818882 0.133739
H7    H     H_    0.450637 0.853920 0.178721 0.134643
H8    H     H_    0.508403 0.836394 0.822345 0.091365
N5    N     N_R   0.952270 0.397640 0.058010 -0.049379
N6    N     N_R   0.047730 0.397640 0.941990 -0.052660
N7    N     N_R   0.452270 0.897640 0.058010 -0.046930
N8    N     N_R   0.547730 0.897640 0.941990 -0.054006
C9    C     C_R   0.997017 0.546412 0.266350 -0.139201
C10   C     C_R   0.948020 0.546983 0.696097 -0.140076
C11   C     C_R   0.483938 0.048055 0.250844 -0.129690
C12   C     C_R   0.451511 0.046969 0.697600 -0.162003
H9    H     H_    0.997929 0.588162 0.287964 0.103864
H10   H     H_    0.925583 0.588670 0.669349 0.108147
H11   H     H_    0.468743 0.090619 0.253469 0.111849
H12   H     H_    0.430121 0.088706 0.670097 0.113549
N9    N     N_R   0.026310 0.529110 0.206760 -0.046297
N10   N     N_R   0.973690 0.529110 0.793240 -0.043871
N11   N     N_R   0.526310 0.029110 0.206760 -0.046620
N12   N     N_R   0.473690 0.029110 0.793240 -0.045885
C13   C     C_R   0.744222 0.454642 0.698422 0.484257
C14   C     C_R   0.269595 0.455545 0.275325 0.425269
C15   C     C_R   0.230654 0.955474 0.726459 0.424670
C16   C     C_R   0.756358 0.954610 0.301322 0.489515
N13   N     N_R   0.818570 0.472310 0.793020 -0.086427
N14   N     N_R   0.181430 0.472310 0.206980 -0.083313
N15   N     N_R   0.318570 0.972310 0.793020 -0.087143
N16   N     N_R   0.681430 0.972310 0.206980 -0.088171
C17   C     C_R   0.992020 0.454770 0.261350 -0.032874
C18   C     C_R   0.948738 0.455868 0.694258 -0.054887
C19   C     C_R   0.493066 0.956758 0.264198 -0.069882
C20   C     C_R   0.452759 0.955662 0.695850 -0.009239
H13   H     H_    0.982623 0.412296 0.272606 0.114092
H14   H     H_    0.930195 0.414129 0.665456 0.139215
H15   H     H_    0.495111 0.916091 0.292729 0.145651
H16   H     H_    0.436152 0.913797 0.667038 0.116219
N17   N     N_R   0.026930 0.472300 0.207330 -0.048553
N18   N     N_R   0.973070 0.472300 0.792670 -0.052185
N19   N     N_R   0.526930 0.972300 0.207330 -0.042948
N20   N     N_R   0.473070 0.972300 0.792670 -0.049412
C21   C     C_R   0.741620 0.546089 0.698369 -0.230766
C22   C     C_R   0.269135 0.547342 0.261137 -0.187943
C23   C     C_R   0.230592 0.047403 0.739671 -0.197202
C24   C     C_R   0.758646 0.046085 0.301053 -0.223776
H17   H     H_    0.726120 0.587935 0.669075 0.134473
H18   H     H_    0.290396 0.589836 0.275967 0.127626
H19   H     H_    0.208805 0.089906 0.724462 0.128803
H20   H     H_    0.773984 0.087981 0.330062 0.133023
N21   N     N_R   0.817960 0.529130 0.792460 -0.063096
N22   N     N_R   0.182040 0.529130 0.207540 -0.065621
N23   N     N_R   0.317960 0.029130 0.792460 -0.065767
N24   N     N_R   0.682040 0.029130 0.207540 -0.064601
C25   C     C_R   0.847780 0.350349 0.910282 -0.025549
C26   C     C_R   0.184204 0.371160 0.086790 -0.096191
C27   C     C_R   0.320578 0.866442 0.912571 -0.087431
C28   C     C_R   0.650781 0.849701 0.088508 -0.043109
H21   H     H_    0.806221 0.335893 0.826846 0.165083
H22   H     H_    0.240192 0.360813 0.168878 0.170107
H23   H     H_    0.264734 0.856266 0.830249 0.173804
H24   H     H_    0.691291 0.834990 0.171718 0.164707
N25   N     N_R   0.894850 0.397640 0.943830 -0.052352
N26   N     N_R   0.105150 0.397640 0.056170 -0.053169
N27   N     N_R   0.394850 0.897640 0.943830 -0.055772
N28   N     N_R   0.605150 0.897640 0.056170 -0.053869
C29   C     C_R   0.903672 0.632543 0.087546 -0.105881
C30   C     C_R   0.060870 0.652142 0.911087 -0.111990
C31   C     C_R   0.440180 0.152967 0.088349 -0.140060
C32   C     C_R   0.598649 0.126457 0.909747 -0.088606
H25   H     H_    0.932477 0.647768 0.168598 0.098924
H26   H     H_    0.018179 0.666421 0.827240 0.100595
H27   H     H_    0.485840 0.167856 0.171466 0.099795
H28   H     H_    0.572151 0.133647 0.825204 0.101719
N29   N     N_R   0.950040 0.603780 0.055950 -0.043499
N30   N     N_R   0.049960 0.603780 0.944050 -0.041734
N31   N     N_R   0.450040 0.103780 0.055950 -0.042151
N32   N     N_R   0.549960 0.103780 0.944050 -0.044404
C33   C     C_R   0.813899 0.643356 0.994720 0.069204
C34   C     C_R   0.122224 0.682655 0.004421 0.076659
C35   C     C_R   0.377843 0.183916 0.995721 0.086012
C36   C     C_R   0.687480 0.139086 0.002973 0.062416
C37   C     C_R   0.876283 0.320133 0.002421 0.046313
C38   C     C_R   0.179907 0.358414 0.993320 0.052517
C39   C     C_R   0.330495 0.848330 0.006457 0.047017
C40   C     C_R   0.620766 0.819246 0.995532 0.038854
C41   C     C_R   0.969520 0.501060 0.296354 0.069024
C42   C     C_R   0.931571 0.502030 0.631564 0.079815
C43   C     C_R   0.460886 0.003445 0.286626 0.055796
C44   C     C_R   0.438110 0.002086 0.634300 0.064010
C45   C     C_R   0.694429 0.500167 0.640450 0.003259
C46   C     C_R   0.324724 0.501528 0.300764 0.033396
C47   C     C_R   0.175259 0.001584 0.701316 0.037611
C48   C     C_R   0.806350 0.000118 0.358830 0.001795
Ni1   Ni    Ni4+2 0.934160 0.565860 0.869070 0.217368
Ni2   Ni    Ni4+2 0.065840 0.565860 0.130930 0.225405
Ni3   Ni    Ni4+2 0.434160 0.065860 0.869070 0.216836
Ni4   Ni    Ni4+2 0.565840 0.065860 0.130930 0.219223
Ni5   Ni    Ni4+2 0.067260 0.435560 0.132230 0.270377
Ni6   Ni    Ni4+2 0.932740 0.435560 0.867770 0.264130
Ni7   Ni    Ni4+2 0.567260 0.935560 0.132230 0.283623
Ni8   Ni    Ni4+2 0.432740 0.935560 0.867770 0.257981
C49   C     C_3   0.528533 0.455043 0.515950 0.310160
C50   C     C_3   0.494195 0.460933 0.397023 0.339148
C51   C     C_3   0.006326 0.960357 0.602741 0.339605
C52   C     C_3   0.972972 0.955366 0.483981 0.311289
C53   C     C_3   0.458245 0.497966 0.502007 -0.232782
C54   C     C_3   0.565433 0.506752 0.425792 -0.228781
C55   C     C_3   0.933923 0.005804 0.574244 -0.225177
C56   C     C_3   0.042707 0.998748 0.499746 -0.236792
H29   H     H_    0.412748 0.494459 0.531357 0.193806
H30   H     H_    0.611676 0.509624 0.397412 0.171529
H31   H     H_    0.887148 0.007979 0.602004 0.177257
H32   H     H_    0.088845 0.995922 0.471104 0.186936
C57   C     C_3   0.423534 0.503433 0.381881 -0.009704
C58   C     C_3   0.599494 0.500415 0.545739 -0.007190
C59   C     C_3   0.900925 0.000368 0.454474 -0.007395
C60   C     C_3   0.076419 0.003384 0.619730 -0.005497
C61   C     C_3   0.492749 0.550156 0.409721 -0.146161
C62   C     C_3   0.529153 0.544196 0.531356 -0.151523
C63   C     C_3   0.970674 0.044626 0.470710 -0.152866
C64   C     C_3   0.006009 0.049716 0.592159 -0.151972
H33   H     H_    0.474855 0.589217 0.363646 0.146061
H34   H     H_    0.545354 0.578545 0.588630 0.142921
H35   H     H_    0.954277 0.079388 0.414408 0.142477
H36   H     H_    0.022774 0.088469 0.639043 0.144209
C65   C     C_R   0.863962 0.247567 0.104123 -0.025808
C66   C     C_R   0.232933 0.310293 0.890704 0.117764
C67   C     C_R   0.286360 0.797719 0.112894 0.055094
C68   C     C_R   0.619064 0.740758 0.890941 -0.031859
C69   C     C_R   0.851052 0.264501 0.007549 0.077842
C70   C     C_R   0.252129 0.330491 0.989518 -0.017834
C71   C     C_R   0.261655 0.819899 0.013136 -0.030151
C72   C     C_R   0.642045 0.762471 0.990206 0.075433
C73   C     C_R   0.804973 0.229424 0.916047 -0.139912
C74   C     C_R   0.338013 0.315552 0.087348 -0.054787
C75   C     C_R   0.170619 0.811039 0.918314 -0.060378
C76   C     C_R   0.696386 0.730381 0.085497 -0.143510
H37   H     H_    0.796905 0.240370 0.840942 0.138102
H38   H     H_    0.359545 0.332267 0.165452 0.194870
H39   H     H_    0.146447 0.830237 0.841278 0.197307
H40   H     H_    0.710382 0.743482 0.162780 0.141108
C77   C     C_R   0.115056 0.770393 0.918220 -0.160604
C78   C     C_R   0.745077 0.684946 0.084866 -0.166080
C79   C     C_R   0.758851 0.182908 0.917293 -0.160205
C80   C     C_R   0.389407 0.271403 0.088011 -0.171953
H41   H     H_    0.049985 0.759593 0.841485 0.157324
H42   H     H_    0.795768 0.664622 0.161630 0.121268
H43   H     H_    0.714876 0.159485 0.842616 0.128993
H44   H     H_    0.448707 0.256727 0.166317 0.152652
C81   C     C_R   0.152282 0.738327 0.012295 0.023220
C82   C     C_R   0.738306 0.672068 0.988865 0.095608
C83   C     C_R   0.760233 0.171652 0.010429 0.093647
C84   C     C_R   0.353820 0.241614 0.991102 0.033051
C85   C     C_R   0.232760 0.756205 0.111470 0.170261
C86   C     C_R   0.664814 0.695151 0.889648 0.103136
C87   C     C_R   0.822101 0.200894 0.107322 0.097064
C88   C     C_R   0.282708 0.265854 0.891675 0.130605
C89   C     C_3   0.316802 0.724050 0.198871 -0.629429
C90   C     C_3   0.660423 0.715226 0.791808 -0.583735
C91   C     C_3   0.805524 0.226471 0.186747 -0.591800
C92   C     C_3   0.198011 0.241715 0.790188 -0.635069
C93   C     C_3   0.847429 0.278521 0.178505 0.213290
C94   C     C_3   0.143207 0.290344 0.788458 0.182113
C95   C     C_3   0.375890 0.770038 0.202930 0.176861
C96   C     C_3   0.611534 0.765874 0.794279 0.210628
H45   H     H_    0.327337 0.685233 0.167928 0.183940
H46   H     H_    0.613737 0.689405 0.718186 0.176277
H47   H     H_    0.850142 0.207307 0.269279 0.178880
H48   H     H_    0.175159 0.202499 0.805485 0.183947
H49   H     H_    0.319327 0.719406 0.274497 0.233850
H50   H     H_    0.730473 0.723514 0.809216 0.235312
H51   H     H_    0.730076 0.230199 0.154280 0.236612
H52   H     H_    0.205022 0.240746 0.720825 0.232597
H53   H     H_    0.913006 0.291503 0.257072 0.080109
H54   H     H_    0.087675 0.278947 0.799780 0.065383
H55   H     H_    0.423036 0.757225 0.178963 0.083946
H56   H     H_    0.537970 0.770320 0.720607 0.088059
C97   C     C_R   0.891863 0.552724 0.466355 0.148667
C98   C     C_R   0.905850 0.552226 0.384611 0.149335
C99   C     C_R   0.405886 0.055029 0.475504 0.151905
C100  C     C_R   0.411770 0.055595 0.387677 0.156649
C101  C     C_R   0.894794 0.503458 0.516131 0.005591
C102  C     C_R   0.922279 0.502558 0.350819 0.018917
C103  C     C_R   0.403369 0.005059 0.519641 0.005214
C104  C     C_R   0.415027 0.006194 0.342293 0.008424
C105  C     C_R   0.883199 0.454232 0.460507 -0.130306
C106  C     C_R   0.898562 0.453680 0.378853 -0.091744
C107  C     C_R   0.380970 0.957363 0.456090 -0.117980
C108  C     C_R   0.386199 0.958141 0.366276 -0.138030
H57   H     H_    0.876954 0.415244 0.489881 0.170274
H58   H     H_    0.903779 0.414334 0.349584 0.175386
H59   H     H_    0.370974 0.918456 0.482440 0.167531
H60   H     H_    0.379340 0.920117 0.325156 0.185041
C109  C     C_3   0.960377 0.604576 0.424277 -0.490226
C110  C     C_3   0.944923 0.605252 0.513270 -0.476828
C111  C     C_3   0.477511 0.103385 0.432380 -0.481679
C112  C     C_3   0.471005 0.102865 0.528514 -0.483151
H61   H     H_    0.923751 0.638681 0.364650 0.198784
H62   H     H_    0.012126 0.600762 0.595755 0.206963
H63   H     H_    0.445435 0.140630 0.380590 0.202983
H64   H     H_    0.538914 0.092204 0.606800 0.204029
H65   H     H_    0.035944 0.599238 0.458359 0.207171
H66   H     H_    0.899013 0.639593 0.504842 0.208185
H67   H     H_    0.549113 0.092914 0.456079 0.206402
H68   H     H_    0.435134 0.139818 0.531837 0.206442
N33   N     N_R   0.544310 0.404402 0.576165 0.277087
O1    O     O_R   0.524133 0.357183 0.527053 -0.262128
O2    O     O_R   0.569012 0.406758 0.676492 -0.355337
N34   N     N_R   0.473804 0.418108 0.318192 0.246821
O3    O     O_R   0.531048 0.376695 0.349260 -0.320288
O4    O     O_R   0.419162 0.429928 0.214384 -0.423465
N35   N     N_R   0.026950 0.916741 0.680035 0.251118
O5    O     O_R   0.969434 0.875702 0.647858 -0.308943
O6    O     O_R   0.083035 0.927199 0.784332 -0.427889
N36   N     N_R   0.958106 0.905193 0.422559 0.274017
O7    O     O_R   0.978167 0.857615 0.470222 -0.262211
O8    O     O_R   0.933655 0.908309 0.322422 -0.369296
N37   N     N_R   0.777302 0.322434 0.121794 0.265688
O9    O     O_R   0.696757 0.313353 0.029006 -0.340584
O10   O     O_R   0.796230 0.371570 0.162898 -0.414907
N38   N     N_R   0.108898 0.325611 0.693114 0.252513
O11   O     O_R   0.144880 0.373866 0.703596 -0.382470
O12   O     O_R   0.037486 0.309899 0.597205 -0.399218
N39   N     N_R   0.424108 0.799863 0.307100 0.242768
O13   O     O_R   0.378404 0.817182 0.346390 -0.410395
O14   O     O_R   0.515016 0.804578 0.366248 -0.378843
N40   N     N_R   0.668320 0.815355 0.820741 0.262409
O15   O     O_R   0.754590 0.817536 0.907581 -0.349238
O16   O     O_R   0.633108 0.857203 0.754765 -0.372838
Cl1   Cl    Cl    0.742483 0.391923 0.639216 -0.650918
Cl2   Cl    Cl    0.302077 0.396694 0.358110 -0.647053
Cl3   Cl    Cl    0.198409 0.896784 0.643182 -0.664327
Cl4   Cl    Cl    0.759298 0.891920 0.360681 -0.601227

loop_
_geom_bond_atom_site_label_1
_geom_bond_atom_site_label_2
_geom_bond_distance
_ccdc_geom_bond_type
C22   H18   1.081023 S    
C46   C57   1.424857 S    
C111  H63   1.111976 S    
C107  C108  1.397698 A    
C61   H33   1.110092 S    
C30   C34   1.386682 A    
C1    C33   1.370230 A    
C15   C47   1.382747 A    
C26   N26   1.338844 A    
C52   C59   1.525701 S    
C105  C106  1.392987 A    
C66   C70   1.400979 A    
C49   N33   1.459173 S    
N39   O13   1.302205 A    
N13   Ni6   1.853785 S    
C68   C72   1.397626 A    
C35   C84   1.456697 S    
C90   H46   1.112089 S    
N36   O8    1.300596 A    
C27   N27   1.336217 A    
C51   N35   1.456042 S    
C63   C64   1.548636 S    
C91   C93   1.508833 S    
C2    H2    1.080076 S    
C10   C42   1.375511 A    
C111  C112  1.505849 S    
C7    H7    1.065113 S    
C18   C42   1.383782 A    
C89   H49   1.111948 S    
C21   H17   1.081592 S    
C74   C80   1.394123 A    
C5    H5    1.081314 S    
C65   C93   1.500988 S    
C80   H44   1.080986 S    
C66   C88   1.380274 A    
C14   N14   1.325844 A    
C20   H16   1.080891 S    
C59   C63   1.541570 S    
N24   Ni4   1.878807 S    
C83   C87   1.402566 A    
C94   H54   1.112506 S    
C60   C64   1.536140 S    
C72   C76   1.407082 A    
C89   C95   1.504857 S    
C87   C91   1.507716 S    
C14   Cl2   1.762366 S    
C68   C86   1.372407 A    
C51   C55   1.540390 S    
C65   C87   1.371638 A    
C13   Cl1   1.756554 S    
N38   O11   1.302715 A    
C56   C60   1.535206 S    
C20   N20   1.338147 A    
C50   C54   1.540497 S    
C98   C102  1.401729 A    
C11   C43   1.374414 A    
C4    H4    1.075331 S    
C73   H37   1.082060 S    
C48   C59   1.428871 S    
C95   N39   1.465528 S    
C23   N23   1.323122 A    
C53   H29   1.110735 S    
C4    C36   1.376353 A    
C100  C111  1.498236 S    
C25   N25   1.336787 A    
C64   H36   1.110018 S    
C10   N10   1.323017 A    
N21   Ni1   1.885497 S    
C76   H40   1.081305 S    
N16   Ni7   1.860474 S    
N17   Ni5   1.859835 S    
C22   N22   1.321711 A    
C26   H22   1.066942 S    
N40   O16   1.300743 A    
C32   N32   1.342076 A    
N37   O10   1.299232 A    
C101  C105  1.405664 A    
C75   H39   1.078784 S    
C53   C62   1.542490 S    
C4    N4    1.320164 A    
N37   O9    1.302828 A    
C15   Cl3   1.761696 S    
C24   C48   1.364463 A    
C65   C69   1.390373 A    
C16   C48   1.367395 A    
C29   N29   1.342959 A    
C7    N7    1.318041 A    
C89   H45   1.112577 S    
C8    N8    1.319758 A    
C70   C74   1.408178 A    
N27   Ni8   1.862210 S    
N34   O3    1.300067 A    
C9    H9    1.064788 S    
C58   C62   1.541396 S    
N3    Ni3   1.860012 S    
C103  C107  1.406257 A    
C34   C81   1.438053 S    
C16   Cl4   1.756023 S    
N8    N28   1.393452 A    
C29   H25   1.074380 S    
C6    C38   1.379295 A    
C99   C103  1.400785 A    
C7    C39   1.369603 A    
C81   C85   1.398983 A    
C109  C110  1.502574 S    
C76   C78   1.396217 A    
C19   C43   1.390299 A    
C21   C45   1.364606 A    
N38   O12   1.301042 A    
C11   H11   1.076352 S    
C75   C77   1.389796 A    
C68   C96   1.505509 S    
C12   H12   1.079859 S    
C5    N5    1.324212 A    
C93   H53   1.112561 S    
N9    N17   1.385670 A    
C67   C85   1.373856 A    
N5    Ni5   1.885044 S    
C96   H56   1.112814 S    
C42   C101  1.453259 S    
C77   C81   1.399288 A    
C100  C104  1.397901 A    
C112  H64   1.112598 S    
C41   C102  1.455728 S    
C8    C40   1.373822 A    
N13   N21   1.385909 A    
N18   Ni6   1.866891 S    
C38   C70   1.459062 S    
C11   N11   1.323689 A    
C30   H26   1.081091 S    
C27   C39   1.384893 A    
N29   Ni2   1.888101 S    
N11   N19   1.385668 A    
C109  H61   1.111751 S    
C28   N28   1.335674 A    
C52   C56   1.528601 S    
C22   C46   1.367292 A    
N1    Ni1   1.860012 S    
N31   Ni4   1.888101 S    
C54   H30   1.110197 S    
C71   C75   1.406954 A    
C54   C61   1.556457 S    
C13   C45   1.365655 A    
N33   O1    1.299898 A    
N12   N20   1.385727 A    
C99   C112  1.499387 S    
N3    N31   1.393455 A    
C104  C108  1.404552 A    
C29   C33   1.391244 A    
C12   C44   1.374461 A    
N14   Ni5   1.860474 S    
C55   H31   1.110016 S    
N35   O5    1.300143 A    
N28   Ni7   1.855088 S    
C2    C34   1.367247 A    
C8    H8    1.080396 S    
C31   C35   1.388678 A    
C14   C46   1.383449 A    
C18   N18   1.334894 A    
N12   Ni3   1.858829 S    
C51   C60   1.521473 S    
N20   Ni8   1.866891 S    
C36   C83   1.449732 S    
C1    N1    1.319894 A    
C28   H24   1.077118 S    
N39   O14   1.300808 A    
C5    C37   1.377219 A    
C30   N30   1.336084 A    
N22   Ni2   1.878807 S    
C25   H21   1.077462 S    
C49   C58   1.526590 S    
C73   C79   1.400888 A    
C12   N12   1.321722 A    
C17   C41   1.389895 A    
C57   C61   1.536692 S    
C102  C106  1.406133 A    
N23   Ni3   1.885497 S    
N35   O6    1.300430 A    
C25   C37   1.378122 A    
C33   C82   1.447558 S    
N8    Ni8   1.878135 S    
C67   C95   1.507768 S    
C50   N34   1.455400 S    
C106  H58   1.078509 S    
C61   C62   1.548451 S    
C44   C103  1.452914 S    
C1    H1    1.073044 S    
C23   H19   1.080954 S    
N16   N24   1.385968 A    
N26   Ni5   1.855088 S    
C52   N36   1.459144 S    
N25   Ni6   1.862210 S    
C2    N2    1.312083 A    
C77   H41   1.082082 S    
C67   C71   1.401007 A    
N4    Ni4   1.867292 S    
C111  H67   1.112474 S    
C108  H60   1.079312 S    
C78   C82   1.405080 A    
C19   N19   1.341946 A    
C28   C40   1.383708 A    
C84   C88   1.402021 A    
C92   H48   1.112246 S    
C39   C71   1.442833 S    
C92   H52   1.112384 S    
C85   C89   1.501183 S    
C56   C63   1.542220 S    
C55   C59   1.537359 S    
C91   H47   1.112239 S    
C37   C69   1.444653 S    
C6    H6    1.073686 S    
N4    N32   1.393453 A    
C32   H28   1.080492 S    
C53   C57   1.534258 S    
C47   C60   1.425910 S    
N34   O4    1.300426 A    
C31   H27   1.080308 S    
C62   H34   1.110521 S    
C19   H15   1.073251 S    
C51   C52   1.520360 S    
N1    N29   1.393455 A    
N15   Ni8   1.853785 S    
C82   C86   1.400598 A    
C45   C58   1.427917 S    
C86   C90   1.503367 S    
C49   C53   1.528508 S    
C31   N31   1.339383 A    
C18   H14   1.079943 S    
N6    Ni6   1.878135 S    
C3    H3    1.079129 S    
C110  H66   1.111850 S    
C56   H32   1.110824 S    
C55   C64   1.557035 S    
C24   H20   1.081625 S    
C63   H35   1.110459 S    
C109  H65   1.112500 S    
C6    N6    1.327163 A    
C91   H51   1.112586 S    
N32   Ni3   1.895014 S    
N33   O2    1.300629 A    
C50   C57   1.520445 S    
C110  H62   1.111988 S    
C49   C50   1.520151 S    
C90   H50   1.112425 S    
C98   C109  1.497808 S    
C27   H23   1.068081 S    
N19   Ni7   1.859836 S    
N10   N18   1.385727 A    
C9    C41   1.382998 A    
C97   C110  1.499055 S    
C66   C94   1.504238 S    
N6    N26   1.393452 A    
C107  H59   1.081573 S    
C40   C72   1.445674 S    
C97   C101  1.400568 A    
N40   O15   1.302598 A    
C92   C94   1.510543 S    
N7    Ni7   1.885044 S    
C79   C83   1.406590 A    
C17   H13   1.078564 S    
N2    Ni2   1.867292 S    
C79   H43   1.082754 S    
C43   C104  1.451284 S    
C80   C84   1.403986 A    
C13   N13   1.323253 A    
N36   O7    1.299972 A    
C93   N37   1.468606 S    
C23   C47   1.370254 A    
C94   N38   1.465174 S    
C3    N3    1.323756 A    
C24   N24   1.324872 A    
C78   H42   1.082296 S    
C17   N17   1.334066 A    
C99   C100  1.375095 A    
C88   C92   1.498494 S    
C16   N16   1.323797 A    
N2    N30   1.393453 A    
C95   H55   1.113605 S    
C15   N15   1.323821 A    
N15   N23   1.385909 A    
C97   C98   1.377666 A    
C74   H38   1.078223 S    
N5    N25   1.393453 A    
N14   N22   1.385968 A    
N10   Ni1   1.858829 S    
C105  H57   1.080820 S    
C90   C96   1.510073 S    
C112  H68   1.111914 S    
C3    C35   1.373466 A    
N9    Ni2   1.865857 S    
C32   C36   1.395073 A    
N30   Ni1   1.895014 S    
N7    N27   1.393453 A    
C54   C58   1.536993 S    
C69   C73   1.406682 A    
N11   Ni4   1.865857 S    
C26   C38   1.389812 A    
C9    N9    1.324636 A    
C96   N40   1.466838 S    
C21   N21   1.325598 A    
C10   H10   1.079169 S    
C20   C44   1.387858 A    
