data_mof_unit_7413.cif
_audit_creation_date              2012-12-11T16:29:31-0500
_audit_creation_method            fapswitch 2.2
_symmetry_space_group_name_H-M    P1
_symmetry_Int_Tables_number       1
_space_group_crystal_system       triclinic
_cell_length_a                    6.948126
_cell_length_b                    17.067846
_cell_length_c                    19.072589
_cell_angle_alpha                 106.004861
_cell_angle_beta                  89.513494
_cell_angle_gamma                 90.398079
_cell_volume                      2174.03472879

loop_
_atom_site_label
_atom_site_type_symbol
_atom_type_description
_atom_site_fract_x
_atom_site_fract_y
_atom_site_fract_z
_atom_type_partial_charge
O1    O     O_R   0.494360 0.415680 0.413760 -0.535578
O2    O     O_R   0.818810 0.432910 0.557230 -0.520711
O3    O     O_R   0.994290 0.584320 0.586240 -0.544426
C1    C     C_R   0.650333 0.418849 0.582975 0.779887
O4    O     O_R   0.823740 0.406440 0.412520 -0.519102
O5    O     O_R   0.999250 0.557660 0.440500 -0.517153
C2    C     C_R   0.653829 0.378510 0.388602 0.720416
O6    O     O_R   0.489400 0.442340 0.559500 -0.512009
O7    O     O_3   0.662500 0.549650 0.509350 -0.369570
V1    V     V_3+5 0.935340 0.490790 0.498270 1.484761
O8    O     O_R   0.329270 0.567090 0.442770 -0.528650
C3    C     C_R   0.161497 0.584344 0.419604 0.709666
O9    O     O_R   0.324340 0.593560 0.587480 -0.543523
C4    C     C_R   0.155010 0.614142 0.616509 0.703720
V2    V     V_3+5 0.435970 0.509210 0.501730 1.457818
O10   O     O_3   0.158940 0.450350 0.490650 -0.349698
H1    H     H_    0.247286 0.867316 0.557371 0.144446
C5    C     C_R   0.112967 0.581854 0.759227 0.059731
C6    C     C_R   0.181881 0.561760 0.820973 -0.010843
C7    C     C_R   0.219567 0.624179 0.883063 -0.172612
C8    C     C_R   0.186366 0.705823 0.885969 0.119008
C9    C     C_R   0.145814 0.729136 0.820377 0.030258
C10   C     C_R   0.129302 0.664076 0.754467 0.008042
C11   C     C_R   0.123181 0.812677 0.817120 -0.149528
C12   C     C_R   0.127312 0.829954 0.746985 0.012910
C13   C     C_R   0.154384 0.763512 0.682931 0.038904
C14   C     C_R   0.141588 0.681577 0.685808 -0.136101
C15   C     C_R   0.113564 0.911121 0.737030 0.120263
C16   C     C_R   0.169557 0.924403 0.669279 0.209766
C17   C     C_R   0.209279 0.858300 0.609840 -0.147226
C18   C     C_R   0.193024 0.779711 0.615496 -0.190965
H2    H     H_    0.266656 0.608309 0.931450 0.170406
H3    H     H_    0.217324 0.731630 0.565853 0.113059
C19   C     C_1   0.110930 0.867232 0.135423 -0.206529
C20   C     C_1   0.119134 0.824422 0.178768 0.016943
C21   C     C_1   0.129692 0.773728 0.230223 0.027845
C22   C     C_1   0.138555 0.730988 0.273614 0.015894
C23   C     C_1   0.148190 0.680170 0.324989 0.036466
C24   C     C_1   0.154815 0.636991 0.368063 -0.166396
C25   C     C_1   0.642272 0.367042 0.635251 -0.075827
C26   C     C_1   0.638634 0.323771 0.678239 0.065777
C27   C     C_1   0.635312 0.272388 0.729141 0.009688
C28   C     C_1   0.632332 0.229080 0.772112 0.009052
C29   C     C_1   0.628232 0.177771 0.823077 0.002301
C30   C     C_1   0.623553 0.134506 0.866068 -0.209405
C31   C     C_R   0.676713 0.416424 0.254397 -0.246497
C32   C     C_R   0.704726 0.442903 0.192413 -0.020411
C33   C     C_R   0.720357 0.384702 0.124363 0.137652
C34   C     C_R   0.670166 0.302099 0.118025 0.130966
C35   C     C_R   0.649166 0.273509 0.182355 0.025789
C36   C     C_R   0.658274 0.333020 0.251817 0.030307
C37   C     C_R   0.618403 0.189310 0.180643 -0.149662
C38   C     C_R   0.595124 0.167352 0.246964 0.082738
C39   C     C_R   0.610717 0.226450 0.316395 -0.002647
C40   C     C_R   0.642714 0.310729 0.318499 -0.156489
C41   C     C_R   0.555308 0.084947 0.244196 -0.163934
C42   C     C_R   0.530240 0.059729 0.306275 -0.163118
C43   C     C_R   0.549215 0.114287 0.374691 -0.014666
C44   C     C_R   0.590894 0.197411 0.380344 -0.146636
H4    H     H_    0.668016 0.463309 0.305604 0.158155
H5    H     H_    0.541544 0.037410 0.193590 0.121218
H6    H     H_    0.499775 0.995870 0.300458 0.153975
O11   O     O_R   0.775690 0.057750 0.940570 -0.525217
O12   O     O_R   0.441200 0.093570 0.087490 -0.536724
O13   O     O_R   0.265840 0.942320 0.059480 -0.524198
C45   C     C_R   0.610699 0.121150 0.111397 0.712654
O14   O     O_R   0.446270 0.067110 0.942790 -0.527079
O15   O     O_R   0.270950 0.915660 0.913750 -0.536708
C46   C     C_R   0.614891 0.082254 0.917876 0.714762
O16   O     O_R   0.770580 0.084400 0.086300 -0.530429
O17   O     O_3   0.602640 0.950400 0.990690 -0.360069
V3    V     V_3+5 0.329740 0.009200 0.001730 1.399614
O18   O     O_R   0.940900 0.906360 0.912450 -0.537367
C47   C     C_R   0.110842 0.881770 0.885629 0.733585
O19   O     O_R   0.935830 0.932820 0.057160 -0.523596
C48   C     C_R   0.103240 0.919094 0.083185 0.722872
V4    V     V_3+5 0.829130 0.990680 0.998180 1.404879
O20   O     O_3   0.106100 0.049590 0.009310 -0.359058
C49   C     C_2   0.707914 0.532545 0.200971 0.759769
O21   O     O_2   0.662467 0.559549 0.150373 -0.551556
O22   O     O_R   0.753335 0.586626 0.268458 -0.673949
H7    H     H_    0.743588 0.645788 0.268195 0.297460
C50   C     C_3   0.800507 0.409884 0.059456 -0.669358
H8    H     H_    0.904242 0.461209 0.076969 0.223410
H9    H     H_    0.884813 0.359758 0.022840 0.204400
H10   H     H_    0.681610 0.427746 0.028584 0.234608
C51   C     C_3   0.628587 0.248554 0.042499 -0.771331
H11   H     H_    0.611855 0.282414 0.001068 0.215014
H12   H     H_    0.749128 0.205489 0.024752 0.203340
H13   H     H_    0.487146 0.218144 0.041899 0.204273
C52   C     C_2   0.608093 0.251156 0.454362 0.773694
O23   O     O_2   0.768008 0.268919 0.479997 -0.526974
O24   O     O_R   0.443966 0.274854 0.497685 -0.645789
H14   H     H_    0.320201 0.255268 0.470537 0.273369
C53   C     C_3   0.984011 0.520364 0.708707 -0.679729
H15   H     H_    0.861792 0.551608 0.691036 0.185330
H16   H     H_    0.068389 0.482688 0.662029 0.229687
H17   H     H_    0.914124 0.479027 0.737271 0.192477
C54   C     C_2   0.209907 0.475660 0.822586 0.753720
O25   O     O_2   0.211400 0.458563 0.880810 -0.558266
O26   O     O_R   0.238464 0.414194 0.757651 -0.668888
H18   H     H_    0.253265 0.358406 0.765990 0.299579
C55   C     C_3   0.199907 0.763078 0.960776 -0.740137
H19   H     H_    0.222750 0.731719 0.003926 0.197940
H20   H     H_    0.324951 0.804219 0.963841 0.225662
H21   H     H_    0.060021 0.794106 0.973882 0.194783
C56   C     C_3   0.022920 0.982049 0.793372 -0.734152
H22   H     H_    0.981958 0.033391 0.771824 0.200600
H23   H     H_    0.884249 0.961921 0.811714 0.207851
H24   H     H_    0.122986 0.007889 0.838913 0.210397
C57   C     C_3   0.188435 0.008635 0.658437 -0.757115
H25   H     H_    0.263800 0.007330 0.606498 0.221348
H26   H     H_    0.043877 0.035195 0.656452 0.217083
H27   H     H_    0.273835 0.048660 0.703399 0.212059
C58   C     C_2   0.525660 0.081400 0.439278 0.772677
O27   O     O_2   0.415396 0.024330 0.436129 -0.562892
O28   O     O_R   0.632143 0.113529 0.502746 -0.636024
H28   H     H_    0.602626 0.085542 0.542128 0.299799

loop_
_geom_bond_atom_site_label_1
_geom_bond_atom_site_label_2
_ccdc_geom_bond_type
C41   H5    S    
C51   H11   S    
O19   C48   A    
O24   H14   S    
H1    C17   S    
C26   C27   S    
C34   C51   S    
C53   H15   S    
C32   C49   S    
C1    O6    A    
O22   H7    S    
C53   H17   S    
C42   H6    S    
C45   O16   A    
C38   C39   A    
C37   C38   A    
C12   C15   A    
C13   C14   A    
O26   H18   S    
O13   C48   A    
C15   C16   A    
C22   C23   S    
O14   V3    S    
C7    H2    S    
C17   C18   A    
C15   C56   S    
O15   C47   A    
C58   O27   D    
C41   C42   A    
C19   C20   T    
O18   C47   A    
V3    O20   S    
C31   C32   A    
O8    V2    S    
C1    C25   S    
C58   O28   S    
C35   C37   A    
C56   H22   S    
C18   H3    S    
O1    V2    S    
C10   C14   A    
C4    C14   S    
C55   H21   S    
O7    V1    S    
C13   C18   A    
O9    C4    A    
O16   V4    S    
C5    C53   S    
C56   H23   S    
C33   C50   S    
C39   C44   A    
C30   C46   S    
C5    C10   A    
C32   C33   A    
O11   C46   A    
C11   C12   A    
C57   H26   S    
C52   O23   D    
C49   O22   S    
C6    C54   S    
C5    C6    A    
C12   C13   A    
V4    O20   S    
C31   C36   A    
O14   C46   A    
C20   C21   S    
O12   C45   A    
O2    C1    A    
C28   C29   S    
C16   C17   A    
C52   O24   S    
C50   H8    S    
O15   V3    S    
C35   C36   A    
C55   H20   S    
C44   C52   S    
O19   V4    S    
O3    C4    A    
C2    C40   S    
C33   C34   A    
C50   H9    S    
O6    V2    S    
C51   H12   S    
C43   C58   S    
C56   H24   S    
C9    C11   A    
C27   C28   T    
O2    V1    S    
O17   V4    S    
C37   C45   S    
C29   C30   T    
O4    C2    A    
O11   V4    S    
C38   C41   A    
C39   C40   A    
C25   C26   T    
C57   H25   S    
C31   H4    S    
O1    C2    A    
C16   C57   S    
O5    V1    S    
O8    C3    A    
C53   H16   S    
O13   V3    S    
C54   O25   D    
C6    C7    A    
O9    V2    S    
C43   C44   A    
O4    V1    S    
O3    V1    S    
V1    O10   S    
O28   H28   S    
O5    C3    A    
C11   C47   S    
C42   C43   A    
C23   C24   T    
C3    C24   S    
C57   H27   S    
C36   C40   A    
O12   V3    S    
O7    V2    S    
C49   O21   D    
C8    C55   S    
O17   V3    S    
C50   H10   S    
C7    C8    A    
C21   C22   T    
C34   C35   A    
C51   H13   S    
C55   H19   S    
O18   V4    S    
C9    C10   A    
C8    C9    A    
C54   O26   S    
V2    O10   S    
C19   C48   S    
