data_mof_unit_30989.cif
_audit_creation_date              2012-12-10T18:10:53-0500
_audit_creation_method            fapswitch 2.2
_symmetry_space_group_name_H-M    P1
_symmetry_Int_Tables_number       1
_space_group_crystal_system       triclinic
_cell_length_a                    12.71585
_cell_length_b                    13.137323
_cell_length_c                    15.724093
_cell_angle_alpha                 93.763986
_cell_angle_beta                  102.694913
_cell_angle_gamma                 81.968576
_cell_volume                      2535.73654086

loop_
_atom_site_label
_atom_site_type_symbol
_atom_type_description
_atom_site_fract_x
_atom_site_fract_y
_atom_site_fract_z
_atom_type_partial_charge
C1    C     C_R   0.439329 0.690548 0.485472 0.832068
C2    C     C_R   0.597415 0.199650 0.518265 -0.059286
C3    C     C_R   0.295586 0.838695 0.480447 -0.191214
C4    C     C_R   0.501153 0.501423 0.661431 0.885373
C5    C     C_R   0.264810 0.944121 0.484078 -0.158976
C6    C     C_R   0.340922 0.010714 0.484810 -0.194188
C7    C     C_R   0.448436 0.972166 0.476781 0.086324
C8    C     C_R   0.472759 0.866522 0.457626 0.086505
C9    C     C_R   0.533141 0.034220 0.488029 0.079600
C10   C     C_R   0.635760 0.993074 0.470035 0.182481
C11   C     C_R   0.651005 0.892804 0.436494 -0.260203
C12   C     C_3   0.384785 0.494986 0.026676 -0.613048
C13   C     C_R   0.569403 0.830840 0.428377 -0.207548
C14   C     C_R   0.519009 0.136016 0.517760 -0.267372
C15   C     C_R   0.701546 0.157672 0.508015 -0.183337
C16   C     C_R   0.560815 0.309388 0.514133 0.872907
C17   C     C_R   0.400824 0.799281 0.470558 -0.112301
C18   C     C_R   0.084150 0.379342 0.349857 0.457195
C19   C     C_R   0.802081 0.623459 0.610962 0.022950
C20   C     C_R   0.906129 0.650782 0.635163 -0.258150
C21   C     C_R   0.985119 0.606739 0.590589 -0.167773
C22   C     C_R   0.960547 0.534811 0.520587 -0.007989
C23   C     C_3   0.500632 0.501275 0.082629 0.182693
C24   C     C_R   0.852246 0.508891 0.496437 0.128253
C25   C     C_R   0.040199 0.486961 0.474694 -0.066691
C26   C     C_R   0.007560 0.430320 0.396095 -0.022610
C27   C     C_R   0.899679 0.420226 0.366051 -0.367987
C28   C     C_R   0.497358 0.502819 0.338489 0.892535
C29   C     C_R   0.825994 0.439095 0.421908 0.463055
C30   C     C_R   0.151761 0.492980 0.502968 -0.066359
C31   C     C_R   0.192153 0.389779 0.381038 -0.081629
C32   C     C_3   0.386076 0.497321 0.928976 -0.422588
C33   C     C_3   0.541390 0.604185 0.965396 -0.436884
C34   C     C_3   0.577924 0.406591 0.057017 0.456180
C35   C     C_3   0.538132 0.603948 0.063328 0.446583
C36   C     C_1   0.494775 0.501560 0.248819 -0.189129
C37   C     C_3   0.502620 0.504849 0.917860 0.223548
C38   C     C_3   0.743340 0.307046 0.109595 -0.383256
C39   C     C_3   0.047514 0.219621 0.293742 0.060723
C40   C     C_3   0.153690 0.150570 0.290840 -0.859158
C41   C     C_3   0.718095 0.324061 0.329625 0.094681
C42   C     C_3   0.619396 0.266011 0.316654 -0.849629
C43   C     C_3   0.641467 0.703562 0.169581 -0.304528
C44   C     C_3   0.579785 0.411036 0.958946 -0.454977
C45   C     C_1   0.496542 0.500455 0.173608 -0.045254
C46   C     C_1   0.503721 0.505694 0.826527 -0.064147
C47   C     C_1   0.503599 0.504266 0.751010 -0.187778
C48   C     C_R   0.720681 0.053971 0.483808 -0.239410
H1    H     H_    0.326873 0.560543 0.044141 0.203137
H2    H     H_    0.183200 0.974375 0.490691 0.138686
H3    H     H_    0.329341 0.564320 0.899460 0.189349
H4    H     H_    0.583137 0.754564 0.399288 0.169819
H5    H     H_    0.252681 0.356219 0.345070 0.160883
H6    H     H_    0.877922 0.385085 0.301874 0.187790
H7    H     H_    0.185023 0.535681 0.561175 0.138370
H8    H     H_    0.740308 0.657386 0.645569 0.137727
H9    H     H_    0.064042 0.632418 0.610802 0.132258
H10   H     H_    0.925571 0.706314 0.688341 0.147603
H11   H     H_    0.625276 0.610245 0.957704 0.206911
H12   H     H_    0.356763 0.426438 0.894670 0.192269
H13   H     H_    0.488285 0.672877 0.935270 0.130550
H14   H     H_    0.474775 0.668251 0.075542 0.034061
H15   H     H_    0.554914 0.338651 0.924409 0.132779
H16   H     H_    0.663600 0.416455 0.950758 0.204207
H17   H     H_    0.542735 0.336030 0.067118 0.041652
H18   H     H_    0.749940 0.277834 0.042775 0.169413
H19   H     H_    0.706379 0.252040 0.141185 0.142269
H20   H     H_    0.827024 0.310883 0.148056 0.215161
H21   H     H_    0.982084 0.190005 0.243286 0.156046
H22   H     H_    0.024902 0.213186 0.357748 0.122626
H23   H     H_    0.354857 0.422965 0.039486 0.203923
H24   H     H_    0.220098 0.173386 0.344049 0.238223
H25   H     H_    0.143869 0.069437 0.299402 0.221446
H26   H     H_    0.176095 0.156231 0.227079 0.266097
H27   H     H_    0.788066 0.264611 0.324093 0.114371
H28   H     H_    0.701147 0.378583 0.275743 0.204590
H29   H     H_    0.555023 0.306746 0.347509 0.263295
H30   H     H_    0.584233 0.256731 0.245840 0.200464
H31   H     H_    0.643331 0.187638 0.341773 0.242099
H32   H     H_    0.587142 0.700586 0.215769 0.149558
H33   H     H_    0.616111 0.773799 0.130482 0.144812
H34   H     H_    0.764633 0.206087 0.511031 0.189528
H35   H     H_    0.724736 0.708126 0.208756 0.198493
H36   H     H_    0.726386 0.861853 0.417446 0.147390
H37   H     H_    0.799644 0.022904 0.471359 0.136529
H38   H     H_    0.445049 0.169519 0.536879 0.155705
H39   H     H_    0.238041 0.788218 0.487997 0.158962
H40   H     H_    0.312523 0.091586 0.490262 0.129523
N1    N     N_R   0.222200 0.444690 0.455710 -0.136674
N2    N     N_R   0.776960 0.554780 0.543830 -0.120461
O1    O     O_R   0.366740 0.627160 0.478850 -0.611312
O2    O     O_3   0.054191 0.321772 0.273500 -0.623311
O3    O     O_3   0.739474 0.380224 0.411327 -0.562653
O4    O     O_3   0.643370 0.614197 0.114798 -0.540221
O5    O     O_R   0.544830 0.662520 0.507140 -0.624069
O6    O     O_R   0.410920 0.482310 0.608710 -0.614317
O7    O     O_R   0.589010 0.517670 0.637000 -0.620731
O8    O     O_R   0.455170 0.337480 0.492860 -0.627764
O9    O     O_R   0.633260 0.372840 0.521150 -0.544652
O10   O     O_R   0.410990 0.482330 0.363000 -0.621225
O11   O     O_R   0.589080 0.517690 0.391290 -0.562814
O12   O     O_3   0.684360 0.406592 0.109151 -0.547405
Zn1   Zn    Zn3+2 0.381090 0.476390 0.481110 0.933255
Zn2   Zn    Zn3+2 0.618910 0.523610 0.518890 0.975526

loop_
_geom_bond_atom_site_label_1
_geom_bond_atom_site_label_2
_ccdc_geom_bond_type
C19   H8    S    
C8    C13   A    
C23   C45   S    
C27   C29   A    
C43   H35   S    
C41   C42   S    
C19   C20   A    
C18   C26   A    
C12   H1    S    
C27   H6    S    
C7    C8    A    
C44   H16   S    
C12   C23   S    
C26   C27   A    
C34   O12   S    
C5    C6    A    
O8    Zn1   S    
C43   O4    S    
C6    H40   S    
C40   H25   S    
C24   C29   A    
C4    O6    A    
C28   O11   A    
C41   O3    S    
C38   H18   S    
C31   N1    A    
C22   C25   A    
C2    C16   S    
C9    C10   A    
C28   O10   A    
O9    Zn2   S    
C42   H31   S    
C33   H11   S    
C21   C22   A    
N1    Zn1   S    
C15   C48   A    
C30   N1    A    
C34   H17   S    
C15   H34   S    
C44   H15   S    
C3    H39   S    
C34   C44   S    
C38   H19   S    
C14   H38   S    
C39   C40   S    
C43   H32   S    
O10   Zn1   S    
C33   C37   S    
C9    C14   A    
C32   H3    S    
C21   H9    S    
C41   H27   S    
C13   H4    S    
C1    O5    A    
C23   C34   S    
C39   H21   S    
C36   C45   T    
C32   C37   S    
C31   H5    S    
C2    C15   A    
N2    Zn2   S    
C12   H23   S    
C38   H20   S    
C42   H30   S    
O11   Zn2   S    
C23   C35   S    
C10   C48   A    
C43   H33   S    
C22   C24   A    
C5    H2    S    
C32   H12   S    
C20   H10   S    
C39   O2    S    
O5    Zn2   S    
C35   O4    S    
C25   C30   A    
C7    C9    A    
C46   C47   T    
C40   H24   S    
O1    Zn1   S    
C3    C5    A    
C24   N2    A    
C16   O9    A    
C6    C7    A    
C11   H36   S    
C30   H7    S    
C1    C17   S    
C8    C17   A    
C18   O2    S    
C37   C44   S    
C25   C26   A    
C38   O12   S    
C19   N2    A    
C41   H28   S    
C29   O3    S    
C11   C13   A    
C16   O8    A    
C33   C35   S    
C39   H22   S    
C40   H26   S    
C3    C17   A    
C35   H14   S    
C2    C14   A    
O7    Zn2   S    
C10   C11   A    
C20   C21   A    
C28   C36   S    
C42   H29   S    
C33   H13   S    
C1    O1    A    
O6    Zn1   S    
C48   H37   S    
C18   C31   A    
C37   C46   S    
C4    O7    A    
C12   C32   S    
C4    C47   S    
