data_mof_unit_62360.cif
_audit_creation_date              2012-12-11T16:11:51-0500
_audit_creation_method            fapswitch 2.2
_symmetry_space_group_name_H-M    P1
_symmetry_Int_Tables_number       1
_space_group_crystal_system       triclinic
_cell_length_a                    19.82935
_cell_length_b                    19.903626
_cell_length_c                    20.855453
_cell_angle_alpha                 107.775014
_cell_angle_beta                  107.336358
_cell_angle_gamma                 111.15588
_cell_volume                      6492.15958886

loop_
_atom_site_label
_atom_site_type_symbol
_atom_type_description
_atom_site_fract_x
_atom_site_fract_y
_atom_site_fract_z
_atom_type_partial_charge
Br1   Br    Br    0.514209 0.352284 0.238672 -0.366933
Br2   Br    Br    0.960231 0.029852 0.073483 -0.319797
Br3   Br    Br    0.779666 0.671326 0.493095 -0.253956
Br4   Br    Br    0.913385 0.565394 0.286114 -0.398839
Br5   Br    Br    0.704626 0.117127 0.761594 -0.232216
Br6   Br    Br    0.407881 0.916598 0.523030 -0.280896
Br7   Br    Br    0.510244 0.650300 0.779189 -0.407465
Br8   Br    Br    0.438841 0.312013 0.875657 -0.292736
Br9   Br    Br    0.100515 0.222466 0.196837 -0.336543
Br10  Br    Br    0.937877 0.851687 0.086036 -0.337199
Br11  Br    Br    0.201623 0.933514 0.168827 -0.356088
C1    C     C_R   0.731746 0.690148 0.655117 0.816894
C2    C     C_R   0.571220 0.729374 0.500974 0.683286
C3    C     C_R   0.510339 0.447696 0.289897 0.430777
C4    C     C_R   0.463227 0.293669 0.529914 0.744497
C5    C     C_R   0.332572 0.568132 0.526830 -0.173129
C6    C     C_R   0.547937 0.518721 0.285291 0.028339
C7    C     C_R   0.256371 0.501333 0.477579 -0.160329
C8    C     C_R   0.545810 0.773457 0.542347 -0.355599
C9    C     C_R   0.270448 0.241716 0.284319 -0.097010
C10   C     C_3   0.002612 0.478250 0.457908 -0.099385
C11   C     C_3   0.992195 0.553713 0.476276 -0.165916
C12   C     C_R   0.517341 0.271849 0.514694 -0.133196
C13   C     C_1   0.787620 0.502684 0.427439 0.099392
C14   C     C_1   0.183066 0.502828 0.448152 0.123201
C15   C     C_3   0.920445 0.427786 0.385378 -0.168954
C16   C     C_R   0.504886 0.553700 0.715735 0.279710
C17   C     C_3   0.910418 0.503288 0.403846 0.038529
C18   C     C_3   0.963689 0.453368 0.339042 -0.166529
C19   C     C_3   0.045026 0.504142 0.412030 0.080097
C20   C     C_3   0.952471 0.529135 0.358072 0.391166
C21   C     C_3   0.035431 0.579941 0.430535 -0.177950
C22   C     C_1   0.840366 0.502975 0.411154 0.077479
C23   C     C_R   0.477865 0.483547 0.723610 0.132207
C24   C     C_1   0.120662 0.503714 0.427402 0.047072
C25   C     C_3   0.637854 0.086223 0.657265 0.180134
C26   C     C_3   0.665707 0.124820 0.609028 0.733414
C27   C     C_1   0.546647 0.226333 0.542088 0.110932
C28   C     C_R   0.660194 0.434608 0.434015 -0.163906
C29   C     C_1   0.573754 0.857229 0.567972 0.217010
C30   C     C_3   0.557781 0.088323 0.626656 0.645529
C31   C     C_3   0.586016 0.126614 0.579341 -0.548815
C32   C     C_3   0.516910 0.003552 0.559667 0.147489
C33   C     C_3   0.596904 0.001701 0.589451 -0.363223
C34   C     C_R   0.730024 0.502425 0.454420 -0.088173
C35   C     C_3   0.545844 0.041793 0.512797 0.708771
C36   C     C_3   0.625699 0.039472 0.541401 -0.395492
C37   C     C_1   0.568600 0.185092 0.562754 0.324861
C38   C     C_1   0.590485 0.925650 0.583434 0.290087
C39   C     C_R   0.575331 0.524219 0.228238 -0.333695
C40   C     C_R   0.440893 0.419163 0.652137 -0.099805
C41   C     C_R   0.520099 0.470894 0.151644 0.821510
C42   C     C_R   0.545701 0.470301 0.096644 -0.286655
C43   C     C_R   0.626634 0.523471 0.116956 -0.080992
C44   C     C_R   0.681304 0.578911 0.193006 -0.216544
C45   C     C_R   0.571351 0.582440 0.352745 -0.068068
C46   C     C_R   0.656199 0.578874 0.248798 0.752134
C47   C     C_R   0.630813 0.524778 0.908263 0.824343
C48   C     C_R   0.593454 0.533963 0.846247 -0.325368
C49   C     C_R   0.467291 0.412491 0.803073 0.763965
C50   C     C_R   0.504161 0.403024 0.865586 0.156490
C51   C     C_R   0.585917 0.460782 0.919892 -0.310701
C52   C     C_R   0.725816 0.569392 0.492847 0.454436
C53   C     C_2   0.649449 0.528582 0.057282 -0.026856
C54   C     C_2   0.618603 0.460807 0.993150 0.033905
C55   C     C_R   0.511446 0.478603 0.793715 -0.242143
C56   C     C_R   0.263987 0.432859 0.463711 0.785261
C57   C     C_R   0.813799 0.754247 0.797154 -0.312890
C58   C     C_R   0.825161 0.718861 0.845430 0.731683
C59   C     C_R   0.898080 0.759691 0.912214 -0.184542
C60   C     C_R   0.958756 0.837100 0.932122 -0.010339
C61   C     C_R   0.948316 0.870451 0.882144 -0.290417
C62   C     C_R   0.876434 0.829400 0.815014 0.840827
C63   C     C_R   0.169856 0.014723 0.175210 0.326486
C64   C     C_R   0.539206 0.303463 0.469356 -0.176616
C65   C     C_R   0.228950 0.096054 0.223765 -0.159914
C66   C     C_R   0.128019 0.137473 0.187938 0.309369
C67   C     C_R   0.500845 0.725585 0.566101 0.678266
C68   C     C_R   0.068492 0.055874 0.137764 0.272779
C69   C     C_R   0.089377 0.994195 0.131800 -0.238644
C70   C     C_2   0.032171 0.888331 0.005856 -0.153033
C71   C     C_2   0.029169 0.910476 0.072267 0.448305
C72   C     C_R   0.208514 0.157302 0.230017 -0.054089
C73   C     C_R   0.660040 0.684869 0.718872 -0.134902
C74   C     C_R   0.738163 0.711986 0.726799 -0.016435
C75   C     C_R   0.345034 0.285758 0.288257 0.795031
C76   C     C_R   0.274832 0.282463 0.352981 -0.097556
F1    F     F_    0.795156 0.704313 0.639367 -0.648224
F2    F     F_    0.440824 0.420283 0.129935 -0.620945
F3    F     F_    0.388048 0.357967 0.752204 -0.613785
F4    F     F_    0.710873 0.578411 0.956849 -0.628530
F5    F     F_    0.711287 0.630850 0.322386 -0.637974
F6    F     F_    0.766523 0.644386 0.827149 -0.669588
F7    F     F_    0.866824 0.864394 0.768857 -0.603808
F8    F     F_    0.201726 0.355290 0.423875 -0.683668
F9    F     F_    0.484220 0.753486 0.624072 -0.638392
F10   F     F_    0.373100 0.253616 0.242801 -0.639239
F11   F     F_    0.632728 0.761038 0.484333 -0.642940
F12   F     F_    0.415120 0.259477 0.558044 -0.672987
F13   F     F_    0.742130 0.188759 0.634725 -0.596498
F14   F     F_    0.497729 0.019065 0.438106 -0.598504
F15   F     F_    0.522829 0.114133 0.670092 -0.564082
H1    H     H_    0.234790 0.256089 0.374613 0.229115
H2    H     H_    0.595658 0.402889 0.994218 0.180897
H3    H     H_    0.743253 0.621801 0.209017 0.213168
H4    H     H_    0.672966 0.587901 0.059064 0.193511
H5    H     H_    0.501237 0.430138 0.037799 0.211220
H6    H     H_    0.638043 0.373491 0.392322 0.171955
H7    H     H_    0.290830 0.111566 0.257379 0.201855
H8    H     H_    0.994945 0.929944 0.896511 0.204589
H9    H     H_    0.086361 0.927775 0.004837 0.151646
H10   H     H_    0.906705 0.731313 0.948397 0.222007
H11   H     H_    0.405830 0.356292 0.637036 0.257403
H12   H     H_    0.347963 0.631111 0.549608 0.215935
H13   H     H_    0.579380 0.296268 0.445914 0.166385
H14   H     H_    0.644868 0.693531 0.764782 0.205744
H15   H     H_    0.612355 0.645971 0.372960 0.246919
H16   H     H_    0.003053 0.594693 0.532724 0.177355
H17   H     H_    0.024132 0.457328 0.499433 0.163312
H18   H     H_    0.083528 0.642173 0.448742 0.185490
H19   H     H_    0.953538 0.412756 0.282818 0.185753
H20   H     H_    0.872327 0.365504 0.367037 0.173550
H21   H     H_    0.653602 0.018926 0.506262 0.234017
H22   H     H_    0.629540 0.583367 0.838186 0.245222
N1    N     N_R   0.652650 0.649400 0.604520 -0.144631
N2    N     N_R   0.494060 0.532730 0.644340 -0.082170
N3    N     N_R   0.615090 0.459670 0.459940 -0.072648
N4    N     N_R   0.452360 0.449090 0.604500 -0.094958
N5    N     N_R   0.656790 0.543310 0.499790 -0.108277
N6    N     N_R   0.501350 0.345910 0.459930 -0.082672
N7    N     N_R   0.607810 0.646480 0.644360 -0.097917
N8    N     N_R   0.547640 0.550910 0.395500 -0.096692
N9    N     N_R   0.343210 0.456690 0.500210 -0.122622
N10   N     N_R   0.498650 0.654090 0.540070 -0.154044
N11   N     N_R   0.392190 0.353520 0.355640 -0.134508
N12   N     N_R   0.347350 0.350600 0.395480 -0.112161
N13   N     N_R   0.543500 0.657010 0.500230 -0.159292
N14   N     N_R   0.505940 0.467270 0.355660 -0.113254
N15   N     N_R   0.384910 0.540330 0.540060 -0.073399
N16   N     N_R   0.456500 0.342990 0.499770 -0.128625
Ni1   Ni    Ni4+2 0.599250 0.599260 0.500010 0.306274
Ni2   Ni    Ni4+2 0.400750 0.400740 0.499990 0.267777
Ni3   Ni    Ni4+2 0.496390 0.592570 0.591380 0.295847
Ni4   Ni    Ni4+2 0.503610 0.407430 0.408620 0.264895

loop_
_geom_bond_atom_site_label_1
_geom_bond_atom_site_label_2
_ccdc_geom_bond_type
C33   C38   S    
C47   C51   A    
C19   C21   S    
C10   C15   S    
Br5   C25   S    
C46   F5    S    
C30   C31   S    
N6    N16   A    
C23   C55   S    
N10   N13   A    
C70   C71   D    
C41   F2    S    
N11   N12   A    
C42   C43   A    
C23   C40   A    
C40   H11   S    
C63   C65   A    
C1    C74   A    
C44   H3    S    
C40   N4    A    
C25   C26   S    
C56   N9    A    
N16   Ni2   S    
C58   F6    S    
C48   C55   A    
C31   C35   S    
C16   N2    A    
N5    Ni1   S    
C66   C72   A    
N8    N14   A    
C29   C38   T    
C9    C76   A    
N2    Ni3   S    
N8    Ni1   S    
Br7   C16   S    
C30   F15   S    
C45   H15   S    
C26   C31   S    
C75   F10   S    
C42   H5    S    
N12   Ni2   S    
Br2   C68   S    
N10   Ni3   S    
C43   C44   A    
N15   Ni3   S    
C70   H9    S    
C67   F9    S    
C65   H7    S    
C9    C75   A    
C39   C41   A    
C59   C60   A    
C26   C36   S    
N6    Ni4   S    
C47   F4    S    
C27   C37   T    
C33   C36   S    
Br8   C50   S    
C28   C34   A    
C4    C12   A    
C49   C55   A    
C73   H14   S    
C11   C17   S    
C10   C11   S    
C56   F8    S    
C57   C74   S    
C30   C32   S    
C3    C6    A    
C25   C30   S    
C58   C59   A    
C7    C14   S    
C62   F7    S    
C21   H18   S    
C65   C72   A    
C66   C68   A    
C16   C23   A    
C28   H6    S    
C35   F14   S    
C61   H8    S    
C28   N3    A    
C1    F1    S    
C3    N14   A    
C73   C74   A    
C69   C71   S    
N1    Ni1   S    
C2    C8    A    
C57   C58   A    
C31   C37   S    
C1    N1    A    
C57   C62   A    
Br10  C71   S    
C18   H19   S    
C49   C50   A    
C2    N13   A    
C8    C67   A    
C32   C33   S    
N3    N5    A    
C18   C19   S    
N1    N7    A    
C36   H21   S    
C20   C21   S    
N9    Ni2   S    
Br9   C66   S    
C67   N10   A    
C6    C45   A    
C45   N8    A    
C11   C21   S    
C14   C24   T    
C76   H1    S    
C19   C24   S    
C5    C7    A    
N11   Ni4   S    
C17   C22   S    
N9    N15   A    
C49   F3    S    
Br6   C32   S    
C44   C46   A    
C25   C33   S    
C5    N15   A    
C64   H13   S    
C13   C34   S    
N7    Ni3   S    
C41   C42   A    
C4    N16   A    
C48   H22   S    
C11   H16   S    
N13   Ni1   S    
C35   C36   S    
N2    N4    A    
C51   C54   S    
C39   C46   A    
C76   N12   A    
C17   C20   S    
C12   C64   A    
C61   C62   A    
Br11  C63   S    
C5    H12   S    
C6    C39   S    
C64   N6    A    
C53   H4    S    
Br3   C52   S    
C12   C27   S    
C10   C19   S    
C73   N7    A    
C15   C17   S    
C13   C22   T    
C53   C54   D    
C7    C56   A    
C60   C61   A    
C18   C20   S    
N14   Ni4   S    
C4    F12   S    
C2    F11   S    
C43   C53   S    
C34   C52   A    
N3    Ni4   S    
C52   N5    A    
C50   C51   A    
C59   H10   S    
C32   C35   S    
C47   C48   A    
Br4   C20   S    
C8    C29   S    
C68   C69   A    
C75   N11   A    
C15   C18   S    
C10   H17   S    
C9    C72   S    
C63   C69   A    
Br1   C3    S    
C15   H20   S    
C54   H2    S    
N4    Ni2   S    
C26   F13   S    
C60   C70   S    
