data_mof_unit_6668.cif
_audit_creation_date              2012-12-10T17:53:21-0500
_audit_creation_method            fapswitch 2.2
_symmetry_space_group_name_H-M    P1
_symmetry_Int_Tables_number       1
_space_group_crystal_system       triclinic
_cell_length_a                    23.445588
_cell_length_b                    10.713998
_cell_length_c                    9.873615
_cell_angle_alpha                 89.381168
_cell_angle_beta                  90.470878
_cell_angle_gamma                 91.88009
_cell_volume                      2478.65594803

loop_
_atom_site_label
_atom_site_type_symbol
_atom_type_description
_atom_site_fract_x
_atom_site_fract_y
_atom_site_fract_z
_atom_type_partial_charge
C1    C     C_R   0.503315 0.259745 0.501937 0.870549
C2    C     C_R   0.121267 0.611594 0.540881 0.606349
C3    C     C_R   0.234884 0.539926 0.395351 0.373286
C4    C     C_R   0.389265 0.500942 0.499345 0.934101
C5    C     C_R   0.294461 0.541637 0.386997 0.331946
C6    C     C_R   0.326809 0.500596 0.499703 -0.214210
C7    C     C_R   0.299015 0.458926 0.617950 -0.316862
C8    C     C_R   0.239964 0.459843 0.627301 0.210894
C9    C     C_R   0.207997 0.500699 0.515790 0.125502
C10   C     C_R   0.761297 0.493588 0.629549 -0.145053
C11   C     C_R   0.702196 0.494252 0.627032 -0.152139
C12   C     C_R   0.967171 0.274675 0.493426 -0.120279
C13   C     C_R   0.672859 0.499498 0.502693 -0.122507
C14   C     C_R   0.703395 0.504029 0.380946 -0.246120
C15   C     C_R   0.762695 0.503504 0.383463 0.455871
C16   C     C_R   0.493806 0.738697 0.499675 0.908807
C17   C     C_R   0.791480 0.498196 0.508284 0.213101
C18   C     C_R   0.509858 0.107491 0.762248 -0.145511
C19   C     C_R   0.491143 0.044380 0.878813 -0.128149
C20   C     C_R   0.461071 0.931086 0.867700 -0.089136
C21   C     C_R   0.454912 0.875330 0.741418 -0.098369
C22   C     C_R   0.478663 0.933598 0.624229 0.105383
C23   C     C_R   0.026424 0.275377 0.495856 -0.102461
C24   C     C_R   0.498160 0.057908 0.631633 0.093054
C25   C     C_R   0.504861 0.125611 0.507468 -0.114217
C26   C     C_R   0.503749 0.063970 0.383360 -0.176493
C27   C     C_R   0.496379 0.936970 0.380397 -0.158847
C28   C     C_R   0.610658 0.500158 0.500582 0.929481
C29   C     C_R   0.485892 0.870940 0.500566 -0.120906
C30   C     C_R   0.424531 0.337006 0.140855 -0.168230
C31   C     C_R   0.387283 0.256663 0.070695 0.407743
C32   C     C_R   0.387327 0.256755 0.930429 -0.247715
C33   C     C_R   0.424712 0.336628 0.859910 -0.223043
C34   C     C_R   0.057998 0.388014 0.511097 -0.024745
C35   C     C_R   0.462849 0.419467 0.927737 0.089217
C36   C     C_R   0.462810 0.419597 0.072535 0.108131
C37   C     C_R   0.535366 0.577179 0.072069 -0.155431
C38   C     C_R   0.535475 0.577448 0.928939 0.408285
C39   C     C_R   0.881425 0.609552 0.530817 0.595016
C40   C     C_R   0.878954 0.388235 0.501612 0.573312
C41   C     C_R   0.938471 0.386611 0.506068 -0.016782
C42   C     C_R   0.969757 0.500245 0.522990 -0.008250
C43   C     C_R   0.941018 0.612574 0.536115 -0.091992
C44   C     C_3   0.201926 0.513619 0.844096 -0.592771
C45   C     C_R   0.029780 0.501423 0.525798 -0.060389
C46   C     C_R   0.061323 0.615561 0.541918 -0.127062
C47   C     C_R   0.031556 0.727962 0.556673 0.434382
C48   C     C_R   0.972109 0.725021 0.553503 -0.175864
C49   C     C_R   0.117392 0.390186 0.510009 0.597002
Cl1   Cl    Cl    0.800238 0.510589 0.229921 -0.542333
Cl2   Cl    Cl    0.340579 0.154726 0.159662 -0.534953
Cl3   Cl    Cl    0.583017 0.681319 0.845486 -0.576117
Cl4   Cl    Cl    0.064872 0.876708 0.578356 -0.475212
Cl5   Cl    Cl    0.193124 0.585554 0.254512 -0.482777
Cl6   Cl    Cl    0.326735 0.600382 0.236738 -0.506403
H1    H     H_    0.944002 0.186367 0.480804 0.207908
H2    H     H_    0.564120 0.639939 0.126821 0.180195
H3    H     H_    0.047376 0.187463 0.484897 0.228000
H4    H     H_    0.422106 0.331860 0.248215 0.223116
H5    H     H_    0.358637 0.193956 0.875364 0.196913
H6    H     H_    0.422799 0.329621 0.752620 0.226193
H7    H     H_    0.950240 0.811890 0.564175 0.221275
H8    H     H_    0.323155 0.426091 0.704518 0.192831
H9    H     H_    0.783821 0.489674 0.725634 0.180663
H10   H     H_    0.232217 0.341816 0.792914 0.258186
H11   H     H_    0.178463 0.472811 0.932114 0.270258
H12   H     H_    0.679604 0.490570 0.722302 0.204770
H13   H     H_    0.175452 0.586762 0.797465 0.255138
H14   H     H_    0.242929 0.556601 0.880770 0.260622
H15   H     H_    0.681408 0.508363 0.284164 0.197448
H16   H     H_    0.509488 0.113490 0.287878 0.170325
H17   H     H_    0.535061 0.192289 0.777595 0.174978
H18   H     H_    0.499040 0.084733 0.977559 0.142867
H19   H     H_    0.444280 0.884327 0.957312 0.165267
H20   H     H_    0.431449 0.786820 0.736419 0.160878
H21   H     H_    0.500180 0.890548 0.284053 0.177024
N1    N     N_R   0.852078 0.498683 0.513139 -0.347054
N2    N     N_R   0.147321 0.500607 0.523854 -0.337840
N3    N     N_R   0.499460 0.498800 0.142780 -0.130303
N4    N     N_R   0.499440 0.498720 0.857170 -0.152307
N5    N     N_2   0.212552 0.416521 0.747771 -0.299677
O1    O     O_R   0.500000 0.316780 0.614690 -0.662059
O2    O     O_R   0.583850 0.500050 0.614640 -0.575903
O3    O     O_R   0.583840 0.500030 0.385310 -0.625345
O4    O     O_2   0.852854 0.716210 0.542626 -0.510757
O5    O     O_2   0.848030 0.280813 0.485711 -0.514077
O6    O     O_2   0.145313 0.283212 0.493634 -0.490254
O7    O     O_2   0.153857 0.716608 0.555742 -0.445342
O8    O     O_R   0.500000 0.316750 0.385360 -0.644112
O9    O     O_R   0.416160 0.499970 0.614690 -0.655155
O10   O     O_R   0.416150 0.499950 0.385360 -0.583021
O11   O     O_R   0.500000 0.683250 0.614640 -0.580505
O12   O     O_R   0.500000 0.683220 0.385310 -0.614201
Zn1   Zn    Zn3+2 0.500000 0.500020 0.653130 0.981605
Zn2   Zn    Zn3+2 0.500000 0.499980 0.346870 0.981368

loop_
_geom_bond_atom_site_label_1
_geom_bond_atom_site_label_2
_ccdc_geom_bond_type
C23   H3    S    
O1    Zn1   S    
C22   C29   A    
C28   O3    A    
C41   C42   A    
C49   O6    S    
C44   H11   S    
C19   C20   A    
C7    C8    A    
C45   C46   A    
C2    C46   A    
C37   N3    A    
C12   C23   A    
C16   O12   A    
C37   C38   A    
C3    C9    A    
C39   N1    A    
C5    C6    A    
C3    Cl5   S    
C27   C29   A    
C10   C17   A    
C35   N4    A    
C49   N2    A    
C18   C19   A    
C15   Cl1   S    
C40   O5    S    
H10   N5    S    
C31   C32   A    
C8    C9    A    
C13   C28   S    
C2    O7    S    
C18   C24   A    
C43   C48   A    
C47   Cl4   S    
C4    O10   A    
O12   Zn2   S    
C21   C22   A    
C28   O2    A    
C1    C25   S    
C26   H16   S    
C14   H15   S    
C17   N1    S    
C11   H12   S    
O9    Zn1   S    
C4    O9    A    
C18   H17   S    
C8    N5    S    
C19   H18   S    
C24   C25   A    
C4    C6    S    
C44   N5    S    
C39   C43   A    
C25   C26   A    
O2    Zn1   S    
C35   C36   A    
O8    Zn2   S    
N3    Zn2   S    
C12   C41   A    
C2    N2    A    
C48   H7    S    
C47   C48   A    
C23   C34   A    
C30   H4    S    
O11   Zn1   S    
C26   C27   A    
C20   H19   S    
C44   H14   S    
C34   C45   A    
C7    H8    S    
C12   H1    S    
C40   C41   A    
C16   O11   A    
C22   C24   A    
C44   H13   S    
C42   C43   A    
C39   O4    S    
N4    Zn1   S    
C27   H21   S    
C15   C17   A    
C46   C47   A    
C34   C49   A    
C1    O8    A    
C14   C15   A    
C5    Cl6   S    
C10   H9    S    
C31   Cl2   S    
C3    C5    A    
C36   N3    A    
C6    C7    A    
C21   H20   S    
C30   C36   A    
C32   C33   A    
C1    O1    A    
C11   C13   A    
C30   C31   A    
C38   N4    A    
C33   C35   A    
C9    N2    S    
C10   C11   A    
C42   C45   A    
O10   Zn2   S    
C38   Cl3   S    
C20   C21   A    
C16   C29   S    
C33   H6    S    
C32   H5    S    
C40   N1    A    
C13   C14   A    
O3    Zn2   S    
C37   H2    S    
