data_mof_unit_13225.cif
_audit_creation_date              2012-12-11T17:12:44-0500
_audit_creation_method            fapswitch 2.2
_symmetry_space_group_name_H-M    P1
_symmetry_Int_Tables_number       1
_space_group_crystal_system       triclinic
_cell_length_a                    17.1133
_cell_length_b                    6.88629
_cell_length_c                    14.673743
_cell_angle_alpha                 90.000204
_cell_angle_beta                  110.155451
_cell_angle_gamma                 89.999711
_cell_volume                      1623.36104346

loop_
_atom_site_label
_atom_site_type_symbol
_atom_type_description
_atom_site_fract_x
_atom_site_fract_y
_atom_site_fract_z
_atom_type_partial_charge
O1    O     O_R   0.314130 0.635770 0.168990 -0.542583
O2    O     O_R   0.685870 0.364230 0.831010 -0.540994
O3    O     O_R   0.185870 0.135770 0.331010 -0.542584
O4    O     O_R   0.814130 0.864230 0.668990 -0.540997
O5    O     O_R   0.146800 0.302460 0.139760 -0.539551
O6    O     O_R   0.853200 0.697540 0.860240 -0.540618
O7    O     O_R   0.353200 0.802460 0.360240 -0.539549
O8    O     O_R   0.646800 0.197540 0.639760 -0.540616
C1    C     C_R   0.113962 0.475935 0.112810 0.714881
C2    C     C_R   0.886154 0.524035 0.886992 0.737514
C3    C     C_R   0.386038 0.975935 0.387190 0.714881
C4    C     C_R   0.613846 0.024036 0.613008 0.737507
O9    O     O_R   0.311100 0.305780 0.157130 -0.541699
O10   O     O_R   0.688900 0.694220 0.842870 -0.543518
O11   O     O_R   0.188900 0.805780 0.342870 -0.541698
O12   O     O_R   0.811100 0.194220 0.657130 -0.543513
O13   O     O_R   0.351340 0.139640 0.348510 -0.536044
O14   O     O_R   0.648660 0.860360 0.651490 -0.540593
O15   O     O_R   0.148660 0.639640 0.151490 -0.536043
O16   O     O_R   0.851340 0.360360 0.848510 -0.540591
C5    C     C_R   0.333892 0.475099 0.137788 0.733468
C6    C     C_R   0.665470 0.525639 0.861476 0.787142
C7    C     C_R   0.166109 0.975100 0.362214 0.733467
C8    C     C_R   0.834529 0.025638 0.638523 0.787140
C9    C     C_1   0.533365 0.008587 0.533424 -0.208053
C10   C     C_1   0.466338 0.991255 0.467073 -0.220301
C11   C     C_1   0.966634 0.508587 0.966578 -0.208050
C12   C     C_1   0.033661 0.491256 0.032929 -0.220304
O17   O     O_3   0.263010 0.470920 0.312770 -0.372545
O18   O     O_3   0.736990 0.529080 0.687230 -0.376687
O19   O     O_3   0.236990 0.970920 0.187230 -0.372544
O20   O     O_3   0.763010 0.029080 0.812770 -0.376683
V1    V     V_3+5 0.247590 0.194450 0.238360 1.421653
V2    V     V_3+5 0.752410 0.805550 0.761640 1.432754
V3    V     V_3+5 0.252410 0.694450 0.261640 1.421657
V4    V     V_3+5 0.747590 0.305550 0.738360 1.432757
C13   C     C_R   0.115721 0.987593 0.426165 -0.195267
C14   C     C_R   0.885102 0.019170 0.574753 -0.132544
C15   C     C_R   0.384282 0.487589 0.073839 -0.195270
C16   C     C_R   0.614898 0.519169 0.925247 -0.132539
C17   C     C_R   0.890369 0.038935 0.411876 0.178115
C18   C     C_R   0.110617 0.019659 0.588660 0.232768
C19   C     C_R   0.609640 0.538855 0.088131 0.178112
C20   C     C_R   0.389387 0.519688 0.911347 0.232774
C21   C     C_R   0.845217 0.041691 0.475349 0.186040
C22   C     C_R   0.156113 0.004349 0.526233 0.195480
C23   C     C_R   0.654788 0.541638 0.024653 0.186036
C24   C     C_R   0.343891 0.504367 0.973772 0.195478
C25   C     C_R   0.972415 0.003001 0.613738 -0.105686
C26   C     C_R   0.028172 0.995926 0.386519 -0.074994
C27   C     C_R   0.527586 0.503016 0.886264 -0.105691
C28   C     C_R   0.471832 0.495902 0.113486 -0.074991
C29   C     C_R   0.021294 0.010975 0.551694 -0.045866
C30   C     C_R   0.979306 0.014384 0.448350 -0.012813
C31   C     C_R   0.478710 0.510981 0.948311 -0.045867
C32   C     C_R   0.520701 0.514353 0.051656 -0.012810
C33   C     C_R   0.990608 0.969105 0.280625 0.106344
C34   C     C_R   0.979601 0.128219 0.217610 -0.133903
C35   C     C_R   0.938796 0.102716 0.118170 -0.133748
C36   C     C_R   0.913059 0.918020 0.080992 -0.078290
C37   C     C_R   0.928752 0.757479 0.143005 -0.141774
C38   C     C_R   0.967583 0.782460 0.242725 -0.141396
H1    H     H_    0.998899 0.272386 0.246028 0.098422
H2    H     H_    0.925412 0.226150 0.070083 0.123484
H3    H     H_    0.880339 0.900704 0.004327 0.152816
H4    H     H_    0.909356 0.614021 0.114358 0.128246
H5    H     H_    0.977840 0.657930 0.290538 0.107691
C39   C     C_R   0.009207 0.958856 0.718357 0.083453
C40   C     C_R   0.020348 0.106178 0.787923 -0.150459
C41   C     C_R   0.058077 0.063299 0.886378 -0.113871
C42   C     C_R   0.082650 0.873453 0.915771 -0.090103
C43   C     C_R   0.068373 0.725059 0.846841 -0.126539
C44   C     C_R   0.031273 0.767065 0.748356 -0.118809
H6    H     H_    0.002045 0.254204 0.765618 0.100728
H7    H     H_    0.069167 0.177139 0.939853 0.122059
H8    H     H_    0.112594 0.841821 0.991978 0.135539
H9    H     H_    0.086113 0.577252 0.869432 0.119712
H10   H     H_    0.021172 0.651480 0.695447 0.110980
C45   C     C_R   0.509393 0.469105 0.219382 0.106360
C46   C     C_R   0.520411 0.628244 0.282386 -0.133906
C47   C     C_R   0.561218 0.602767 0.381827 -0.133753
C48   C     C_R   0.586947 0.418075 0.419019 -0.078281
C49   C     C_R   0.571244 0.257512 0.357018 -0.141754
C50   C     C_R   0.532407 0.282464 0.257296 -0.141413
H11   H     H_    0.501121 0.772408 0.253957 0.098419
H12   H     H_    0.574612 0.726219 0.429904 0.123474
H13   H     H_    0.619671 0.400778 0.495685 0.152815
H14   H     H_    0.590640 0.114060 0.385674 0.128242
H15   H     H_    0.522142 0.157917 0.209493 0.107683
C51   C     C_R   0.490791 0.458873 0.781645 0.083445
C52   C     C_R   0.479652 0.606192 0.712078 -0.150459
C53   C     C_R   0.441924 0.563311 0.613623 -0.113868
C54   C     C_R   0.417349 0.373465 0.584231 -0.090108
C55   C     C_R   0.431624 0.225075 0.653161 -0.126543
C56   C     C_R   0.468721 0.267083 0.751646 -0.118800
H16   H     H_    0.497957 0.754217 0.734382 0.100728
H17   H     H_    0.430836 0.677148 0.560147 0.122062
H18   H     H_    0.387406 0.341830 0.508023 0.135540
H19   H     H_    0.413884 0.077267 0.630572 0.119716
H20   H     H_    0.478821 0.151500 0.804556 0.110982
N1    N     N_3   0.245285 0.010121 0.566672 -0.631047
H21   H     H_    0.265740 0.127145 0.535492 0.215821
H22   H     H_    0.268929 0.881949 0.548047 0.210915
N2    N     N_3   0.756607 0.067461 0.438231 -0.694663
H23   H     H_    0.730319 0.956366 0.388496 0.242883
H24   H     H_    0.743701 0.200447 0.401710 0.255952
N3    N     N_3   0.254719 0.510155 0.933333 -0.631052
H25   H     H_    0.234267 0.627182 0.964515 0.215832
H26   H     H_    0.231072 0.381985 0.951954 0.210910
N4    N     N_3   0.743400 0.567372 0.061770 -0.694667
H27   H     H_    0.769683 0.456237 0.111482 0.242906
H28   H     H_    0.756317 0.700331 0.098317 0.255942
N5    N     N_3   0.842778 0.076777 0.311998 -0.691085
H29   H     H_    0.864885 0.200842 0.288057 0.240118
H30   H     H_    0.839503 0.954315 0.269099 0.255880
N6    N     N_3   0.158320 0.064303 0.687821 -0.617011
H31   H     H_    0.134773 0.188391 0.710106 0.239960
H32   H     H_    0.161840 0.944636 0.732554 0.262220
N7    N     N_3   0.657244 0.576582 0.188017 -0.691084
H33   H     H_    0.635175 0.700660 0.211992 0.240127
H34   H     H_    0.660498 0.454086 0.230888 0.255892
N8    N     N_3   0.341687 0.564370 0.812188 -0.617012
H35   H     H_    0.365241 0.688456 0.789913 0.239960
H36   H     H_    0.338159 0.444714 0.767446 0.262215

loop_
_geom_bond_atom_site_label_1
_geom_bond_atom_site_label_2
_ccdc_geom_bond_type
C2    C11   S    
C16   C23   A    
C31   C32   A    
O1    C5    A    
N1    H21   S    
C25   C39   S    
O3    C7    A    
N2    H24   S    
C47   C48   A    
C51   C52   A    
C33   C38   A    
C14   C25   A    
C29   C30   A    
O7    C3    A    
C35   H2    S    
C54   C55   A    
C38   H5    S    
O20   V4    S    
C40   C41   A    
C18   C29   A    
C18   C22   A    
C45   C50   A    
O4    C8    A    
C24   N3    S    
O3    V1    S    
C48   H13   S    
O17   V1    S    
N6    H31   S    
O8    V4    S    
N4    H27   S    
C14   C21   A    
C43   H9    S    
C52   H16   S    
C37   H4    S    
C1    O15   A    
C2    O16   A    
C39   C40   A    
O5    V1    S    
O2    C6    A    
C8    C14   S    
C44   H10   S    
O19   V1    S    
C41   C42   A    
C28   C45   S    
C47   H12   S    
C13   C22   A    
C39   C44   A    
O11   C7    A    
C49   H14   S    
C35   C36   A    
N1    H22   S    
N3    H26   S    
C55   C56   A    
O13   V1    S    
O11   V3    S    
N2    H23   S    
C53   H17   S    
N7    H34   S    
C22   N1    S    
O4    V2    S    
O18   V2    S    
C51   C56   A    
C52   C53   A    
C56   H20   S    
C43   C44   A    
C3    C10   S    
C9    C10   T    
C7    C13   S    
O6    V2    S    
C36   C37   A    
O20   V2    S    
O9    V1    S    
C46   H11   S    
C21   N2    S    
C49   C50   A    
C5    C15   S    
O8    C4    A    
C6    C16   S    
O9    C5    A    
C40   H6    S    
C26   C30   A    
O14   V2    S    
C18   N6    S    
C36   H3    S    
O19   V3    S    
C50   H15   S    
N3    H25   S    
N8    H36   S    
C23   N4    S    
C41   H7    S    
O1    V3    S    
N5    H29   S    
O2    V4    S    
C34   H1    S    
C3    O13   A    
C26   C33   S    
O7    V3    S    
C17   N5    S    
C46   C47   A    
O10   V2    S    
O6    C2    A    
N7    H33   S    
C16   C27   A    
O17   V3    S    
O18   V4    S    
C4    C9    S    
O10   C6    A    
C34   C35   A    
C42   C43   A    
C27   C51   S    
O15   V3    S    
O12   V4    S    
C13   C26   A    
C20   C31   A    
C33   C34   A    
C42   H8    S    
C55   H19   S    
C25   C29   A    
C20   N8    S    
C53   C54   A    
N6    H32   S    
C15   C28   A    
C27   C31   A    
C37   C38   A    
N4    H28   S    
C17   C30   A    
C45   C46   A    
O16   V4    S    
C28   C32   A    
C19   C32   A    
O12   C8    A    
C48   C49   A    
C4    O14   A    
C11   C12   T    
C17   C21   A    
O5    C1    A    
N8    H35   S    
C19   C23   A    
C54   H18   S    
C20   C24   A    
C1    C12   S    
C19   N7    S    
C15   C24   A    
N5    H30   S    
