data_mof_unit_59658.cif
_audit_creation_date              2012-12-10T20:47:09-0500
_audit_creation_method            fapswitch 2.2
_symmetry_space_group_name_H-M    P1
_symmetry_Int_Tables_number       1
_space_group_crystal_system       triclinic
_cell_length_a                    10.687767
_cell_length_b                    8.935911
_cell_length_c                    8.098675
_cell_angle_alpha                 89.984107
_cell_angle_beta                  88.097892
_cell_angle_gamma                 90.102765
_cell_volume                      773.035957822

loop_
_atom_site_label
_atom_site_type_symbol
_atom_type_description
_atom_site_fract_x
_atom_site_fract_y
_atom_site_fract_z
_atom_type_partial_charge
C1    C     C_R   0.500202 0.217961 0.499984 0.936713
C2    C     C_R   0.054514 0.528638 0.658656 -0.017903
C3    C     C_R   0.124386 0.477558 0.516532 -0.059807
C4    C     C_R   0.873051 0.530918 0.492277 -0.066214
C5    C     C_R   0.064991 0.442158 0.370807 -0.229528
C6    C     C_R   0.938770 0.463040 0.361088 -0.230985
C7    C     C_1   0.500153 0.065170 0.500012 -0.180539
C8    C     C_1   0.500013 0.934811 0.499977 -0.170267
C9    C     C_R   0.499789 0.782035 0.499971 0.968920
C10   C     C_R   0.258753 0.489054 0.504545 0.887882
C11   C     C_R   0.740097 0.514453 0.497329 0.951603
C12   C     C_R   0.097209 0.528196 0.823433 0.480529
C13   C     C_R   0.878059 0.683552 0.749356 0.467539
C14   C     C_R   0.037327 0.620090 0.942665 -0.322856
C15   C     C_R   0.932535 0.702725 0.903275 -0.286706
C16   C     C_R   0.934279 0.583527 0.632646 -0.025095
H1    H     H_    0.116229 0.396779 0.264688 0.165712
H2    H     H_    0.892442 0.423785 0.252154 0.182039
H3    H     H_    0.203881 0.440528 0.988452 0.323995
H4    H     H_    0.748258 0.830451 0.802244 0.333811
H5    H     H_    0.071089 0.626488 0.066988 0.173895
H6    H     H_    0.890661 0.776674 0.995407 0.166678
N1    N     N_1   0.500000 0.500000 0.073640 -0.036876
N2    N     N_1   0.500000 0.500000 0.926360 -0.017726
O1    O     O_R   0.500000 0.285350 0.636850 -0.607284
O2    O     O_3   0.774900 0.766640 0.707334 -0.773692
O3    O     O_R   0.500000 0.714650 0.636850 -0.599483
O4    O     O_R   0.500000 0.285360 0.363100 -0.620047
O5    O     O_R   0.500000 0.714640 0.363100 -0.625057
O6    O     O_R   0.316770 0.500000 0.636900 -0.566265
O7    O     O_R   0.683230 0.500000 0.636900 -0.593589
O8    O     O_R   0.316780 0.500000 0.363150 -0.643719
O9    O     O_R   0.683220 0.500000 0.363150 -0.642611
O10   O     O_3   0.183895 0.423567 0.871257 -0.740176
Zn1   Zn    Zn3+2 0.500000 0.500000 0.682780 1.033869
Zn2   Zn    Zn3+2 0.500000 0.500000 0.317220 0.983241

loop_
_geom_bond_atom_site_label_1
_geom_bond_atom_site_label_2
_ccdc_geom_bond_type
C4    C16   A    
C1    O4    A    
N1    N2    T    
C2    C16   A    
C10   O6    A    
C9    O5    A    
C2    C12   A    
C2    C3    A    
C11   O7    A    
C7    C8    T    
C3    C10   S    
C4    C11   S    
C1    O1    A    
O5    Zn2   S    
O4    Zn2   S    
H4    O2    S    
O6    Zn1   S    
O1    Zn1   S    
O8    Zn2   S    
C14   H5    S    
C12   C14   A    
C13   C15   A    
C5    C6    A    
C6    H2    S    
O7    Zn1   S    
C13   O2    S    
N2    Zn1   S    
C5    H1    S    
C12   O10   S    
C10   O8    A    
C11   O9    A    
O9    Zn2   S    
C9    O3    A    
C4    C6    A    
N1    Zn2   S    
C13   C16   A    
C14   C15   A    
O3    Zn1   S    
C1    C7    S    
C15   H6    S    
C8    C9    S    
C3    C5    A    
H3    O10   S    
