data_mof_unit_32445.cif
_audit_creation_date              2012-12-11T14:41:13-0500
_audit_creation_method            fapswitch 2.2
_symmetry_space_group_name_H-M    P1
_symmetry_Int_Tables_number       1
_space_group_crystal_system       triclinic
_cell_length_a                    24.673723
_cell_length_b                    17.541329
_cell_length_c                    15.560692
_cell_angle_alpha                 89.621226
_cell_angle_beta                  129.81667
_cell_angle_gamma                 90.760233
_cell_volume                      5172.52690553

loop_
_atom_site_label
_atom_site_type_symbol
_atom_type_description
_atom_site_fract_x
_atom_site_fract_y
_atom_site_fract_z
_atom_type_partial_charge
C1    C     C_R   0.333621 0.388673 0.199875 -0.160761
C2    C     C_R   0.346845 0.636346 0.232785 -0.135995
C3    C     C_R   0.833612 0.888722 0.199825 -0.160984
C4    C     C_R   0.846851 0.136354 0.232793 -0.135993
C5    C     C_R   0.649039 0.370522 0.862351 0.119194
C6    C     C_R   0.626169 0.675953 0.802760 0.116687
C7    C     C_R   0.148824 0.870182 0.862015 0.135707
C8    C     C_R   0.126190 0.175912 0.802839 0.118543
C9    C     C_R   0.662141 0.341994 0.498646 0.063765
C10   C     C_R   0.685337 0.616318 0.503082 0.037479
C11   C     C_R   0.162381 0.842345 0.498636 0.063209
C12   C     C_R   0.185352 0.116205 0.503131 0.037459
C13   C     C_R   0.361468 0.314665 0.500123 0.040774
C14   C     C_R   0.320882 0.627430 0.496423 0.012821
C15   C     C_R   0.861818 0.814281 0.499910 0.048730
C16   C     C_R   0.820884 0.127414 0.496445 0.015816
C17   C     C_3   0.354353 0.227865 0.620985 -0.458145
C18   C     C_3   0.322057 0.753525 0.559870 -0.391179
C19   C     C_3   0.854617 0.727495 0.620806 -0.453321
C20   C     C_3   0.821892 0.253468 0.559788 -0.390534
C21   C     C_3   0.808362 0.667913 0.619892 -0.446960
C22   C     C_3   0.778718 0.314075 0.561184 -0.467771
C23   C     C_3   0.308240 0.168070 0.620017 -0.445953
C24   C     C_3   0.278951 0.814238 0.561253 -0.467635
C25   C     C_3   0.247695 0.299548 0.457514 0.476537
C26   C     C_3   0.247906 0.648083 0.554945 0.424403
C27   C     C_3   0.748065 0.799419 0.457586 0.476549
C28   C     C_3   0.747938 0.147884 0.555086 0.424954
C29   C     C_3   0.298085 0.186006 0.425747 -0.184703
C30   C     C_3   0.212578 0.706106 0.372708 -0.208093
C31   C     C_3   0.798108 0.685725 0.425450 -0.185424
C32   C     C_3   0.712441 0.205895 0.372724 -0.208367
C33   C     C_3   0.316561 0.257845 0.500232 0.205858
C34   C     C_3   0.275713 0.681001 0.495650 0.240739
C35   C     C_3   0.816824 0.757541 0.500083 0.202060
C36   C     C_3   0.775648 0.180877 0.495674 0.240185
C37   C     C_3   0.733781 0.665246 0.502297 0.308888
C38   C     C_3   0.702534 0.283964 0.496990 0.316312
C39   C     C_3   0.233688 0.165296 0.502377 0.309597
C40   C     C_3   0.202726 0.784258 0.496969 0.315999
C41   C     C_3   0.704228 0.748313 0.473221 -0.287769
C42   C     C_3   0.703788 0.210367 0.555120 -0.243001
C43   C     C_3   0.203961 0.248312 0.473208 -0.288247
C44   C     C_3   0.203841 0.710669 0.554997 -0.242894
C45   C     C_R   0.667331 0.390221 0.797821 -0.132583
C46   C     C_R   0.654532 0.635627 0.763911 -0.135262
C47   C     C_R   0.167154 0.889802 0.797491 -0.138937
C48   C     C_R   0.154542 0.135612 0.763950 -0.134528
C49   C     C_3   0.743074 0.635472 0.418482 -0.483270
C50   C     C_3   0.670247 0.266837 0.374688 -0.479554
C51   C     C_3   0.243084 0.135622 0.418654 -0.484219
C52   C     C_3   0.170456 0.767150 0.374672 -0.479028
C53   C     C_2   0.696513 0.337497 0.974770 -0.246335
C54   C     C_2   0.658158 0.744881 0.872232 -0.251132
C55   C     C_2   0.196338 0.837290 0.974509 -0.240465
C56   C     C_2   0.158181 0.244831 0.872327 -0.251862
C57   C     C_2   0.766475 0.351380 0.046029 0.038520
C58   C     C_2   0.690581 0.798329 0.856192 0.074273
C59   C     C_2   0.266298 0.851207 0.045699 0.030724
C60   C     C_2   0.190564 0.298305 0.856245 0.074355
C61   C     C_2   0.345314 0.744204 0.123152 -0.244406
C62   C     C_2   0.305757 0.334613 0.024539 -0.270986
C63   C     C_2   0.845358 0.244253 0.123239 -0.244574
C64   C     C_2   0.805764 0.834658 0.024496 -0.270703
C65   C     C_2   0.311951 0.796814 0.136513 0.049768
C66   C     C_2   0.237342 0.353500 0.946010 0.052715
C67   C     C_2   0.812082 0.296896 0.136734 0.048314
C68   C     C_2   0.737345 0.853530 0.945957 0.052613
C69   C     C_R   0.602476 0.375077 0.405575 -0.144507
C70   C     C_R   0.617696 0.597621 0.409923 -0.142255
C71   C     C_R   0.102645 0.875330 0.405577 -0.144475
C72   C     C_R   0.117723 0.097518 0.409952 -0.142504
C73   C     C_R   0.413835 0.357583 0.593013 -0.057464
C74   C     C_R   0.386446 0.604538 0.590360 -0.086923
C75   C     C_R   0.914263 0.857128 0.592824 -0.069542
C76   C     C_R   0.886455 0.104533 0.590377 -0.092301
C77   C     C_R   0.677989 0.373627 0.593430 -0.150823
C78   C     C_R   0.690100 0.601751 0.594355 -0.154308
C79   C     C_R   0.178150 0.873859 0.593418 -0.149988
C80   C     C_R   0.190105 0.101680 0.594383 -0.154460
C81   C     C_R   0.338077 0.357168 0.406935 -0.124918
C82   C     C_R   0.314175 0.607632 0.405066 -0.177285
C83   C     C_R   0.838265 0.857028 0.406850 -0.122750
C84   C     C_R   0.814180 0.107645 0.405077 -0.176432
C85   C     C_R   0.579511 0.392818 0.803711 0.010140
C86   C     C_R   0.566266 0.635522 0.769744 0.035999
C87   C     C_R   0.079593 0.893261 0.804122 0.006144
C88   C     C_R   0.066284 0.135480 0.769807 0.034426
C89   C     C_R   0.422927 0.389010 0.197738 0.041285
C90   C     C_R   0.435757 0.636773 0.228539 0.030202
C91   C     C_R   0.922936 0.889013 0.197743 0.040912
C92   C     C_R   0.935759 0.136772 0.228540 0.029899
C93   C     C_R   0.352712 0.367796 0.137143 0.103631
C94   C     C_R   0.375825 0.676053 0.193355 0.116668
C95   C     C_R   0.852711 0.867838 0.137105 0.103680
C96   C     C_R   0.875832 0.176059 0.193362 0.116970
H1    H     H_    0.280831 0.388566 0.172222 0.096810
H2    H     H_    0.297378 0.647530 0.214000 0.105935
H3    H     H_    0.780813 0.888652 0.172134 0.096762
H4    H     H_    0.797393 0.147555 0.214033 0.105648
H5    H     H_    0.406229 0.202700 0.657143 0.158871
H6    H     H_    0.342867 0.777259 0.519297 0.159762
H7    H     H_    0.906373 0.702096 0.656756 0.160401
H8    H     H_    0.842623 0.277270 0.519130 0.159729
H9    H     H_    0.833297 0.610855 0.642009 0.171909
H10   H     H_    0.778732 0.367442 0.521996 0.168716
H11   H     H_    0.333317 0.111093 0.642147 0.171671
H12   H     H_    0.279061 0.867582 0.522124 0.168670
H13   H     H_    0.305619 0.184548 0.686120 0.154971
H14   H     H_    0.304250 0.827891 0.649606 0.163636
H15   H     H_    0.805796 0.684522 0.686014 0.155348
H16   H     H_    0.804036 0.327735 0.649543 0.163705
H17   H     H_    0.710032 0.770145 0.546006 0.157491
H18   H     H_    0.730311 0.225483 0.643726 0.155831
H19   H     H_    0.209720 0.270117 0.545964 0.157738
H20   H     H_    0.230364 0.725756 0.643613 0.155914
H21   H     H_    0.347368 0.152557 0.468537 0.155057
H22   H     H_    0.234857 0.732351 0.335513 0.150527
H23   H     H_    0.847308 0.652156 0.468050 0.155180
H24   H     H_    0.734652 0.232210 0.335460 0.150174
H25   H     H_    0.761571 0.575487 0.439046 0.160790
H26   H     H_    0.671467 0.319346 0.335157 0.156434
H27   H     H_    0.261656 0.075662 0.439230 0.160882
H28   H     H_    0.171763 0.819646 0.335209 0.156928
H29   H     H_    0.691834 0.634439 0.332009 0.151868
H30   H     H_    0.613922 0.248985 0.323600 0.161912
H31   H     H_    0.191867 0.134562 0.332150 0.151994
H32   H     H_    0.114105 0.749386 0.323523 0.162104
H33   H     H_    0.216892 0.309060 0.366502 0.024075
H34   H     H_    0.214760 0.597003 0.506724 -0.016258
H35   H     H_    0.717233 0.809033 0.366589 0.024480
H36   H     H_    0.714866 0.096752 0.506947 -0.016583
H37   H     H_    0.719162 0.388133 0.821929 0.104899
H38   H     H_    0.703209 0.648070 0.779780 0.106507
H39   H     H_    0.218955 0.887440 0.821531 0.105226
H40   H     H_    0.203218 0.148063 0.779818 0.105995
H41   H     H_    0.345635 0.748551 0.053757 0.119478
H42   H     H_    0.326149 0.286301 0.009989 0.128709
H43   H     H_    0.845657 0.248628 0.053824 0.119418
H44   H     H_    0.826168 0.786356 0.009951 0.128887
H45   H     H_    0.674387 0.293640 0.994362 0.119028
H46   H     H_    0.660185 0.749210 0.943902 0.119440
H47   H     H_    0.174191 0.793565 0.994241 0.125007
H48   H     H_    0.160242 0.249132 0.944033 0.119443
H49   H     H_    0.578503 0.369152 0.319029 0.108082
H50   H     H_    0.597687 0.593656 0.324829 0.104677
H51   H     H_    0.078715 0.869501 0.319035 0.108279
H52   H     H_    0.097714 0.093558 0.324856 0.104695
H53   H     H_    0.441751 0.344210 0.679461 0.096213
H54   H     H_    0.405701 0.603007 0.674948 0.153724
H55   H     H_    0.942879 0.842938 0.679294 0.096464
H56   H     H_    0.905719 0.102974 0.674969 0.152331
H57   H     H_    0.723466 0.364001 0.679893 0.082880
H58   H     H_    0.737025 0.600519 0.681284 0.087080
H59   H     H_    0.223662 0.864295 0.679874 0.082689
H60   H     H_    0.237014 0.100409 0.681321 0.086890
H61   H     H_    0.293555 0.345373 0.320809 0.089920
H62   H     H_    0.268416 0.609182 0.317652 0.113849
H63   H     H_    0.793722 0.845251 0.320729 0.088667
H64   H     H_    0.768414 0.109198 0.317667 0.113147
H65   H     H_    0.364089 0.275364 0.676596 0.191961
H66   H     H_    0.368572 0.739799 0.647784 0.193739
H67   H     H_    0.864609 0.775022 0.676565 0.192634
H68   H     H_    0.868458 0.239804 0.647696 0.193981
N1    N     N_R   0.389430 0.421450 0.294590 -0.050979
N2    N     N_R   0.389430 0.578550 0.294590 -0.056865
N3    N     N_R   0.889430 0.921450 0.294590 -0.050617
N4    N     N_R   0.889430 0.078550 0.294590 -0.056609
N5    N     N_R   0.612200 0.424040 0.705410 -0.053453
N6    N     N_R   0.612200 0.575960 0.705410 -0.054732
N7    N     N_R   0.112200 0.924040 0.705410 -0.051412
N8    N     N_R   0.112200 0.075960 0.705410 -0.053789
N9    N     N_R   0.581780 0.422390 0.443390 -0.033494
N10   N     N_R   0.581780 0.577610 0.443390 -0.034623
N11   N     N_R   0.081780 0.922390 0.443390 -0.033307
N12   N     N_R   0.081780 0.077610 0.443390 -0.034490
N13   N     N_R   0.419850 0.423100 0.556610 -0.037983
N14   N     N_R   0.419850 0.576900 0.556610 -0.042719
N15   N     N_R   0.919850 0.923100 0.556610 -0.041265
N16   N     N_R   0.919850 0.076900 0.556610 -0.043001
N17   N     N_R   0.627410 0.423100 0.556610 -0.033503
N18   N     N_R   0.627410 0.576900 0.556610 -0.034843
N19   N     N_R   0.127410 0.923100 0.556610 -0.032956
N20   N     N_R   0.127410 0.076900 0.556610 -0.034499
N21   N     N_R   0.374220 0.422390 0.443390 -0.041202
N22   N     N_R   0.374220 0.577610 0.443390 -0.034644
N23   N     N_R   0.874220 0.922390 0.443390 -0.039726
N24   N     N_R   0.874220 0.077610 0.443390 -0.033513
N25   N     N_R   0.555000 0.424040 0.705410 -0.053223
N26   N     N_R   0.555000 0.575960 0.705410 -0.055084
N27   N     N_R   0.055000 0.924040 0.705410 -0.060300
N28   N     N_R   0.055000 0.075960 0.705410 -0.057519
N29   N     N_R   0.446630 0.421450 0.294590 -0.048858
N30   N     N_R   0.446630 0.578550 0.294590 -0.051506
N31   N     N_R   0.946630 0.921450 0.294590 -0.048585
N32   N     N_R   0.946630 0.078550 0.294590 -0.051363
Ni1   Ni    Ni4+2 0.382890 0.500000 0.370170 0.197157
Ni2   Ni    Ni4+2 0.882890 0.000000 0.370170 0.197725
Ni3   Ni    Ni4+2 0.618740 0.500000 0.629830 0.202313
Ni4   Ni    Ni4+2 0.118740 0.000000 0.629830 0.202924
Ni5   Ni    Ni4+2 0.514090 0.500000 0.370170 0.215165
Ni6   Ni    Ni4+2 0.014090 0.000000 0.370170 0.216191
Ni7   Ni    Ni4+2 0.487550 0.500000 0.629830 0.219665
Ni8   Ni    Ni4+2 0.987550 0.000000 0.629830 0.205348
O1    O     O_3   0.264374 0.370354 0.514500 -0.672773
C97   C     C_3   0.204855 0.418397 0.457988 0.205671
H69   H     H_    0.216229 0.462957 0.517758 0.077336
H70   H     H_    0.157465 0.388644 0.435872 0.112855
C98   C     C_3   0.189912 0.457966 0.356311 -0.292341
H71   H     H_    0.215848 0.514437 0.382942 0.194598
H72   H     H_    0.212705 0.427506 0.324199 0.196610
C99   C     C_3   0.110829 0.466277 0.260557 -1.062132
H73   H     H_    0.085497 0.409099 0.229067 0.273470
H74   H     H_    0.101871 0.498402 0.190798 0.271815
H75   H     H_    0.086016 0.497264 0.289325 0.261284
O2    O     O_3   0.305706 0.628894 0.667500 -0.687523
C100  C     C_3   0.288263 0.569521 0.708384 0.167701
H76   H     H_    0.305967 0.514583 0.699078 0.126489
H77   H     H_    0.230739 0.564945 0.663963 0.077958
C101  C     C_3   0.327006 0.583548 0.832419 -0.259939
H78   H     H_    0.384909 0.583549 0.879763 0.193100
H79   H     H_    0.312335 0.640321 0.842865 0.192960
C102  C     C_3   0.308318 0.522598 0.880446 -1.049243
H80   H     H_    0.250723 0.522354 0.835234 0.271863
H81   H     H_    0.336702 0.534931 0.970133 0.269120
H82   H     H_    0.323845 0.465372 0.873206 0.268265
O3    O     O_3   0.764952 0.870172 0.514768 -0.673177
C103  C     C_3   0.705524 0.918327 0.458577 0.205412
H83   H     H_    0.717142 0.962903 0.518483 0.077222
H84   H     H_    0.658177 0.888694 0.436799 0.112881
C104  C     C_3   0.690354 0.957844 0.356699 -0.292169
H85   H     H_    0.716033 0.014439 0.383089 0.194288
H86   H     H_    0.713282 0.927554 0.324689 0.196658
C105  C     C_3   0.611226 0.965755 0.260943 -1.062266
H87   H     H_    0.586137 0.908454 0.229719 0.273574
H88   H     H_    0.602110 0.997834 0.191029 0.271543
H89   H     H_    0.586301 0.996625 0.289607 0.261276
O4    O     O_3   0.805801 0.128795 0.667651 -0.687558
C106  C     C_3   0.788487 0.069402 0.708699 0.166502
H90   H     H_    0.806425 0.014521 0.699719 0.125087
H91   H     H_    0.730959 0.064590 0.664176 0.078506
C107  C     C_3   0.827085 0.083641 0.832639 -0.260323
H92   H     H_    0.885004 0.083837 0.880099 0.192377
H93   H     H_    0.812211 0.140381 0.842792 0.193176
C108  C     C_3   0.808501 0.022680 0.880799 -1.049331
H94   H     H_    0.750897 0.022288 0.835525 0.271848
H95   H     H_    0.836822 0.035118 0.970438 0.269145
H96   H     H_    0.824171 0.965485 0.873756 0.268164
N33   N     N_3   0.773308 0.704638 0.313437 -0.223333
H97   H     H_    0.721960 0.725630 0.263434 0.094865
H98   H     H_    0.771136 0.654426 0.275387 0.115492
N34   N     N_3   0.666298 0.142192 0.300276 -0.230221
H99   H     H_    0.634577 0.124276 0.319225 0.124159
H100  H     H_    0.632507 0.161139 0.217351 0.108631
N35   N     N_3   0.273377 0.204863 0.313772 -0.223268
H101  H     H_    0.221991 0.225760 0.263620 0.094775
H102  H     H_    0.271340 0.154646 0.275859 0.115432
N36   N     N_3   0.166357 0.642463 0.300197 -0.230210
H103  H     H_    0.134575 0.624645 0.319068 0.124062
H104  H     H_    0.132627 0.661434 0.217282 0.110072
N37   N     N_3   0.629514 0.755227 0.373358 -0.240738
H105  H     H_    0.617093 0.722592 0.306889 0.101582
H106  H     H_    0.596893 0.741338 0.392311 0.129569
N38   N     N_3   0.632066 0.183776 0.503941 -0.215893
H107  H     H_    0.608528 0.156555 0.427836 0.095444
H108  H     H_    0.634941 0.143759 0.556723 0.094968
N39   N     N_3   0.129239 0.255088 0.373331 -0.240814
H109  H     H_    0.116890 0.222488 0.306883 0.101616
H110  H     H_    0.096628 0.241114 0.392276 0.129751
N40   N     N_3   0.132068 0.684220 0.503737 -0.215690
H111  H     H_    0.108508 0.657016 0.427614 0.095477
H112  H     H_    0.134855 0.644226 0.556461 0.095174
N41   N     N_3   0.315514 0.796695 0.232331 -0.204391
H113  H     H_    0.333752 0.850430 0.269952 0.099562
H114  H     H_    0.264369 0.789533 0.204518 0.083879
N42   N     N_3   0.207130 0.421093 0.951156 -0.213280
H115  H     H_    0.245869 0.463019 0.000443 0.124858
H116  H     H_    0.183808 0.406630 0.986287 0.089576
N43   N     N_3   0.815675 0.296729 0.232580 -0.204207
H117  H     H_    0.833987 0.350429 0.270300 0.099444
H118  H     H_    0.764529 0.289632 0.204784 0.083058
N44   N     N_3   0.707116 0.921110 0.951093 -0.213477
H119  H     H_    0.745847 0.963041 0.000397 0.124727
H120  H     H_    0.683780 0.906632 0.986197 0.089392
N45   N     N_3   0.797379 0.413788 0.030002 -0.208776
H121  H     H_    0.826340 0.447013 0.102699 0.100969
H122  H     H_    0.833018 0.391640 0.021853 0.090127
N46   N     N_3   0.684948 0.798388 0.758472 -0.206246
H123  H     H_    0.666443 0.851788 0.720610 0.106250
H124  H     H_    0.735640 0.792631 0.784465 0.088083
N47   N     N_3   0.297156 0.913563 0.029488 -0.209105
H125  H     H_    0.326117 0.946869 0.102107 0.101530
H126  H     H_    0.332786 0.891373 0.021350 0.090602
N48   N     N_3   0.184880 0.298396 0.758479 -0.206213
H127  H     H_    0.166354 0.351799 0.720635 0.106426
H128  H     H_    0.235561 0.292661 0.784415 0.087918
N49   N     N_3   0.547348 0.404131 0.852983 -0.224777
H129  H     H_    0.546348 0.351621 0.884110 0.081328
H130  H     H_    0.579975 0.440904 0.921262 0.102059
N50   N     N_3   0.526536 0.649719 0.805535 -0.226674
H131  H     H_    0.545351 0.699158 0.854281 0.093500
H132  H     H_    0.535733 0.604444 0.857251 0.089683
N51   N     N_3   0.048924 0.906438 0.855676 -0.230322
H133  H     H_    0.086194 0.935889 0.930551 0.099628
H134  H     H_    0.006922 0.943994 0.805347 0.098126
N52   N     N_3   0.026583 0.149616 0.805665 -0.226609
H135  H     H_    0.045420 0.199022 0.854482 0.095115
H136  H     H_    0.035787 0.104301 0.857332 0.083301
N53   N     N_3   0.457461 0.397275 0.151679 -0.230222
H137  H     H_    0.426727 0.432533 0.081627 0.114107
H138  H     H_    0.458342 0.343556 0.123960 0.081618
N54   N     N_3   0.474878 0.650048 0.191238 -0.230191
H139  H     H_    0.488925 0.707781 0.203909 0.092262
H140  H     H_    0.440655 0.640621 0.104877 0.094001
N55   N     N_3   0.957515 0.897220 0.151753 -0.230129
H141  H     H_    0.926819 0.932480 0.081695 0.114078
H142  H     H_    0.958388 0.843487 0.124060 0.082661
N56   N     N_3   0.974867 0.150027 0.191211 -0.230250
H143  H     H_    0.988834 0.207780 0.203726 0.092279
H144  H     H_    0.940651 0.140509 0.104872 0.094005

loop_
_geom_bond_atom_site_label_1
_geom_bond_atom_site_label_2
_ccdc_geom_bond_type
C15   C75   A    
N35   H102  S    
C55   C59   D    
C51   H27   S    
N47   H125  S    
C7    C55   S    
C8    C56   S    
C102  H82   S    
N51   H134  S    
N25   Ni7   S    
N44   H119  S    
C87   N27   A    
C57   C67   S    
C59   N47   S    
C85   N25   A    
C22   C38   S    
C29   C33   S    
C16   C84   A    
N29   Ni5   S    
N9    Ni5   S    
C81   N21   A    
C101  H78   S    
C4    C96   A    
C66   N42   S    
C102  H80   S    
C107  H93   S    
C69   N9    A    
C75   N15   A    
C26   H34   S    
C73   H53   S    
C108  H94   S    
C105  H88   S    
C6    C54   S    
C103  H83   S    
C90   N54   S    
C8    C88   A    
C84   H64   S    
C107  C108  S    
N33   H98   S    
C24   H14   S    
C30   C34   S    
C61   C94   S    
C27   C35   S    
N30   Ni5   S    
C63   C96   S    
N10   Ni5   S    
C4    N4    A    
C105  H89   S    
C13   C33   S    
C46   H38   S    
C91   N31   A    
N51   H133  S    
C74   N14   A    
N24   Ni2   S    
C23   H11   S    
N52   H135  S    
N28   Ni8   S    
C9    C77   A    
C11   C79   A    
C13   C73   A    
N40   H112  S    
N50   H131  S    
N11   N19   A    
C64   H44   S    
N12   N20   A    
N3    N31   A    
N18   Ni3   S    
C41   H17   S    
C92   N32   A    
C47   N7    A    
C45   H37   S    
N45   H122  S    
C72   H52   S    
C52   H28   S    
C27   O3    S    
N3    Ni2   S    
C104  C105  S    
C11   C71   A    
C29   N35   S    
C79   H59   S    
N14   N22   A    
C61   C65   D    
C99   H73   S    
C44   H20   S    
C1    C93   A    
C62   C93   S    
C19   C35   S    
C78   N18   A    
C103  C104  S    
N39   H110  S    
N46   H124  S    
N34   H99   S    
C71   H51   S    
C88   N52   S    
C87   N51   S    
N5    N25   A    
N10   N18   A    
C10   C78   A    
C3    N3    A    
C58   N46   S    
N8    N28   A    
N33   H97   S    
C17   C23   S    
C18   C24   S    
C64   C68   D    
C19   C21   S    
N37   H105  S    
C82   H62   S    
C76   N16   A    
C92   C96   A    
N54   H139  S    
C31   N33   S    
C18   H6    S    
N56   H144  S    
C77   H57   S    
C42   H18   S    
C85   N49   S    
C75   H55   S    
N38   H107  S    
N20   Ni4   S    
N22   Ni1   S    
C70   H50   S    
C5    C85   A    
N43   H118  S    
N14   Ni7   S    
N49   H130  S    
N6    Ni3   S    
C68   N44   S    
N53   H138  S    
C86   N26   A    
C55   H47   S    
C62   C66   D    
N23   Ni2   S    
C65   N41   S    
N12   Ni6   S    
C2    C94   A    
C57   N45   S    
C30   H22   S    
C100  H76   S    
C46   N6    A    
C28   H36   S    
C56   H48   S    
C43   N39   S    
N7    Ni4   S    
C77   N17   A    
C99   H75   S    
C49   H25   S    
C98   H71   S    
C106  H91   S    
C19   H67   S    
C70   N10   A    
C17   H65   S    
C22   H16   S    
C108  H96   S    
C67   N43   S    
N17   Ni3   S    
C29   C51   S    
C30   C52   S    
C47   H39   S    
C30   N36   S    
C48   H40   S    
N2    N30   A    
N11   Ni6   S    
C45   N5    A    
C14   C34   S    
C3    C95   A    
N39   H109  S    
C102  H81   S    
N44   H120  S    
N19   Ni4   S    
C6    C86   A    
N21   Ni1   S    
N36   H103  S    
C16   C36   S    
C86   N50   S    
C9    C38   S    
N41   H114  S    
C79   N19   A    
N8    Ni4   S    
C80   N20   A    
C37   C41   S    
C11   C40   S    
C21   H9    S    
C91   C95   A    
C3    H3    S    
C40   C44   S    
N42   H115  S    
C101  C102  S    
C25   C33   S    
C39   C51   S    
C106  H90   S    
C50   H26   S    
C103  H84   S    
C52   H32   S    
C100  C101  S    
N4    Ni2   S    
C82   N22   A    
C9    C69   A    
N48   H127  S    
C97   H70   S    
N15   N23   A    
C76   H56   S    
C20   H68   S    
C13   C81   A    
C98   C99   S    
N13   N21   A    
C26   O2    S    
N16   N24   A    
C28   O4    S    
C7    C87   A    
N52   H136  S    
N43   H117  S    
N13   Ni7   S    
C24   H12   S    
C2    N2    A    
N5    Ni3   S    
C32   C36   S    
C12   C72   A    
C60   C66   S    
N55   H141  S    
C16   C76   A    
C25   C43   S    
C17   C33   S    
C31   C49   S    
C25   O1    S    
C21   H15   S    
N50   H132  S    
C90   C94   A    
C23   H13   S    
C81   H61   S    
C26   C44   S    
C42   N38   S    
C53   C57   D    
C78   H58   S    
C15   C83   A    
N53   H137  S    
C5    C45   A    
C56   C60   D    
C89   N53   S    
C7    C47   A    
C8    C48   A    
N45   H121  S    
N1    Ni1   S    
C37   C49   S    
C69   H49   S    
C90   N30   A    
C107  H92   S    
N7    N27   A    
C104  H86   S    
C62   H42   S    
C31   H23   S    
C20   H8    S    
C10   C70   A    
C58   C68   S    
C54   H46   S    
C99   H74   S    
C108  H95   S    
C31   C35   S    
C84   N24   A    
N27   Ni8   S    
C14   C82   A    
C14   C74   A    
N34   H100  S    
C88   N28   A    
N6    N26   A    
O4    C106  S    
C24   C40   S    
N47   H126  S    
C97   H69   S    
N16   Ni8   S    
C49   H29   S    
C51   H31   S    
C12   C39   S    
C41   N37   S    
N2    Ni1   S    
C18   H66   S    
C61   H41   S    
N54   H140  S    
C53   H45   S    
C72   N12   A    
C20   C36   S    
C21   C37   S    
C28   C36   S    
N38   H108  S    
N40   H111  S    
C59   C65   S    
C27   H35   S    
N49   H129  S    
C25   H33   S    
C101  H79   S    
N31   Ni6   S    
O1    C97   S    
C10   C37   S    
C5    C53   S    
C38   C42   S    
N26   Ni7   S    
C71   N11   A    
C17   H5    S    
C43   H19   S    
C48   N8    A    
C19   H7    S    
C26   C34   S    
C60   N48   S    
O3    C103  S    
C50   H30   S    
C73   N13   A    
C89   N29   A    
C89   C93   A    
C83   N23   A    
C92   N56   S    
C32   H24   S    
C15   C35   S    
C80   H60   S    
C63   C67   D    
N55   H142  S    
O2    C100  S    
C1    H1    S    
N37   H106  S    
C91   N55   S    
C39   C43   S    
C40   C52   S    
C29   H21   S    
N36   H104  S    
N56   H143  S    
C105  H87   S    
C27   C41   S    
C1    N1    A    
N41   H113  S    
C18   C34   S    
C32   C50   S    
N42   H116  S    
C4    H4    S    
N32   Ni6   S    
N35   H101  S    
C44   N40   S    
C54   C58   D    
C6    C46   A    
C64   C95   S    
C20   C22   S    
N1    N29   A    
C38   C50   S    
C63   H43   S    
C100  H77   S    
C32   N34   S    
N46   H123  S    
N48   H128  S    
C97   C98   S    
C23   C39   S    
C12   C80   A    
C28   C42   S    
C98   H72   S    
C106  C107  S    
N9    N17   A    
C22   H10   S    
C83   H63   S    
N15   Ni8   S    
C2    H2    S    
N4    N32   A    
C104  H85   S    
C74   H54   S    
