data_mof_unit_50595.cif
_audit_creation_date              2012-12-10T17:09:55-0500
_audit_creation_method            fapswitch 2.2
_symmetry_space_group_name_H-M    P1
_symmetry_Int_Tables_number       1
_space_group_crystal_system       triclinic
_cell_length_a                    10.769606
_cell_length_b                    12.985816
_cell_length_c                    11.704371
_cell_angle_alpha                 100.155957
_cell_angle_beta                  95.200798
_cell_angle_gamma                 90.307387
_cell_volume                      1604.21976592

loop_
_atom_site_label
_atom_site_type_symbol
_atom_type_description
_atom_site_fract_x
_atom_site_fract_y
_atom_site_fract_z
_atom_type_partial_charge
C1    C     C_R   0.497317 0.299103 0.478217 0.788358
C2    C     C_R   0.068470 0.396952 0.497575 0.047041
C3    C     C_R   0.128562 0.492962 0.494632 -0.033097
C4    C     C_R   0.061141 0.583703 0.491938 -0.156638
C5    C     C_R   0.933110 0.580340 0.493188 -0.161028
C6    C     C_R   0.872409 0.488361 0.506339 -0.066433
C7    C     C_R   0.489767 0.814877 0.535044 -0.146951
C8    C     C_R   0.496491 0.185715 0.465133 -0.010646
C9    C     C_R   0.536401 0.015880 0.353599 -0.103941
C10   C     C_R   0.529579 0.123837 0.362065 -0.147620
C11   C     C_R   0.466956 0.139211 0.558459 -0.088341
C12   C     C_R   0.262382 0.500801 0.498860 0.783614
C13   C     C_R   0.473472 0.031471 0.550620 0.127219
C14   C     C_R   0.509371 0.969346 0.447895 0.182213
C15   C     C_R   0.517815 0.861770 0.441116 -0.273190
C16   C     C_R   0.451600 0.877418 0.637186 0.379872
C17   C     C_R   0.444637 0.985246 0.644169 -0.169937
C18   C     C_R   0.373607 0.412852 0.017433 -0.266419
C19   C     C_R   0.384152 0.418958 0.139536 0.178105
C20   C     C_R   0.556972 0.537544 0.158437 0.037762
C21   C     C_R   0.547428 0.533059 0.035185 0.062936
C22   C     C_R   0.454716 0.469183 0.964571 0.020470
C23   C     C_R   0.497683 0.701072 0.521864 0.856252
C24   C     C_R   0.444428 0.462906 0.841889 0.071592
C25   C     C_R   0.613538 0.582678 0.857672 0.134827
C26   C     C_R   0.627444 0.590561 0.980177 -0.290083
C27   C     C_R   0.737448 0.491499 0.500735 0.787998
C28   C     C_R   0.132776 0.302224 0.480260 -0.305422
C29   C     C_R   0.072589 0.207832 0.482947 0.366520
C30   C     C_R   0.951685 0.207412 0.517980 0.402075
C31   C     C_R   0.889437 0.303354 0.545942 -0.200124
C32   C     C_R   0.941059 0.396146 0.517358 -0.056482
Cu1   Cu    Cu3+1 0.509250 0.507730 0.615930 0.987216
Cu2   Cu    Cu3+1 0.490750 0.492270 0.384070 0.948958
H1    H     H_    0.107728 0.656850 0.487240 0.161806
H2    H     H_    0.415512 0.032907 0.722492 0.175987
H3    H     H_    0.552883 0.159063 0.289268 0.159898
H4    H     H_    0.439783 0.186980 0.637614 0.142708
H5    H     H_    0.373523 0.412670 0.787630 0.120759
H6    H     H_    0.675897 0.627282 0.816613 0.138890
H7    H     H_    0.301861 0.363383 0.963014 0.183949
H8    H     H_    0.700196 0.641140 0.031167 0.151992
H9    H     H_    0.628081 0.587181 0.213077 0.132643
H10   H     H_    0.228732 0.300238 0.459735 0.151291
H11   H     H_    0.881029 0.650545 0.486170 0.151275
H12   H     H_    0.546755 0.814525 0.362409 0.168423
H13   H     H_    0.563688 0.969054 0.274071 0.147099
N1    N     N_R   0.523180 0.519350 0.790130 -0.183742
N2    N     N_R   0.476820 0.480650 0.209890 -0.222997
O1    O     O_R   0.506570 0.354460 0.582000 -0.576164
O2    O     O_R   0.490940 0.341410 0.386200 -0.628016
O3    O     O_R   0.327470 0.506530 0.597920 -0.566261
O4    O     O_R   0.311840 0.493480 0.402120 -0.605549
O5    O     O_R   0.509060 0.658590 0.613800 -0.528146
O6    O     O_R   0.493430 0.645540 0.418000 -0.591314
O7    O     O_R   0.688160 0.506520 0.597880 -0.614577
O8    O     O_R   0.672530 0.493470 0.402080 -0.570034
C33   C     C_2   0.291323 0.356826 0.186771 0.404726
H14   H     H_    0.308767 0.331666 0.269026 0.121454
O9    O     O_2   0.190926 0.330948 0.131540 -0.539391
Cl1   Cl    Cl    0.154978 0.091253 0.449397 -0.561415
Cl2   Cl    Cl    0.883977 0.086294 0.532025 -0.479497
C34   C     C_2   0.795220 0.311840 0.631988 0.450023
H15   H     H_    0.791825 0.382835 0.695817 0.088844
O10   O     O_2   0.726283 0.238804 0.638532 -0.499548
Cl3   Cl    Cl    0.405448 0.825866 0.756949 -0.571793

loop_
_geom_bond_atom_site_label_1
_geom_bond_atom_site_label_2
_ccdc_geom_bond_type
C11   H4    S    
C6    C32   A    
C9    C14   A    
C34   O10   D    
C23   O6    A    
C20   N2    A    
C17   H2    S    
Cu2   O8    S    
C1    C8    S    
C11   C13   A    
C9    C10   A    
C19   N2    A    
C31   C32   A    
C14   C15   A    
C13   C17   A    
C21   C26   A    
C24   H5    S    
Cu1   O7    S    
C7    C15   A    
C2    C3    A    
C25   C26   A    
C4    H1    S    
Cu2   O6    S    
C19   C33   S    
C18   C22   A    
C21   C22   A    
Cu1   O3    S    
C1    O2    A    
C25   N1    A    
Cu2   O2    S    
C29   C30   A    
C12   O4    A    
C23   O5    A    
C10   H3    S    
C7    C23   S    
C5    C6    A    
C2    C32   A    
C28   C29   A    
C12   O3    A    
C1    O1    A    
Cu1   Cu2   S    
C29   Cl1   S    
C8    C11   A    
C25   H6    S    
C30   C31   A    
C22   C24   A    
C9    H13   S    
C16   Cl3   S    
C30   Cl2   S    
C33   O9    D    
C34   H15   S    
C24   N1    A    
C31   C34   S    
C20   H9    S    
C20   C21   A    
C26   H8    S    
Cu2   O4    S    
C8    C10   A    
C18   C19   A    
C27   O8    A    
C18   H7    S    
Cu1   O5    S    
Cu1   N1    S    
C27   O7    A    
C7    C16   A    
Cu2   N2    S    
C2    C28   A    
C3    C12   S    
Cu1   O1    S    
C15   H12   S    
C33   H14   S    
C13   C14   A    
C5    H11   S    
C28   H10   S    
C3    C4    A    
C6    C27   S    
C16   C17   A    
C4    C5    A    
