data_mof_unit_13834.cif
_audit_creation_date              2012-12-10T20:39:59-0500
_audit_creation_method            fapswitch 2.2
_symmetry_space_group_name_H-M    P1
_symmetry_Int_Tables_number       1
_space_group_crystal_system       triclinic
_cell_length_a                    23.430616
_cell_length_b                    10.674064
_cell_length_c                    9.84731
_cell_angle_alpha                 89.942558
_cell_angle_beta                  90.259259
_cell_angle_gamma                 90.097656
_cell_volume                      2462.78118561

loop_
_atom_site_label
_atom_site_type_symbol
_atom_type_description
_atom_site_fract_x
_atom_site_fract_y
_atom_site_fract_z
_atom_type_partial_charge
C1    C     C_R   0.501733 0.259883 0.500101 0.886981
C2    C     C_R   0.970209 0.282104 0.568639 -0.157022
C3    C     C_R   0.029616 0.282038 0.568888 -0.159034
C4    C     C_R   0.059860 0.392000 0.538145 -0.016136
C5    C     C_R   0.030025 0.503075 0.507381 -0.020432
C6    C     C_R   0.060004 0.614011 0.476526 -0.016462
C7    C     C_R   0.029898 0.724193 0.446231 -0.158978
C8    C     C_R   0.970486 0.724219 0.445905 -0.157085
C9    C     C_R   0.119431 0.394045 0.536554 0.503608
C10   C     C_R   0.119576 0.611275 0.476217 0.504407
C11   C     C_R   0.238477 0.529626 0.620306 -0.143128
C12   C     C_R   0.389284 0.500006 0.499888 0.887743
C13   C     C_R   0.297624 0.529243 0.619755 -0.220764
C14   C     C_R   0.327035 0.500476 0.500133 -0.085523
C15   C     C_R   0.296620 0.472004 0.381116 -0.205485
C16   C     C_R   0.237085 0.472234 0.380814 0.237301
C17   C     C_R   0.208284 0.501345 0.501688 0.320438
C18   C     C_R   0.762396 0.506879 0.379971 -0.099575
C19   C     C_R   0.703147 0.505982 0.378535 -0.214265
C20   C     C_R   0.672975 0.500930 0.501297 -0.041266
C21   C     C_R   0.702777 0.496838 0.625279 -0.213197
C22   C     C_R   0.761996 0.497568 0.626299 -0.099847
C23   C     C_R   0.501874 0.740082 0.499970 0.887689
C24   C     C_R   0.791695 0.502577 0.503766 0.320353
C25   C     C_R   0.510409 0.063706 0.623524 0.146300
C26   C     C_R   0.510915 0.128553 0.500849 -0.105828
C27   C     C_R   0.522488 0.064968 0.379464 -0.215211
C28   C     C_R   0.522622 0.935411 0.379415 -0.214490
C29   C     C_R   0.511167 0.871406 0.500745 -0.104397
C30   C     C_R   0.510597 0.935928 0.623495 0.129667
C31   C     C_3   0.469506 0.928150 0.738942 -0.469221
C32   C     C_3   0.469160 0.070127 0.738688 -0.490110
C33   C     C_R   0.473779 0.405592 0.071095 0.216564
C34   C     C_R   0.610723 0.500232 0.500286 0.871613
C35   C     C_R   0.530165 0.586799 0.072273 -0.130225
C36   C     C_R   0.530146 0.586852 0.928162 -0.135416
C37   C     C_R   0.473841 0.405482 0.928344 0.213534
C38   C     C_3   0.412091 0.372325 0.921823 -0.500876
C39   C     C_3   0.411969 0.373129 0.075770 -0.513253
C40   C     C_R   0.880638 0.611587 0.475617 0.503944
C41   C     C_R   0.880515 0.394346 0.535907 0.504354
C42   C     C_R   0.940097 0.392147 0.537690 -0.015834
C43   C     C_R   0.970070 0.503128 0.507117 -0.021523
C44   C     C_R   0.940231 0.614070 0.475914 -0.015570
H1    H     H_    0.948020 0.195783 0.592458 0.194721
H2    H     H_    0.681094 0.509349 0.281704 0.162835
H3    H     H_    0.680458 0.492953 0.721270 0.163867
H4    H     H_    0.784913 0.494416 0.721996 0.140401
H5    H     H_    0.527403 0.114158 0.283923 0.171055
H6    H     H_    0.527612 0.886493 0.283864 0.166495
H7    H     H_    0.427823 0.886136 0.709112 0.210395
H8    H     H_    0.489404 0.887439 0.831678 0.202547
H9    H     H_    0.427313 0.110590 0.708128 0.204372
H10   H     H_    0.488698 0.111554 0.831464 0.204617
H11   H     H_    0.553617 0.658253 0.126935 0.144223
H12   H     H_    0.051701 0.195668 0.592822 0.194405
H13   H     H_    0.553560 0.658374 0.873859 0.148105
H14   H     H_    0.385599 0.447993 0.876649 0.217695
H15   H     H_    0.404755 0.277789 0.878144 0.201559
H16   H     H_    0.385852 0.450248 0.118209 0.215430
H17   H     H_    0.404375 0.279234 0.121199 0.205768
H18   H     H_    0.052095 0.810495 0.422370 0.194356
H19   H     H_    0.948406 0.810569 0.421863 0.194631
H20   H     H_    0.215895 0.552096 0.712840 0.147272
H21   H     H_    0.320235 0.552490 0.712489 0.160281
H22   H     H_    0.319095 0.448456 0.289092 0.151917
H23   H     H_    0.785635 0.510541 0.285231 0.140343
N1    N     N_R   0.852378 0.502856 0.505096 -0.360534
N2    N     N_R   0.147623 0.502285 0.505039 -0.354537
N3    N     N_R   0.499610 0.499140 0.142800 -0.106705
N4    N     N_R   0.499610 0.499180 0.857150 -0.106785
O1    O     O_R   0.500010 0.316790 0.614690 -0.614472
O2    O     O_2   0.850778 0.289053 0.563756 -0.547928
O3    O     O_2   0.149125 0.289030 0.565507 -0.551328
O4    O     O_2   0.149411 0.716067 0.446846 -0.550503
O5    O     O_R   0.500000 0.316760 0.385350 -0.623103
O6    O     O_R   0.416160 0.499980 0.614700 -0.622304
O7    O     O_R   0.416150 0.499940 0.385360 -0.618156
O8    O     O_R   0.500000 0.683240 0.614650 -0.620896
O9    O     O_R   0.499990 0.683210 0.385310 -0.623807
O10   O     O_R   0.583850 0.500060 0.614640 -0.622268
O11   O     O_R   0.583840 0.500020 0.385300 -0.623112
O12   O     O_2   0.851016 0.716748 0.446856 -0.548669
Zn1   Zn    Zn3+2 0.500000 0.500020 0.653130 0.948215
Zn2   Zn    Zn3+2 0.500000 0.499980 0.346870 0.949410
C45   C     C_3   0.204635 0.441477 0.252828 -0.879734
H24   H     H_    0.177302 0.357924 0.269818 0.257316
H25   H     H_    0.177298 0.521984 0.223409 0.252982
H26   H     H_    0.233796 0.420959 0.167067 0.235284

loop_
_geom_bond_atom_site_label_1
_geom_bond_atom_site_label_2
_ccdc_geom_bond_type
C9    O3    S    
C22   H4    S    
C17   N2    S    
C41   C42   A    
C19   C20   A    
C31   H8    S    
C19   H2    S    
C7    C8    A    
C13   H21   S    
C26   C27   A    
C37   C38   S    
C18   C24   A    
C23   C29   S    
C28   C29   A    
C9    N2    A    
O8    Zn1   S    
C45   H25   S    
C15   C16   A    
C18   C19   A    
C10   O4    S    
C38   H14   S    
C28   H6    S    
C35   C36   A    
C35   N3    A    
C16   C17   A    
C12   O7    A    
C34   O10   A    
C23   O9    A    
C29   C30   A    
C36   N4    A    
C20   C34   S    
C25   C32   S    
C5    C43   A    
C13   C14   A    
C16   C45   S    
C40   O12   S    
C32   H10   S    
C41   N1    A    
C2    H1    S    
C38   C39   S    
C39   H17   S    
C1    O1    A    
C35   H11   S    
C36   H13   S    
C45   H24   S    
O6    Zn1   S    
C25   C26   A    
C15   H22   S    
C33   C37   A    
C43   C44   A    
C7    H18   S    
O9    Zn2   S    
C3    H12   S    
C31   C32   S    
C30   C31   S    
C12   O6    A    
C33   C39   S    
O1    Zn1   S    
C33   N3    A    
O7    Zn2   S    
C12   C14   S    
C11   H20   S    
C37   N4    A    
C1    C26   S    
C22   C24   A    
C42   C43   A    
C3    C4    A    
C32   H9    S    
O10   Zn1   S    
N4    Zn1   S    
C25   C30   A    
C11   C17   A    
C1    O5    A    
C8    C44   A    
C31   H7    S    
C4    C5    A    
C45   H26   S    
C6    C10   A    
C6    C7    A    
O11   Zn2   S    
C2    C3    A    
C18   H23   S    
C11   C13   A    
C5    C6    A    
C2    C42   A    
C39   H16   S    
C24   N1    S    
C8    H19   S    
C41   O2    S    
C38   H15   S    
C10   N2    A    
C40   C44   A    
C20   C21   A    
C40   N1    A    
C27   C28   A    
C14   C15   A    
C34   O11   A    
C23   O8    A    
C4    C9    A    
C21   C22   A    
N3    Zn2   S    
O5    Zn2   S    
C27   H5    S    
C21   H3    S    
