data_mof_unit_34632.cif
_audit_creation_date              2012-12-10T16:56:28-0500
_audit_creation_method            fapswitch 2.2
_symmetry_space_group_name_H-M    P1
_symmetry_Int_Tables_number       1
_space_group_crystal_system       triclinic
_cell_length_a                    7.83169
_cell_length_b                    8.557281
_cell_length_c                    15.714484
_cell_angle_alpha                 91.93512
_cell_angle_beta                  85.132735
_cell_angle_gamma                 93.399695
_cell_volume                      1047.07113138

loop_
_atom_site_label
_atom_site_type_symbol
_atom_type_description
_atom_site_fract_x
_atom_site_fract_y
_atom_site_fract_z
_atom_type_partial_charge
C1    C     C_R   0.545344 0.794425 0.497915 0.966593
C2    C     C_3   0.368957 0.405713 0.030354 -0.003049
C3    C     C_1   0.503249 0.501682 0.750466 -0.147565
C4    C     C_1   0.496751 0.498318 0.249534 -0.147566
C5    C     C_3   0.349990 0.552821 0.978061 -0.256107
C6    C     C_3   0.650009 0.447179 0.021939 -0.256107
C7    C     C_3   0.502204 0.501560 0.916551 0.084159
C8    C     C_3   0.497796 0.498440 0.083449 0.084159
C9    C     C_1   0.503603 0.502162 0.825679 -0.029490
C10   C     C_1   0.496397 0.497838 0.174320 -0.029490
C11   C     C_1   0.774593 0.697656 0.934876 0.186431
C12   C     C_R   0.454656 0.205575 0.502085 0.966593
C13   C     C_1   0.225407 0.302344 0.065124 0.186431
C14   C     C_1   0.460355 0.803178 0.068686 0.197131
C15   C     C_1   0.539645 0.196822 0.931314 0.197131
C16   C     C_1   0.026058 0.349883 0.420639 0.408618
C17   C     C_1   0.973942 0.650117 0.579360 0.408618
C18   C     C_R   0.501107 0.500731 0.661767 0.905897
C19   C     C_R   0.498893 0.499269 0.338232 0.905897
C20   C     C_2   0.569282 0.957866 0.496700 -0.360444
C21   C     C_2   0.430718 0.042134 0.503300 -0.360444
C22   C     C_3   0.481130 0.644767 0.031850 -0.001405
C23   C     C_3   0.518870 0.355233 0.968150 -0.001405
C24   C     C_3   0.631042 0.594287 0.969646 -0.003049
H1    H     H_    0.771721 0.404177 0.041188 0.168146
H2    H     H_    0.228279 0.595822 0.958812 0.168146
H3    H     H_    0.700414 0.008295 0.490380 0.183656
H4    H     H_    0.299586 0.991705 0.509620 0.183656
N1    N     N_2   0.950320 0.457950 0.477300 -0.157890
N2    N     N_2   0.049680 0.542050 0.522700 -0.157890
N3    N     N_1   0.887762 0.779085 0.907473 -0.184692
N4    N     N_1   0.112238 0.220915 0.092526 -0.184692
N5    N     N_1   0.443942 0.927904 0.097844 -0.185132
N6    N     N_1   0.556058 0.072096 0.902156 -0.185132
N7    N     N_1   0.087335 0.259010 0.372962 -0.235247
N8    N     N_1   0.912664 0.740990 0.627038 -0.235246
O1    O     O_R   0.389250 0.738570 0.505570 -0.623849
O2    O     O_R   0.610750 0.261430 0.494430 -0.623849
O3    O     O_R   0.678390 0.711630 0.491020 -0.632602
O4    O     O_R   0.321610 0.288370 0.508980 -0.632602
O5    O     O_R   0.355460 0.513480 0.630490 -0.619607
O6    O     O_R   0.644540 0.486520 0.369510 -0.619606
O7    O     O_R   0.644600 0.486540 0.615950 -0.623649
O8    O     O_R   0.355400 0.513460 0.384050 -0.623649
Zn1   Zn    Zn3+2 0.306940 0.517990 0.509710 0.960096
Zn2   Zn    Zn3+2 0.693060 0.482010 0.490290 0.960095

loop_
_geom_bond_atom_site_label_1
_geom_bond_atom_site_label_2
_ccdc_geom_bond_type
C12   O4    A    
C8    C22   S    
C13   N4    T    
N1    N2    D    
C3    C9    T    
C20   H3    S    
N2    Zn1   S    
C19   O6    A    
C1    O1    A    
N1    Zn2   S    
C6    C24   S    
C14   C22   S    
C14   N5    T    
C15   C23   S    
C16   N1    S    
C11   N3    T    
C18   O7    A    
O8    Zn1   S    
C17   N2    S    
O3    Zn2   S    
C7    C23   S    
C6    C23   S    
C17   N8    T    
C21   H4    S    
C5    C7    S    
C16   N7    T    
C12   O2    A    
O4    Zn1   S    
O7    Zn2   S    
C22   C24   S    
O2    Zn2   S    
C2    C5    S    
C1    O3    A    
O1    Zn1   S    
C5    H2    S    
C6    H1    S    
C11   C24   S    
C19   O8    A    
C3    C18   S    
C8    C10   S    
O6    Zn2   S    
C18   O5    A    
C2    C23   S    
C7    C9    S    
C2    C13   S    
O5    Zn1   S    
C1    C20   S    
C6    C8    S    
C15   N6    T    
C20   C21   D    
C4    C19   S    
C4    C10   T    
C12   C21   S    
C2    C8    S    
C5    C22   S    
C7    C24   S    
