data_mof_unit_40403.cif
_audit_creation_date              2012-12-11T16:34:27-0500
_audit_creation_method            fapswitch 2.2
_symmetry_space_group_name_H-M    P1
_symmetry_Int_Tables_number       1
_space_group_crystal_system       triclinic
_cell_length_a                    8.441339
_cell_length_b                    17.706631
_cell_length_c                    27.215772
_cell_angle_alpha                 98.022085
_cell_angle_beta                  91.958537
_cell_angle_gamma                 83.486718
_cell_volume                      4001.37659436

loop_
_atom_site_label
_atom_site_type_symbol
_atom_type_description
_atom_site_fract_x
_atom_site_fract_y
_atom_site_fract_z
_atom_type_partial_charge
Ba1   Ba    Ba6+2 0.856110 0.463800 0.523550 1.732875
Ba2   Ba    Ba6+2 0.333710 0.536130 0.476450 1.700499
C1    C     C_3   0.665135 0.178066 0.644011 -0.268264
C2    C     C_R   0.868683 0.558228 0.177791 0.579763
C3    C     C_2   0.738264 0.510267 0.269288 0.031613
C4    C     C_3   0.193781 0.282037 0.653083 0.192713
C5    C     C_3   0.691286 0.505630 0.322018 0.003186
C6    C     C_1   0.978724 0.481788 0.342345 0.022390
C7    C     C_2   0.019255 0.484692 0.295662 -0.067504
C8    C     C_2   0.894000 0.499156 0.255812 0.215025
C9    C     C_R   0.011000 0.499470 0.102610 -0.065689
C10   C     C_R   0.084522 0.442377 0.129993 -0.036108
C11   C     C_R   0.196166 0.385085 0.106493 -0.027182
C12   C     C_3   0.704686 0.257101 0.634568 0.364270
C13   C     C_R   0.897273 0.556789 0.125987 -0.087648
C14   C     C_2   0.832933 0.509608 0.357357 -0.334962
C15   C     C_2   0.315376 0.465148 0.645274 -0.192613
C16   C     C_3   0.210842 0.247465 0.701554 -0.234008
C17   C     C_R   0.190359 0.434280 0.976084 0.016531
C18   C     C_R   0.043601 0.561679 0.976673 0.009068
C19   C     C_R   0.137797 0.497717 0.951128 0.068544
C20   C     C_R   0.271729 0.369026 0.948310 -0.114736
C21   C     C_R   0.303709 0.366099 0.897782 -0.014860
C22   C     C_R   0.261851 0.431680 0.873103 -0.077846
C23   C     C_3   0.597043 0.673163 0.631381 0.209141
C24   C     C_R   0.180934 0.497857 0.900541 -0.071746
C25   C     C_R   0.144189 0.564851 0.877783 -0.029608
C26   C     C_R   0.185968 0.565229 0.827813 0.638383
C27   C     C_R   0.299056 0.434006 0.822427 0.613381
C28   C     C_3   0.121705 0.290036 0.406162 0.226051
C29   C     C_2   0.437996 0.478615 0.729629 -0.074666
C30   C     C_3   0.468505 0.475954 0.675104 0.021329
C31   C     C_1   0.185482 0.510410 0.660155 0.088640
C32   C     C_2   0.153729 0.515699 0.709374 -0.105495
C33   C     C_2   0.288170 0.498577 0.746927 0.187901
C34   C     C_3   0.633909 0.714805 0.683619 -0.289632
C35   C     C_R   0.159220 0.437901 0.027862 0.032132
C36   C     C_R   0.051188 0.498521 0.051743 0.073883
C37   C     C_R   0.981818 0.557213 0.024678 -0.027676
C38   C     C_R   0.232681 0.382785 0.056741 -0.088846
C39   C     C_R   0.811546 0.608945 0.096475 -0.031663
C40   C     C_3   0.990864 0.246649 0.379690 -0.207987
C41   C     C_R   0.021113 0.629507 0.954284 -0.101490
C42   C     C_R   0.068738 0.630871 0.905859 -0.040697
C43   C     C_R   0.849004 0.606976 0.045628 -0.097747
C44   C     C_R   0.417842 0.281604 0.520833 -0.295519
C45   C     C_3   0.996691 0.704577 0.333162 0.272591
C46   C     C_R   0.560534 0.257392 0.496329 0.056404
C47   C     C_R   0.619435 0.178908 0.489939 -0.078780
C48   C     C_R   0.533576 0.124771 0.507634 0.003602
C49   C     C_R   0.385937 0.150044 0.530437 -0.064202
C50   C     C_R   0.327233 0.228308 0.535990 0.003322
C51   C     C_R   0.585827 0.841305 0.509534 -0.105992
C52   C     C_3   0.032523 0.727716 0.613210 0.121591
C53   C     C_R   0.628552 0.760624 0.500101 -0.060583
C54   C     C_R   0.861204 0.780155 0.454145 0.052378
C55   C     C_R   0.819180 0.859962 0.462507 -0.119587
C56   C     C_3   0.089175 0.682186 0.284927 -0.253559
C57   C     C_R   0.679237 0.891280 0.488681 0.008064
C58   C     C_1   0.634604 0.974446 0.494450 0.083543
C59   C     C_1   0.591296 0.043118 0.500090 0.069183
C60   C     C_R   0.757247 0.732826 0.469845 -0.199107
C61   C     C_3   0.177214 0.765799 0.636304 -0.211185
C62   C     C_3   0.570257 0.339825 0.368656 0.131012
C63   C     C_3   0.550863 0.299180 0.314581 -0.268434
C64   C     C_2   0.888483 0.785701 0.626057 0.481616
C65   C     C_2   0.040005 0.717431 0.558115 0.754759
C66   C     C_2   0.770037 0.112221 0.616706 0.484598
C67   C     C_3   0.478727 0.727259 0.361132 0.372059
C68   C     C_2   0.712046 0.277839 0.290175 0.544436
C69   C     C_2   0.444630 0.353090 0.285271 0.571437
C70   C     C_2   0.474206 0.225682 0.315438 0.438407
C71   C     C_2   0.466391 0.623395 0.633846 0.728365
C72   C     C_2   0.844582 0.753120 0.323096 0.506270
C73   C     C_2   0.382524 0.292367 0.872987 0.956028
C74   C     C_2   0.670963 0.660170 0.116844 1.034303
C75   C     C_2   0.988633 0.525135 0.727839 0.955922
C76   C     C_2   0.731551 0.644892 0.011941 0.480684
C77   C     C_2   0.802230 0.529831 0.410081 0.505374
C78   C     C_3   0.422946 0.801134 0.339832 -0.286410
C79   C     C_2   0.447316 0.871633 0.541733 0.527828
C80   C     C_2   0.055275 0.257698 0.728006 0.594047
C81   C     C_2   0.262551 0.233051 0.415417 0.476574
C82   C     C_R   0.044254 0.442666 0.180183 0.636332
H1    H     H_    0.828151 0.264608 0.647973 0.105323
H2    H     H_    0.693593 0.260369 0.594052 0.046020
H3    H     H_    0.539222 0.171439 0.632551 0.050306
H4    H     H_    0.705813 0.637881 0.617555 0.037984
H5    H     H_    0.578801 0.775271 0.688132 0.169159
H6    H     H_    0.591425 0.687248 0.714157 0.110284
H7    H     H_    0.763734 0.713646 0.690145 0.188603
H8    H     H_    0.677318 0.174361 0.684445 0.136110
H9    H     H_    0.255967 0.185558 0.693677 0.147635
H10   H     H_    0.968863 0.651052 0.346502 -0.070869
H11   H     H_    0.211179 0.656523 0.292590 0.152526
H12   H     H_    0.037602 0.206452 0.346953 0.140160
H13   H     H_    0.029266 0.639756 0.259296 0.121094
H14   H     H_    0.098888 0.733345 0.266200 0.120523
H15   H     H_    0.585079 0.736375 0.385241 -0.078934
H16   H     H_    0.380961 0.715305 0.383954 0.109454
H17   H     H_    0.384476 0.847175 0.370477 0.077346
H18   H     H_    0.320972 0.792505 0.313676 0.139281
H19   H     H_    0.134893 0.341900 0.660235 0.021088
H20   H     H_    0.519847 0.820235 0.319826 0.150790
H21   H     H_    0.143637 0.479692 0.286204 0.121491
H22   H     H_    0.256580 0.341191 0.126659 0.148680
H23   H     H_    0.935017 0.213649 0.405021 0.117425
H24   H     H_    0.537517 0.468062 0.755025 0.122025
H25   H     H_    0.305007 0.317172 0.964624 0.088638
H26   H     H_    0.323014 0.337971 0.042169 0.089865
H27   H     H_    0.644132 0.517253 0.241581 0.129408
H28   H     H_    0.970480 0.683219 0.974480 0.113038
H29   H     H_    0.316032 0.282952 0.639432 0.025774
H30   H     H_    0.045169 0.684240 0.890337 0.140892
H31   H     H_    0.316875 0.427964 0.610038 0.046224
H32   H     H_    0.315216 0.109034 0.542647 0.128684
H33   H     H_    0.896149 0.897531 0.449361 0.084585
H34   H     H_    0.904271 0.290188 0.365593 0.126948
H35   H     H_    0.728232 0.159877 0.469687 0.095249
H36   H     H_    0.370229 0.341435 0.524165 0.055343
H37   H     H_    0.784338 0.672828 0.462890 0.054616
H38   H     H_    0.299881 0.276437 0.726007 0.129304
H39   H     H_    0.082719 0.321886 0.442410 0.046556
H40   H     H_    0.793251 0.793957 0.598955 -0.025291
H41   H     H_    0.894302 0.634825 0.545172 0.249620
H42   H     H_    0.752716 0.054051 0.621836 0.055231
H43   H     H_    0.755806 0.217959 0.278513 0.001187
H44   H     H_    0.324262 0.373105 0.297726 0.064127
H45   H     H_    0.189685 0.761386 0.676596 0.185994
H46   H     H_    0.533328 0.181268 0.335656 0.035714
H47   H     H_    0.551548 0.532767 0.587079 0.302141
H48   H     H_    0.802141 0.801834 0.349915 -0.067464
H49   H     H_    0.577390 0.214219 0.869432 0.333486
H50   H     H_    0.578217 0.767704 0.142902 0.334531
H51   H     H_    0.767772 0.580362 0.728288 0.286325
H52   H     H_    0.710642 0.616357 0.974695 0.007460
H53   H     H_    0.873518 0.568232 0.431946 0.020955
H54   H     H_    0.359185 0.834516 0.548289 0.073764
H55   H     H_    0.998197 0.315000 0.740314 0.048207
H56   H     H_    0.168900 0.827602 0.631600 0.106540
H57   H     H_    0.381437 0.250347 0.415609 -0.066710
H58   H     H_    0.283293 0.739097 0.616673 0.122101
H59   H     H_    0.633535 0.392008 0.368246 0.079677
H60   H     H_    0.449881 0.355052 0.384599 0.083520
N1    N     N_R   0.937611 0.500375 0.203936 -0.436040
N2    N     N_R   0.257462 0.499486 0.799993 -0.415884
O1    O     O_2   0.910880 0.540430 0.617910 -0.490451
O2    O     O_2   0.196797 0.774643 0.456185 -0.442322
O3    O     O_3   0.092070 0.747774 0.367067 -0.654103
O4    O     O_3   0.142880 0.540370 0.557740 -0.416882
O5    O     O_3   0.562610 0.408580 0.475460 -0.431580
O6    O     O_2   0.365880 0.685750 0.523280 -0.405081
O7    O     O_3   0.550289 0.728378 0.599767 -0.687517
O8    O     O_2   0.359773 0.551311 0.328059 -0.505196
O9    O     O_3   0.517544 0.666823 0.322609 -0.577840
O10   O     O_2   0.102760 0.390569 0.202444 -0.545824
O11   O     O_2   0.368818 0.377726 0.798147 -0.587839
O12   O     O_3   0.658455 0.290246 0.398379 -0.677900
O13   O     O_2   0.784788 0.612037 0.199973 -0.540247
O14   O     O_2   0.158434 0.624274 0.809025 -0.564361
O15   O     O_3   0.675650 0.402220 0.588450 -0.498433
O16   O     O_2   0.797700 0.416253 0.679022 -0.497384
O17   O     O_3   0.015335 0.660814 0.635245 -0.604488
O18   O     O_3   0.597260 0.313200 0.661050 -0.633867
O19   O     O_2   0.823810 0.314230 0.476690 -0.457468
O20   O     O_3   0.086630 0.363340 0.564170 -0.507920
O21   O     O_2   0.996579 0.226333 0.526984 -0.429797
O22   O     O_2   0.877442 0.825192 0.666667 -0.549467
O23   O     O_3   0.102794 0.237381 0.618607 -0.565253
O24   O     O_2   0.085252 0.769212 0.539187 -0.602468
O25   O     O_R   0.978059 0.657444 0.528058 -0.713188
O26   O     O_2   0.873187 0.122447 0.588724 -0.536002
O27   O     O_2   0.795764 0.327385 0.283294 -0.561916
O28   O     O_2   0.489557 0.373314 0.247282 -0.549794
O29   O     O_2   0.347637 0.214595 0.293734 -0.535319
O30   O     O_2   0.372557 0.636578 0.667931 -0.649498
O31   O     O_R   0.446529 0.563695 0.596144 -0.742598
O32   O     O_2   0.766138 0.737645 0.285220 -0.521384
O33   O     O_2   0.311900 0.254247 0.839989 -0.561635
O34   O     O_2   0.278810 0.459550 0.382060 -0.480296
O35   O     O_R   0.535859 0.265379 0.888836 -0.736404
O36   O     O_2   0.547249 0.633216 0.123186 -0.590882
O37   O     O_R   0.681354 0.738832 0.129120 -0.673478
O38   O     O_2   0.953311 0.485290 0.758213 -0.620033
O39   O     O_R   0.875169 0.581261 0.713003 -0.730921
O40   O     O_2   0.661457 0.708481 0.024432 -0.526309
O41   O     O_2   0.715544 0.494103 0.430445 -0.514685
O42   O     O_2   0.430905 0.937772 0.562302 -0.584932
O43   O     O_2   0.992366 0.201967 0.736021 -0.535881
O44   O     O_2   0.246575 0.167170 0.422528 -0.595625
O45   O     O_3   0.046820 0.459570 0.442260 -0.489408
O46   O     O_3   0.514050 0.597710 0.411540 -0.470216
O47   O     O_3   0.167976 0.337706 0.373235 -0.647682
O48   O     O_3   0.627090 0.591350 0.524530 -0.456179
O49   O     O_3   0.103080 0.636600 0.435820 -0.429920
P1    P     P_3+3 0.078810 0.562990 0.610370 1.112348
P2    P     P_3+3 0.645380 0.325580 0.462150 1.014435
P3    P     P_3+3 0.127547 0.263354 0.560003 1.004580
P4    P     P_3+3 0.110900 0.436950 0.389630 0.992304
P5    P     P_3+3 0.059019 0.734640 0.428413 1.001636
P6    P     P_3+3 0.637747 0.404759 0.651255 0.933530
P7    P     P_3+3 0.549199 0.690333 0.536279 0.942228
P8    P     P_3+3 0.521410 0.579046 0.345992 0.962982

loop_
_geom_bond_atom_site_label_1
_geom_bond_atom_site_label_2
_ccdc_geom_bond_type
C68   H43   S    
Ba2   O4    S    
C19   C24   A    
C72   H48   S    
C75   O39   S    
C61   H56   S    
O5    P2    S    
C81   O44   D    
Ba1   P2    S    
C1    C66   S    
C56   H14   S    
H50   O37   S    
C56   H11   S    
O12   P2    S    
C58   C59   T    
O8    P8    D    
C51   C57   A    
C82   N1    Am   
C24   C25   A    
C67   O9    S    
C77   O41   D    
C78   H20   S    
C40   H12   S    
O17   P1    S    
O15   P6    S    
C17   C19   A    
O45   P4    S    
Ba1   Ba2   S    
C35   C38   A    
C32   C75   S    
C36   C37   A    
C32   C33   S    
C74   O36   D    
C55   C57   A    
C2    O13   D    
C52   C61   S    
C7    H21   S    
C63   C68   S    
O48   P7    S    
C53   C60   A    
C44   C50   A    
C26   O14   D    
C75   O38   D    
C54   C55   A    
C10   C82   A    
C51   C79   S    
Ba2   O49   S    
C29   H24   S    
C70   O29   D    
C30   P6    S    
C22   C27   A    
C11   C38   A    
C5    P8    S    
C17   C35   A    
H47   O31   S    
C9    C13   A    
C25   C42   A    
C45   H10   S    
C45   O3    S    
C31   P1    S    
C6    C7    D    
C21   C22   A    
C43   C76   S    
C76   O40   D    
C52   O17   S    
C74   O37   S    
C73   O33   D    
C40   H23   S    
C79   O42   D    
C23   C71   S    
C37   C43   A    
C71   O31   S    
Ba1   O15   S    
C57   C58   S    
C6    C14   D    
O6    P7    D    
O7    P7    S    
C56   H13   S    
Ba2   O34   S    
O9    P8    S    
O3    P5    S    
C31   C32   D    
C51   C53   A    
C65   O24   D    
Ba2   O6    S    
C79   H54   S    
C4    C16   S    
C44   C46   A    
O16   P6    D    
C23   O7    S    
Ba2   P4    S    
Ba1   O4    S    
C17   C20   A    
Ba2   O45   S    
C13   C39   A    
C28   C81   S    
C21   C73   S    
C27   N2    Am   
C81   H57   S    
C18   C37   A    
O2    P5    D    
C38   H26   S    
C52   C65   S    
C3    H27   S    
C65   O25   S    
C63   C69   S    
C53   P7    S    
C1    H3    S    
C23   H4    S    
C49   C50   A    
C78   H18   S    
C1    H8    S    
Ba2   O48   S    
C33   N2    S    
C9    C36   A    
C41   C42   A    
O20   P3    S    
C4    H29   S    
C35   C36   A    
O19   P2    D    
C29   C30   S    
C72   O32   D    
Ba1   O19   S    
C20   H25   S    
O4    P1    S    
Ba1   P1    S    
C80   H55   S    
C48   C49   A    
C44   H36   S    
O1    P1    D    
C15   C31   D    
C4    H19   S    
C28   H39   S    
C12   H2    S    
C1    C12   S    
C16   H38   S    
Ba1   O45   S    
C34   H7    S    
H49   O35   S    
C46   C47   A    
C77   H53   S    
C34   H5    S    
C64   H40   S    
C69   H44   S    
Ba1   O1    S    
C50   P3    S    
C41   H28   S    
C55   H33   S    
C73   O35   S    
C66   H42   S    
C18   C41   A    
C15   H31   S    
C3    C5    S    
O49   P5    S    
C7    C8    S    
C34   H6    S    
Ba2   O5    S    
C15   C30   S    
C5    C14   S    
C18   C19   A    
C40   H34   S    
C22   C24   A    
C12   H1    S    
Ba2   O46   S    
C11   H22   S    
C67   C78   S    
C8    N1    S    
C27   O11   D    
C9    C10   A    
C70   H46   S    
C52   C64   S    
C62   H59   S    
C63   C70   S    
C62   H60   S    
C78   H17   S    
C26   N2    Am   
C49   H32   S    
C69   O28   D    
C64   O22   D    
C46   P2    S    
C14   C77   S    
C62   C63   S    
C67   H15   S    
C71   O30   D    
Ba1   O48   S    
C3    C8    D    
C80   O43   D    
O34   P4    D    
O47   P4    S    
C45   C56   S    
C82   O10   D    
C47   H35   S    
Ba1   O20   S    
C2    C13   A    
C2    N1    Am   
C29   C33   D    
C16   C80   S    
C61   H58   S    
Ba1   O5    S    
C54   C60   A    
C61   H45   S    
C12   O18   S    
C45   C72   S    
H41   O25   S    
C68   O27   D    
O18   P6    S    
C23   C34   S    
C42   H30   S    
C28   O47   S    
C67   H16   S    
C48   C59   S    
C10   C11   A    
C47   C48   A    
C62   O12   S    
C25   C26   A    
C16   H9    S    
C39   C43   A    
C20   C21   A    
C28   C40   S    
C6    P4    S    
C54   P5    S    
C76   H52   S    
H51   O39   S    
C60   H37   S    
O46   P8    S    
C66   O26   D    
O21   P3    D    
O23   P3    S    
C39   C74   S    
C4    O23   S    
