data_mof_unit_61659.cif
_audit_creation_date              2012-12-10T18:13:50-0500
_audit_creation_method            fapswitch 2.2
_symmetry_space_group_name_H-M    P1
_symmetry_Int_Tables_number       1
_space_group_crystal_system       triclinic
_cell_length_a                    32.225327
_cell_length_b                    32.225421
_cell_length_c                    30.233393
_cell_angle_alpha                 90.000219
_cell_angle_beta                  89.999804
_cell_angle_gamma                 89.999339
_cell_volume                      31396.6146132

loop_
_atom_site_label
_atom_site_type_symbol
_atom_type_description
_atom_site_fract_x
_atom_site_fract_y
_atom_site_fract_z
_atom_type_partial_charge
C1    C     C_R   0.420418 0.000000 1.000000 0.807477
C2    C     C_R   0.000002 0.579579 0.000002 0.815241
C3    C     C_R   0.579577 1.000000 0.000000 0.814385
C4    C     C_R   0.000003 0.420421 0.999998 0.815238
C5    C     C_R   0.920421 0.500003 0.500002 0.815228
C6    C     C_R   0.500000 0.079577 0.499999 0.814387
C7    C     C_R   0.079579 0.500002 0.499998 0.815228
C8    C     C_R   0.500000 0.920418 0.500000 0.807476
C9    C     C_R   0.271600 0.962395 0.997950 0.500448
C10   C     C_R   0.986127 0.728381 0.037245 0.475873
C11   C     C_R   0.728355 0.017767 0.035350 0.476295
C12   C     C_R   0.014068 0.271638 0.037230 0.476640
C13   C     C_R   0.271599 0.037607 0.002052 0.500806
C14   C     C_R   0.986148 0.271619 0.962746 0.475909
C15   C     C_R   0.728356 0.982231 0.964654 0.475782
C16   C     C_R   0.014076 0.728362 0.962772 0.476589
C17   C     C_R   0.771619 0.486104 0.537236 0.475916
C18   C     C_R   0.482251 0.228356 0.535355 0.475838
C19   C     C_R   0.228362 0.514152 0.537196 0.476611
C20   C     C_R   0.537611 0.771598 0.498024 0.500795
C21   C     C_R   0.771637 0.514123 0.462794 0.476654
C22   C     C_R   0.462392 0.771600 0.501972 0.500425
C23   C     C_R   0.228381 0.486048 0.462789 0.475868
C24   C     C_R   0.517749 0.228355 0.464636 0.476288
C25   C     C_R   0.293444 0.000001 0.000000 -0.264863
C26   C     C_R   0.000120 0.706541 0.000023 -0.248032
C27   C     C_R   0.706529 0.999999 0.000002 -0.246418
C28   C     C_R   0.000125 0.293459 0.999974 -0.247973
C29   C     C_R   0.793458 0.500129 0.500028 -0.247963
C30   C     C_R   0.500000 0.206529 0.499996 -0.246445
C31   C     C_R   0.206541 0.500119 0.499978 -0.248010
C32   C     C_R   0.500002 0.793444 0.499999 -0.264827
C33   C     C_1   0.161287 0.000001 0.000000 0.129011
C34   C     C_1   0.000216 0.838700 0.999997 0.134799
C35   C     C_1   0.838692 0.000000 0.000001 0.135645
C36   C     C_1   0.000220 0.161300 0.000001 0.134805
C37   C     C_1   0.661300 0.500221 0.500001 0.134821
C38   C     C_1   0.500003 0.338692 0.499998 0.135632
C39   C     C_1   0.338700 0.500211 0.500003 0.134823
C40   C     C_1   0.500000 0.661287 0.499998 0.128981
C41   C     C_1   0.338289 0.000001 0.000000 0.228240
C42   C     C_1   0.000068 0.661699 0.000017 0.230851
C43   C     C_1   0.661690 0.999999 0.000001 0.231525
C44   C     C_1   0.000071 0.338301 0.999981 0.230930
C45   C     C_1   0.838301 0.500073 0.500019 0.230937
C46   C     C_1   0.499999 0.161691 0.499996 0.231524
C47   C     C_1   0.161699 0.500067 0.499985 0.230859
C48   C     C_1   0.500002 0.838289 0.499999 0.228244
C49   C     C_1   0.375778 0.000001 0.000000 -0.070786
C50   C     C_1   0.000022 0.624214 0.000010 -0.073792
C51   C     C_1   0.624208 0.999999 0.000001 -0.073272
C52   C     C_1   0.000024 0.375786 0.999989 -0.073725
C53   C     C_1   0.875786 0.500025 0.500011 -0.073720
C54   C     C_1   0.499999 0.124208 0.499998 -0.073273
C55   C     C_1   0.124214 0.500022 0.499991 -0.073785
C56   C     C_1   0.500001 0.875777 0.500000 -0.070788
C57   C     C_1   0.123847 0.000000 0.000000 -0.166883
C58   C     C_1   0.000164 0.876147 0.999995 -0.178536
C59   C     C_1   0.876141 0.000000 0.000000 -0.175632
C60   C     C_1   0.000167 0.123853 0.000005 -0.178550
C61   C     C_1   0.623853 0.500167 0.499996 -0.178549
C62   C     C_1   0.500002 0.376141 0.499999 -0.175667
C63   C     C_1   0.376147 0.500161 0.500005 -0.178534
C64   C     C_1   0.500000 0.623847 0.499999 -0.166901
C65   C     C_R   0.000054 0.079285 0.000001 0.794757
C66   C     C_R   0.079281 0.000000 1.000000 0.795835
C67   C     C_R   0.000053 0.920715 0.999999 0.794765
C68   C     C_R   0.920713 0.000000 0.000000 0.794648
C69   C     C_R   0.500000 0.579281 0.500000 0.795844
C70   C     C_R   0.579285 0.500053 0.499999 0.794760
C71   C     C_R   0.500001 0.420713 0.500000 0.794654
C72   C     C_R   0.420715 0.500052 0.500001 0.794767
C73   C     C_R   0.500002 0.000001 0.085776 0.910520
C74   C     C_R   1.000000 0.500000 0.085776 0.914273
C75   C     C_R   0.500002 1.000000 0.914224 0.910539
C76   C     C_R   0.000000 0.500000 0.914224 0.914273
C77   C     C_R   1.000000 0.500000 0.585776 0.914259
C78   C     C_R   0.500000 0.000002 0.585776 0.910542
C79   C     C_R   0.000000 0.500000 0.414224 0.914262
C80   C     C_R   0.500000 0.000002 0.414224 0.910523
C81   C     C_R   0.472674 0.026049 0.343008 0.602553
C82   C     C_R   0.026042 0.527331 0.343009 0.603500
C83   C     C_R   0.527341 0.973969 0.343009 0.598538
C84   C     C_R   0.973958 0.472669 0.343008 0.603532
C85   C     C_R   0.472665 0.973965 0.656992 0.598013
C86   C     C_R   0.026042 0.472668 0.656991 0.603483
C87   C     C_R   0.527332 0.026045 0.656991 0.603111
C88   C     C_R   0.973958 0.527332 0.656992 0.603545
C89   C     C_R   0.972669 0.526043 0.843009 0.603489
C90   C     C_R   0.526045 0.027332 0.843009 0.603108
C91   C     C_R   0.027331 0.473957 0.843008 0.603547
C92   C     C_R   0.473966 0.972665 0.843008 0.598017
C93   C     C_R   0.972669 0.473957 0.156991 0.603534
C94   C     C_R   0.526049 0.972674 0.156992 0.602547
C95   C     C_R   0.027330 0.526043 0.156991 0.603504
C96   C     C_R   0.473969 0.027341 0.156991 0.598546
C97   C     C_R   0.500003 0.000005 0.365946 -0.351525
C98   C     C_R   0.000000 0.500000 0.365946 -0.351297
C99   C     C_R   0.499999 0.000004 0.634054 -0.351526
C100  C     C_R   0.000000 0.500000 0.634054 -0.351297
C101  C     C_R   0.000000 0.500000 0.865946 -0.351308
C102  C     C_R   0.500004 0.999999 0.865946 -0.351530
C103  C     C_R   1.000000 0.500000 0.134054 -0.351308
C104  C     C_R   0.500005 0.000004 0.134054 -0.351528
C105  C     C_R   0.527287 0.973379 0.296628 -0.186877
C106  C     C_R   0.973366 0.472726 0.296628 -0.186224
C107  C     C_R   0.472737 0.026647 0.296628 -0.186342
C108  C     C_R   0.026635 0.527274 0.296628 -0.186033
C109  C     C_R   0.527275 0.026637 0.703372 -0.186624
C110  C     C_R   0.973365 0.527275 0.703372 -0.186135
C111  C     C_R   0.472725 0.973371 0.703372 -0.186598
C112  C     C_R   0.026635 0.472726 0.703372 -0.186119
C113  C     C_R   0.027274 0.473364 0.796628 -0.186138
C114  C     C_R   0.473371 0.972725 0.796628 -0.186603
C115  C     C_R   0.972727 0.526636 0.796629 -0.186124
C116  C     C_R   0.526637 0.027275 0.796628 -0.186622
C117  C     C_R   0.027273 0.526635 0.203372 -0.186036
C118  C     C_R   0.473379 0.027287 0.203372 -0.186886
C119  C     C_R   0.972727 0.473365 0.203372 -0.186226
C120  C     C_R   0.526646 0.972736 0.203372 -0.186337
C121  C     C_R   0.500013 0.000013 0.273326 -0.182424
C122  C     C_R   0.000000 0.500000 0.273326 -0.182142
C123  C     C_R   0.500001 0.000003 0.726673 -0.182420
C124  C     C_R   0.000000 0.500000 0.726673 -0.182143
C125  C     C_R   0.000000 0.500000 0.773327 -0.182147
C126  C     C_R   0.500003 0.000001 0.773326 -0.182420
C127  C     C_R   0.000000 0.500000 0.226673 -0.182146
C128  C     C_R   0.500013 0.000013 0.226674 -0.182423
C129  C     C_R   0.553794 0.946697 0.273031 0.599538
C130  C     C_R   0.946682 0.446222 0.273030 0.602969
C131  C     C_R   0.446236 0.053334 0.273030 0.600899
C132  C     C_R   0.053319 0.553778 0.273030 0.602823
C133  C     C_R   0.553779 0.053321 0.726970 0.602104
C134  C     C_R   0.946681 0.553779 0.726970 0.602929
C135  C     C_R   0.446223 0.946685 0.726970 0.598355
C136  C     C_R   0.053319 0.446221 0.726969 0.602858
C137  C     C_R   0.053777 0.446679 0.773030 0.602936
C138  C     C_R   0.446685 0.946222 0.773030 0.598365
C139  C     C_R   0.946223 0.553321 0.773031 0.602868
C140  C     C_R   0.553321 0.053779 0.773030 0.602103
C141  C     C_R   0.053776 0.553320 0.226970 0.602833
C142  C     C_R   0.446697 0.053794 0.226969 0.599547
C143  C     C_R   0.946224 0.446680 0.226969 0.602975
C144  C     C_R   0.553334 0.946236 0.226970 0.600891
C145  C     C_R   0.228016 0.037807 0.001260 0.298495
C146  C     C_R   0.015175 0.772024 0.963012 0.305333
C147  C     C_R   0.772021 0.981087 0.965074 0.306789
C148  C     C_R   0.984987 0.227956 0.963032 0.306012
C149  C     C_R   0.228017 0.962195 0.998742 0.298812
C150  C     C_R   0.015168 0.227975 0.036990 0.305383
C151  C     C_R   0.772020 0.018914 0.034929 0.306604
C152  C     C_R   0.984965 0.772044 0.036958 0.305976
C153  C     C_R   0.727975 0.515222 0.463036 0.305401
C154  C     C_R   0.518896 0.272020 0.465056 0.306611
C155  C     C_R   0.272044 0.484886 0.463078 0.305983
C156  C     C_R   0.462193 0.728017 0.501177 0.298798
C157  C     C_R   0.727956 0.484944 0.536950 0.305988
C158  C     C_R   0.537810 0.728015 0.498816 0.298482
C159  C     C_R   0.272025 0.515247 0.536953 0.305320
C160  C     C_R   0.481113 0.272021 0.534938 0.306732
C161  C     C_R   0.206149 0.000001 0.000001 -0.238680
C162  C     C_R   0.000156 0.793847 0.000009 -0.218070
C163  C     C_R   0.793835 0.000000 0.000001 -0.217469
C164  C     C_R   0.000162 0.206153 0.999988 -0.218047
C165  C     C_R   0.706153 0.500166 0.500015 -0.218013
C166  C     C_R   0.500005 0.293835 0.499997 -0.217445
C167  C     C_R   0.293847 0.500151 0.499992 -0.218040
C168  C     C_R   0.500001 0.706148 0.499997 -0.238650
Cu1   Cu    Cu3+1 0.500000 0.958950 0.000000 1.130076
Cu2   Cu    Cu3+1 0.958950 0.500000 0.000000 1.126113
Cu3   Cu    Cu3+1 0.500000 0.041050 0.000000 1.132892
Cu4   Cu    Cu3+1 0.041050 0.500000 0.000000 1.126929
Cu5   Cu    Cu3+1 0.000000 0.458950 0.500000 1.126127
Cu6   Cu    Cu3+1 0.458950 0.000000 0.500000 1.130085
Cu7   Cu    Cu3+1 0.000000 0.541050 0.500000 1.126948
Cu8   Cu    Cu3+1 0.541050 0.000000 0.500000 1.132891
Cu9   Cu    Cu3+1 0.000000 0.000000 0.044450 1.009093
Cu10  Cu    Cu3+1 0.000000 0.000000 0.955550 1.009087
Cu11  Cu    Cu3+1 0.500000 0.500000 0.544450 1.009048
Cu12  Cu    Cu3+1 0.500000 0.500000 0.455550 1.009108
O1    O     O_R   0.440170 0.965330 0.000010 -0.562535
O2    O     O_R   0.965330 0.559830 0.000010 -0.567373
O3    O     O_R   0.559830 0.034670 0.000010 -0.566506
O4    O     O_R   0.034670 0.440170 0.000010 -0.567168
O5    O     O_R   0.440170 0.034670 0.999990 -0.561893
O6    O     O_R   0.965330 0.440170 0.999990 -0.567338
O7    O     O_R   0.559830 0.965330 0.999990 -0.567151
O8    O     O_R   0.034670 0.559830 0.999990 -0.567202
O9    O     O_R   0.940170 0.465330 0.500010 -0.567334
O10   O     O_R   0.465330 0.059830 0.500010 -0.567149
O11   O     O_R   0.059830 0.534670 0.500010 -0.567193
O12   O     O_R   0.534670 0.940170 0.500010 -0.561891
O13   O     O_R   0.940170 0.534670 0.499990 -0.567163
O14   O     O_R   0.465330 0.940170 0.499990 -0.562531
O15   O     O_R   0.059830 0.465330 0.499990 -0.567367
O16   O     O_R   0.534670 0.059830 0.499990 -0.566511
O17   O     O_R   0.500030 0.965330 0.064870 -0.547720
O18   O     O_R   0.965330 0.499970 0.064870 -0.545665
O19   O     O_R   0.499970 0.034670 0.064870 -0.542930
O20   O     O_R   0.034670 0.500030 0.064870 -0.545515
O21   O     O_R   0.500030 0.034670 0.935130 -0.546797
O22   O     O_R   0.965330 0.500030 0.935130 -0.545712
O23   O     O_R   0.499970 0.965330 0.935130 -0.543840
O24   O     O_R   0.034670 0.499970 0.935130 -0.545471
O25   O     O_R   0.000030 0.465330 0.564870 -0.545710
O26   O     O_R   0.465330 0.999970 0.564870 -0.543844
O27   O     O_R   0.999970 0.534670 0.564870 -0.545466
O28   O     O_R   0.534670 0.000030 0.564870 -0.546793
O29   O     O_R   0.000030 0.534670 0.435130 -0.545512
O30   O     O_R   0.465330 0.000030 0.435130 -0.547716
O31   O     O_R   0.999970 0.465330 0.435130 -0.545660
O32   O     O_R   0.534670 0.999970 0.435130 -0.542936
O33   O     O_R   0.000010 0.059770 0.037600 -0.569415
O34   O     O_R   0.059770 0.999990 0.037600 -0.572098
O35   O     O_R   0.999990 0.940230 0.037600 -0.569457
O36   O     O_R   0.940230 0.000010 0.037600 -0.568353
O37   O     O_R   0.000010 0.940230 0.962400 -0.569402
O38   O     O_R   0.059770 0.000010 0.962400 -0.571991
O39   O     O_R   0.999990 0.059770 0.962400 -0.569481
O40   O     O_R   0.940230 0.999990 0.962400 -0.568453
O41   O     O_R   0.500010 0.559770 0.537600 -0.572002
O42   O     O_R   0.559770 0.499990 0.537600 -0.569483
O43   O     O_R   0.499990 0.440230 0.537600 -0.568474
O44   O     O_R   0.440230 0.500010 0.537600 -0.569399
O45   O     O_R   0.500010 0.440230 0.462400 -0.568348
O46   O     O_R   0.559770 0.500010 0.462400 -0.569402
O47   O     O_R   0.499990 0.559770 0.462400 -0.572109
O48   O     O_R   0.440230 0.499990 0.462400 -0.569439
F1    F     F_    0.446977 0.051498 0.366198 -0.569538
F2    F     F_    0.051495 0.553024 0.366198 -0.568501
F3    F     F_    0.553036 0.948518 0.366198 -0.568469
F4    F     F_    0.948506 0.446976 0.366198 -0.568390
F5    F     F_    0.446969 0.948516 0.633802 -0.568848
F6    F     F_    0.051495 0.446975 0.633801 -0.568501
F7    F     F_    0.553027 0.051495 0.633801 -0.569129
F8    F     F_    0.948505 0.553025 0.633802 -0.568393
F9    F     F_    0.946977 0.551496 0.866199 -0.568483
F10   F     F_    0.551495 0.053027 0.866199 -0.569131
F11   F     F_    0.053023 0.448504 0.866198 -0.568385
F12   F     F_    0.448517 0.946968 0.866198 -0.568833
F13   F     F_    0.946977 0.448505 0.133801 -0.568380
F14   F     F_    0.551497 0.946976 0.133802 -0.569546
F15   F     F_    0.053022 0.551496 0.133801 -0.568485
F16   F     F_    0.448518 0.053036 0.133801 -0.568453
F17   F     F_    0.580277 0.920686 0.294312 -0.526862
F18   F     F_    0.920668 0.419742 0.294312 -0.526027
F19   F     F_    0.419757 0.079349 0.294311 -0.527832
F20   F     F_    0.079333 0.580257 0.294312 -0.526480
F21   F     F_    0.580259 0.079335 0.705688 -0.527119
F22   F     F_    0.920667 0.580259 0.705689 -0.526218
F23   F     F_    0.419741 0.920673 0.705688 -0.527546
F24   F     F_    0.079333 0.419741 0.705688 -0.526294
F25   F     F_    0.080256 0.420664 0.794311 -0.526211
F26   F     F_    0.420674 0.919740 0.794312 -0.527535
F27   F     F_    0.919744 0.579336 0.794312 -0.526280
F28   F     F_    0.579335 0.080259 0.794312 -0.527122
F29   F     F_    0.080255 0.579335 0.205688 -0.526467
F30   F     F_    0.420686 0.080277 0.205688 -0.526842
F31   F     F_    0.919745 0.420666 0.205688 -0.526018
F32   F     F_    0.579349 0.919756 0.205689 -0.527845
F33   F     F_    0.292509 0.074126 0.004617 -0.600751
F34   F     F_    0.026613 0.707361 0.926169 -0.610866
F35   F     F_    0.707353 0.965964 0.929758 -0.612453
F36   F     F_    0.973575 0.292609 0.926149 -0.610827
F37   F     F_    0.292511 0.925875 0.995385 -0.601260
F38   F     F_    0.026591 0.292638 0.073839 -0.610888
F39   F     F_    0.707350 0.034029 0.070248 -0.611548
F40   F     F_    0.973538 0.707391 0.073835 -0.610790
F41   F     F_    0.792637 0.526696 0.426204 -0.610895
F42   F     F_    0.533989 0.207351 0.429727 -0.611546
F43   F     F_    0.207390 0.473385 0.426228 -0.610824
F44   F     F_    0.425868 0.792512 0.504462 -0.601298
F45   F     F_    0.792610 0.473482 0.573813 -0.610850
F46   F     F_    0.574136 0.792508 0.495532 -0.600787
F47   F     F_    0.207363 0.526768 0.573768 -0.610889
F48   F     F_    0.465994 0.207355 0.570256 -0.612427
O49   O     O_3   0.206805 0.074973 0.004480 -0.555759
C169  C     C_3   0.199965 0.090508 0.961421 0.110265
H1    H     H_    0.184613 0.066872 0.939970 0.130298
H2    H     H_    0.229970 0.099954 0.946125 0.187530
C170  C     C_3   0.171594 0.128395 0.964321 -0.355614
H3    H     H_    0.141716 0.119245 0.979907 0.220636
H4    H     H_    0.186500 0.152497 0.985278 0.248788
C171  C     C_3   0.162811 0.146608 0.918697 -0.841923
H5    H     H_    0.192185 0.156591 0.902682 0.270361
H6    H     H_    0.142166 0.174015 0.922088 0.268394
H7    H     H_    0.147139 0.123275 0.897424 0.261053
O50   O     O_3   0.027473 0.793544 0.925601 -0.554345
C172  C     C_3   0.071175 0.791850 0.920824 0.174753
H8    H     H_    0.077974 0.787622 0.885080 0.195232
H9    H     H_    0.086254 0.765347 0.938409 0.144569
C173  C     C_3   0.090526 0.832764 0.936255 -0.437247
H10   H     H_    0.074636 0.859158 0.919707 0.253432
H11   H     H_    0.086370 0.836031 0.972567 0.214199
C174  C     C_3   0.136764 0.834519 0.925524 -0.833828
H12   H     H_    0.153530 0.809279 0.943039 0.260137
H13   H     H_    0.149645 0.864825 0.936318 0.280276
H14   H     H_    0.141797 0.831338 0.889337 0.273056
O51   O     O_3   0.793556 0.964648 0.929512 -0.554093
C175  C     C_3   0.791698 0.920727 0.930351 0.170240
H15   H     H_    0.789546 0.909872 0.895548 0.193222
H16   H     H_    0.763953 0.907969 0.947821 0.150042
C176  C     C_3   0.831353 0.903038 0.950948 -0.425861
H17   H     H_    0.858877 0.916133 0.933727 0.249593
H18   H     H_    0.832937 0.911973 0.986387 0.215599
C177  C     C_3   0.832533 0.855811 0.947519 -0.853375
H19   H     H_    0.806118 0.841991 0.965965 0.264523
H20   H     H_    0.861943 0.844065 0.961930 0.262503
H21   H     H_    0.830982 0.845969 0.912347 0.273237
O52   O     O_3   0.972241 0.206427 0.925779 -0.553990
C178  C     C_3   0.928446 0.207892 0.921907 0.168772
H22   H     H_    0.920873 0.208794 0.886070 0.192176
H23   H     H_    0.914060 0.236137 0.936830 0.151890
C179  C     C_3   0.909070 0.168799 0.942023 -0.428163
H24   H     H_    0.923709 0.140820 0.927217 0.249888
H25   H     H_    0.914791 0.168389 0.978231 0.215046
C180  C     C_3   0.862361 0.167237 0.933923 -0.852883
H26   H     H_    0.846935 0.194279 0.949698 0.264494
H27   H     H_    0.849429 0.138356 0.948435 0.263404
H28   H     H_    0.855684 0.167362 0.897880 0.272961
O53   O     O_3   0.206806 0.925028 0.995528 -0.555621
C181  C     C_3   0.199968 0.909499 0.038590 0.109831
H29   H     H_    0.184624 0.933141 0.060041 0.130167
H30   H     H_    0.229972 0.900047 0.053883 0.187089
C182  C     C_3   0.171587 0.871619 0.035699 -0.355168
H31   H     H_    0.141710 0.880775 0.020114 0.220681
H32   H     H_    0.186485 0.847510 0.014746 0.248591
C183  C     C_3   0.162802 0.853415 0.081328 -0.843153
H33   H     H_    0.192174 0.843421 0.097339 0.269930
H34   H     H_    0.142145 0.826017 0.077944 0.268446
H35   H     H_    0.147143 0.876758 0.102600 0.261097
O54   O     O_3   0.027455 0.206456 0.074406 -0.554358
C184  C     C_3   0.071156 0.208147 0.079194 0.174636
H36   H     H_    0.077947 0.212367 0.114942 0.195062
H37   H     H_    0.086239 0.234655 0.061621 0.144656
C185  C     C_3   0.090511 0.167237 0.063757 -0.437182
H38   H     H_    0.074617 0.140839 0.080294 0.253349
H39   H     H_    0.086363 0.163978 0.027443 0.214242
C186  C     C_3   0.136746 0.165478 0.074500 -0.834148
H40   H     H_    0.153515 0.190723 0.056997 0.260313
H41   H     H_    0.149630 0.135176 0.063699 0.280245
H42   H     H_    0.141771 0.168648 0.110689 0.272838
O55   O     O_3   0.793555 0.035348 0.070494 -0.553900
C187  C     C_3   0.791694 0.079269 0.069661 0.170884
H43   H     H_    0.789612 0.090120 0.104471 0.193656
H44   H     H_    0.763911 0.092024 0.052260 0.150381
C188  C     C_3   0.831305 0.096964 0.048975 -0.426665
H45   H     H_    0.858866 0.083866 0.066125 0.249654
H46   H     H_    0.832815 0.088040 0.013529 0.215602
C189  C     C_3   0.832490 0.144190 0.052417 -0.852366
H47   H     H_    0.806036 0.158015 0.034038 0.264713
H48   H     H_    0.861870 0.155942 0.037942 0.262378
H49   H     H_    0.831011 0.154021 0.087596 0.273443
O56   O     O_3   0.972200 0.793573 0.074204 -0.553960
C190  C     C_3   0.928403 0.792109 0.078050 0.168892
H50   H     H_    0.920812 0.791192 0.113882 0.192357
H51   H     H_    0.914024 0.763870 0.063105 0.151781
C191  C     C_3   0.909039 0.831210 0.057940 -0.428147
H52   H     H_    0.923668 0.859182 0.072772 0.249949
H53   H     H_    0.914783 0.831638 0.021737 0.215010
C192  C     C_3   0.862325 0.832768 0.066008 -0.852710
H54   H     H_    0.846909 0.805733 0.050208 0.264328
H55   H     H_    0.849401 0.861656 0.051502 0.263409
H56   H     H_    0.855625 0.832626 0.102046 0.273159
O57   O     O_3   0.706455 0.527563 0.425640 -0.554348
C193  C     C_3   0.708141 0.571272 0.420926 0.174631
H57   H     H_    0.712361 0.578116 0.385190 0.195054
H58   H     H_    0.734646 0.586331 0.438526 0.144647
C194  C     C_3   0.667227 0.590599 0.436395 -0.437220
H59   H     H_    0.640832 0.574727 0.419829 0.253336
H60   H     H_    0.663967 0.586396 0.472701 0.214248
C195  C     C_3   0.665463 0.636850 0.425732 -0.834063
H61   H     H_    0.690703 0.653597 0.443268 0.260308
H62   H     H_    0.635157 0.649713 0.436550 0.280314
H63   H     H_    0.668637 0.641931 0.389552 0.272830
O58   O     O_3   0.535305 0.293555 0.429477 -0.553891
C196  C     C_3   0.579226 0.291695 0.430272 0.170846
H64   H     H_    0.590052 0.289638 0.395452 0.193657
H65   H     H_    0.591992 0.263899 0.447642 0.150441
C197  C     C_3   0.596937 0.331290 0.450976 -0.426698
H66   H     H_    0.583818 0.358864 0.433865 0.249652
H67   H     H_    0.588044 0.332769 0.486432 0.215584
C198  C     C_3   0.644159 0.332484 0.447484 -0.852344
H68   H     H_    0.658006 0.306009 0.465810 0.264713
H69   H     H_    0.655923 0.361846 0.461989 0.262379
H70   H     H_    0.653957 0.331050 0.412293 0.273437
O59   O     O_3   0.293572 0.472047 0.425861 -0.553966
C199  C     C_3   0.292102 0.428243 0.422108 0.168889
H71   H     H_    0.291176 0.420584 0.386293 0.192362
H72   H     H_    0.263866 0.413893 0.437091 0.151781
C200  C     C_3   0.331207 0.408913 0.442249 -0.428066
H73   H     H_    0.359177 0.423513 0.427382 0.249918
H74   H     H_    0.331641 0.414722 0.478441 0.215019
C201  C     C_3   0.332760 0.362185 0.434275 -0.852733
H75   H     H_    0.305729 0.346798 0.450115 0.264323
H76   H     H_    0.361652 0.349285 0.448796 0.263384
H77   H     H_    0.332607 0.355420 0.398250 0.273153
O60   O     O_3   0.425019 0.706807 0.504312 -0.555699
C202  C     C_3   0.409566 0.699979 0.461217 0.109795
H78   H     H_    0.433237 0.684613 0.439821 0.130199
H79   H     H_    0.400168 0.729989 0.445899 0.187072
C203  C     C_3   0.371655 0.671631 0.464027 -0.355127
H80   H     H_    0.380755 0.641746 0.479632 0.220689
H81   H     H_    0.347519 0.686551 0.484928 0.248583
C204  C     C_3   0.353531 0.662862 0.418359 -0.843113
H82   H     H_    0.343598 0.692243 0.402323 0.269911
H83   H     H_    0.326104 0.642234 0.421684 0.268475
H84   H     H_    0.376898 0.647177 0.397139 0.261080
O61   O     O_3   0.706428 0.472155 0.574186 -0.554011
C205  C     C_3   0.707896 0.428356 0.578005 0.168817
H85   H     H_    0.708849 0.420746 0.613831 0.192203
H86   H     H_    0.736117 0.413981 0.563017 0.151793
C206  C     C_3   0.668772 0.409007 0.557929 -0.428074
H87   H     H_    0.640816 0.423634 0.572799 0.249899
H88   H     H_    0.668309 0.414768 0.521729 0.215038
C207  C     C_3   0.667215 0.362290 0.565975 -0.852928
H89   H     H_    0.694232 0.346877 0.550135 0.264483
H90   H     H_    0.638311 0.349378 0.551499 0.263396
H91   H     H_    0.667395 0.355575 0.602010 0.272971
O62   O     O_3   0.574982 0.706804 0.495671 -0.555823
C208  C     C_3   0.590443 0.699968 0.538761 0.110240
H92   H     H_    0.566771 0.684612 0.560164 0.130315
H93   H     H_    0.599857 0.729975 0.554076 0.187536
C209  C     C_3   0.628341 0.671603 0.535939 -0.355607
H94   H     H_    0.619226 0.641723 0.520335 0.220638
H95   H     H_    0.652478 0.686513 0.515032 0.248772
C210  C     C_3   0.646474 0.662826 0.581602 -0.841863
H96   H     H_    0.656421 0.692202 0.597637 0.270343
H97   H     H_    0.673891 0.642186 0.578268 0.268419
H98   H     H_    0.623106 0.647149 0.602826 0.261034
O63   O     O_3   0.293545 0.527624 0.574335 -0.554361
C211  C     C_3   0.291853 0.571337 0.579006 0.174784
H99   H     H_    0.287576 0.578211 0.614728 0.195256
H100  H     H_    0.265380 0.586386 0.561342 0.144463
C212  C     C_3   0.332794 0.590644 0.563595 -0.437173
H101  H     H_    0.359160 0.574783 0.580225 0.253429
H102  H     H_    0.336113 0.586408 0.527299 0.214187
C213  C     C_3   0.334547 0.636905 0.574215 -0.833779
H103  H     H_    0.309335 0.653639 0.556619 0.260101
H104  H     H_    0.364871 0.649754 0.563437 0.280382
H105  H     H_    0.331318 0.642018 0.610385 0.273058
O64   O     O_3   0.464688 0.293554 0.570508 -0.554122
C214  C     C_3   0.420766 0.291701 0.569687 0.170324
H106  H     H_    0.409928 0.289397 0.604486 0.193312
H107  H     H_    0.407990 0.264040 0.552080 0.149684
C215  C     C_3   0.403078 0.331449 0.549300 -0.425554
H108  H     H_    0.416177 0.358893 0.566663 0.249670
H109  H     H_    0.412013 0.333195 0.513870 0.215548
C216  C     C_3   0.355852 0.332618 0.552737 -0.853492
H110  H     H_    0.342028 0.306286 0.534159 0.264454
H111  H     H_    0.344107 0.362092 0.538474 0.262533
H112  H     H_    0.346011 0.330912 0.587901 0.273268

loop_
_geom_bond_atom_site_label_1
_geom_bond_atom_site_label_2
_ccdc_geom_bond_type
C200  C201  S    
C181  H30   S    
C210  H96   S    
C23   C155  A    
C119  C143  A    
C120  C144  A    
Cu7   O27   S    
C13   C25   A    
C8    C56   S    
C6    O16   A    
C176  H18   S    
C129  F17   S    
C184  H36   S    
C170  C171  S    
C9    C149  A    
Cu11  O41   S    
C85   F5    S    
Cu3   O3    S    
C171  H5    S    
C68   O40   A    
C112  C136  A    
C112  C124  A    
C181  C182  S    
C72   O44   A    
Cu12  O45   S    
C87   F7    S    
C195  H61   S    
C77   C100  S    
C202  H79   S    
C142  F30   S    
C4    O6    A    
C96   F16   S    
C196  C197  S    
C215  C216  S    
C154  O58   S    
C216  H111  S    
C160  C166  A    
C87   C99   A    
C92   C102  A    
C194  C195  S    
C94   C104  A    
C206  H88   S    
C20   C158  A    
C71   O45   A    
C6    C54   S    
C152  O56   S    
C41   C49   T    
C24   C154  A    
C192  H56   S    
C90   F10   S    
C21   F41   S    
Cu9   O33   S    
Cu10  O39   S    
C71   O43   A    
Cu1   O7    S    
C121  C128  A    
C157  O61   S    
C25   C41   S    
C1    O1    A    
C123  C126  A    
C179  H24   S    
C21   C29   A    
C28   C44   S    
C35   C163  S    
Cu8   O32   S    
C24   F42   S    
C23   C31   A    
C180  H28   S    
C33   C161  S    
C65   O33   A    
C77   O25   A    
C146  C162  A    
C15   C27   A    
C190  H50   S    
C11   C27   A    
C177  H19   S    
C14   F36   S    
C107  C131  A    
C211  H99   S    
C74   O20   A    
C60   C65   S    
Cu6   O14   S    
C96   C104  A    
C113  C137  A    
C134  F22   S    
C198  H68   S    
C175  H15   S    
C80   O30   A    
C184  C185  S    
C106  C130  A    
O62   C208  S    
C215  H109  S    
C89   C101  A    
C171  H7    S    
C145  O49   S    
C70   O46   A    
C185  H38   S    
C3    O7    A    
C17   F45   S    
C1    O5    A    
C155  O59   S    
Cu12  O47   S    
C195  H63   S    
C158  O62   S    
C207  H89   S    
Cu8   O28   S    
C173  H11   S    
C5    O9    A    
C204  H82   S    
C155  C167  A    
C8    O12   A    
C212  H102  S    
C159  C167  A    
C69   O41   A    
C189  H47   S    
C84   F4    S    
C12   F38   S    
C214  H107  S    
C15   F35   S    
C201  H75   S    
C58   C67   S    
O53   C181  S    
C78   C99   S    
Cu6   O26   S    
C21   C153  A    
C136  F24   S    
O61   C205  S    
O57   C193  S    
Cu7   O13   S    
C197  H66   S    
C38   C62   T    
C89   C115  A    
C208  H92   S    
C80   C97   S    
Cu9   O35   S    
Cu10  O37   S    
C13   C145  A    
C57   C66   S    
C111  C135  A    
C93   C103  A    
C174  H13   S    
C129  C144  A    
C95   C117  A    
C210  H97   S    
C10   F40   S    
C191  C192  S    
C77   O27   A    
C114  C126  A    
Cu1   O23   S    
C156  C168  A    
C202  H78   S    
C180  H27   S    
C122  C127  A    
C182  H32   S    
C90   C102  A    
C2    C50   S    
C193  H57   S    
C94   C120  A    
C211  C212  S    
C74   O18   A    
C199  H71   S    
C82   C108  A    
C17   C157  A    
C5    O13   A    
C175  C176  S    
C150  O54   S    
C80   O32   A    
C110  C124  A    
C44   C52   T    
C45   C53   T    
O49   C169  S    
Cu2   O2    S    
Cu1   Cu3   S    
C91   C101  A    
C185  C186  S    
C95   C103  A    
C158  C168  A    
C18   F48   S    
Cu5   Cu7   S    
C156  O60   S    
C148  C164  A    
C207  H91   S    
C143  F31   S    
O54   C184  S    
C204  H84   S    
C157  C165  A    
C134  C139  A    
C65   O39   A    
C75   O23   A    
C109  C123  A    
C37   C165  S    
Cu8   O16   S    
C85   C99   A    
C27   C43   S    
C145  C161  A    
C84   C106  A    
O63   C211  S    
C153  O57   S    
C106  C122  A    
C172  H8    S    
C64   C69   S    
C191  H53   S    
C193  C194  S    
C205  H85   S    
C42   C50   T    
C197  C198  S    
C11   C151  A    
C209  H94   S    
C190  H51   S    
C147  O51   S    
C208  C209  S    
C90   C116  A    
C178  H23   S    
C83   C97   A    
C110  C134  A    
C24   C30   A    
C133  F21   S    
C26   C42   S    
Cu1   O17   S    
C203  H80   S    
C20   C32   A    
C132  C141  A    
C200  H74   S    
C92   F12   S    
C153  C165  A    
C30   C46   S    
C135  F23   S    
C183  H33   S    
C34   C162  S    
C170  H4    S    
C150  C164  A    
Cu11  O44   S    
C171  H6    S    
C5    C53   S    
C198  H70   S    
C93   F13   S    
C188  C189  S    
C83   F3    S    
C199  C200  S    
Cu12  O46   S    
C195  H62   S    
C62   C71   S    
Cu4   O20   S    
Cu7   O29   S    
C78   O28   A    
C196  H65   S    
C18   C160  A    
C186  H42   S    
C187  H43   S    
C216  H110  S    
C141  F29   S    
C169  H1    S    
C81   F1    S    
C93   C119  A    
C149  O53   S    
O64   C214  S    
C3    O3    A    
C194  H60   S    
C119  C127  A    
C61   C70   S    
C81   C107  A    
C206  H87   S    
C202  C203  S    
C20   F46   S    
C82   C98   A    
O55   C187  S    
C19   C31   A    
C75   O21   A    
C9    C25   A    
C79   O31   A    
C192  H55   S    
C23   F43   S    
C86   F6    S    
C12   C28   A    
Cu10  O40   S    
C179  H25   S    
C172  C173  S    
C35   C59   T    
Cu4   O24   S    
C213  H103  S    
C10   C152  A    
C67   O35   A    
C209  C210  S    
C169  C170  S    
C177  H20   S    
C8    O14   A    
C86   C100  A    
C88   C110  A    
C179  C180  S    
C211  H100  S    
C181  H29   S    
C82   F2    S    
C47   C55   T    
C31   C47   S    
C32   C48   S    
C7    O11   A    
Cu5   O31   S    
C183  H35   S    
C175  H16   S    
C176  C177  S    
C184  H37   S    
C16   C26   A    
C177  H21   S    
Cu11  O42   S    
C111  C123  A    
C89   F9    S    
C67   O37   A    
C185  H39   S    
C108  C122  A    
C174  H12   S    
C3    C51   S    
C136  C137  A    
C189  H49   S    
C118  C142  A    
C109  C133  A    
Cu12  O48   S    
C213  H105  S    
C207  H90   S    
C66   O34   A    
C117  C141  A    
O51   C175  S    
C78   O26   A    
C12   C150  A    
C213  H104  S    
C186  H40   S    
C187  C188  S    
C216  H112  S    
Cu2   O6    S    
C201  H76   S    
C189  H48   S    
C117  C127  A    
Cu1   O1    S    
C88   C100  A    
C22   C32   A    
Cu6   O10   S    
C206  C207  S    
C149  C161  A    
C107  C121  A    
C7    O15   A    
C188  H45   S    
C197  H67   S    
C22   F44   S    
C79   O29   A    
O52   C178  S    
Cu9   O34   S    
Cu10  O38   S    
C132  F20   S    
C85   C111  A    
C201  H77   S    
C115  C125  A    
C120  C128  A    
C87   C109  A    
C19   C159  A    
C66   O38   A    
C15   C147  A    
C43   C51   T    
C9    F37   S    
C70   O42   A    
C182  H31   S    
C68   O36   A    
Cu6   Cu8   S    
C146  O50   S    
Cu11  Cu12  S    
C83   C105  A    
C63   C72   S    
C133  C140  A    
C199  H72   S    
Cu9   Cu10  S    
C72   O48   A    
C29   C45   S    
C36   C164  S    
C11   F39   S    
C154  C166  A    
Cu5   O25   S    
Cu2   Cu4   S    
C138  F26   S    
C1    C49   S    
C159  O63   S    
C152  C162  A    
C135  C138  A    
C178  H22   S    
C215  H108  S    
C79   C98   S    
C139  F27   S    
C209  H95   S    
C130  F18   S    
C200  H73   S    
C22   C156  A    
C81   C97   A    
C4    C52   S    
C96   C118  A    
C173  H10   S    
C204  H83   S    
Cu7   O11   S    
C17   C29   A    
C76   O22   A    
Cu8   O12   S    
C113  C125  A    
C14   C148  A    
C16   C146  A    
C2    O2    A    
C214  C215  S    
Cu3   O19   S    
C73   C104  S    
C19   F47   S    
C176  H17   S    
C73   O17   A    
Cu5   O15   S    
C75   C102  S    
C140  F28   S    
C205  H86   S    
C212  C213  S    
C16   F34   S    
C10   C26   A    
C114  C138  A    
C208  H93   S    
C116  C126  A    
Cu9   O36   S    
C46   C54   T    
C180  H26   S    
C118  C128  A    
C69   O47   A    
C174  H14   S    
C203  H81   S    
C38   C166  S    
C88   F8    S    
C210  H98   S    
C108  C132  A    
C205  C206  S    
C183  H34   S    
C105  C129  A    
C170  H3    S    
C91   C113  A    
Cu11  O43   S    
Cu3   O21   S    
C182  C183  S    
C86   C112  A    
C198  H69   S    
Cu3   O5    S    
C59   C68   S    
C188  H46   S    
C203  C204  S    
Cu4   O4    S    
Cu2   O22   S    
C6    O10   A    
C105  C121  A    
C151  O55   S    
C4    O4    A    
C34   C58   T    
C130  C143  A    
C196  H64   S    
C131  C142  A    
C131  F19   S    
C18   C30   A    
C7    C55   S    
C186  H41   S    
C2    O8    A    
C187  H44   S    
O56   C190  S    
C151  C163  A    
C169  H2    S    
Cu2   O18   S    
O58   C196  S    
C148  O52   S    
C194  H59   S    
C76   C101  S    
C48   C56   T    
C33   C57   T    
Cu6   O30   S    
C173  C174  S    
C115  C139  A    
C36   C60   T    
C37   C61   T    
C76   O24   A    
C39   C63   T    
C192  H54   S    
C40   C64   T    
C84   C98   A    
O50   C172  S    
C94   F14   S    
C214  H106  S    
C13   F33   S    
Cu4   O8    S    
C73   O19   A    
Cu5   O9    S    
C172  H9    S    
C147  C163  A    
C39   C167  S    
C191  H52   S    
C144  F32   S    
C193  H58   S    
C40   C168  S    
C160  O64   S    
C212  H101  S    
C190  C191  S    
C178  C179  S    
C91   F11   S    
O60   C202  S    
C124  C125  A    
C14   C28   A    
C92   C114  A    
C137  F25   S    
O59   C199  S    
C95   F15   S    
C74   C103  S    
C116  C140  A    
