data_mof_unit_54968.cif
_audit_creation_date              2012-10-26T18:50:43-0400
_audit_creation_method            fapswitch 2.2
_symmetry_space_group_name_H-M    P1
_symmetry_Int_Tables_number       1
_space_group_crystal_system       triclinic
_cell_length_a                    12.421544
_cell_length_b                    13.215995
_cell_length_c                    17.232096
_cell_angle_alpha                 106.85325
_cell_angle_beta                  74.749592
_cell_angle_gamma                 116.999975
_cell_volume                      2383.47075629

loop_
_atom_site_label
_atom_site_type_symbol
_atom_type_description
_atom_site_fract_x
_atom_site_fract_y
_atom_site_fract_z
_atom_type_partial_charge
C1    C     C_R   0.143934 0.713826 0.508578 0.599225
C2    C     C_R   0.028884 0.511373 0.263753 -0.024098
C3    C     C_R   0.726117 0.966915 0.403939 -0.131590
C4    C     C_R   0.985823 0.501226 0.652302 0.557010
C5    C     C_R   0.773397 0.161552 0.483565 -0.004276
C6    C     C_R   0.184930 0.909890 0.589870 -0.219501
C7    C     C_R   0.268997 0.003816 0.636316 0.284947
C8    C     C_R   0.393203 0.026276 0.614364 0.356207
C9    C     C_R   0.437116 0.973918 0.535077 -0.039194
C10   C     C_R   0.350752 0.875740 0.490398 -0.027119
C11   C     C_R   0.563260 0.012984 0.499615 0.027988
C12   C     C_R   0.889656 0.522374 0.801291 0.253695
C13   C     C_R   0.601936 0.937692 0.433568 -0.086558
C14   C     C_R   0.516132 0.838947 0.392572 -0.102049
C15   C     C_R   0.392438 0.815323 0.414935 0.304293
C16   C     C_R   0.855749 0.285849 0.490816 0.549015
C17   C     C_R   0.649431 0.127923 0.521732 0.182960
C18   C     C_R   0.812997 0.076984 0.430916 0.235634
C19   C     C_R   0.225203 0.837753 0.523795 -0.055107
C20   C     C_R   0.617460 0.626167 0.654098 -0.156432
C21   C     C_R   0.250120 0.354293 0.384899 0.345028
C22   C     C_R   0.345409 0.317728 0.360740 -0.146703
C23   C     C_R   0.977470 0.578094 0.167836 -0.166587
C24   C     C_R   0.444395 0.367797 0.403856 0.239986
C25   C     C_R   0.446938 0.455716 0.475064 -0.046763
C26   C     C_R   0.344607 0.488502 0.500936 0.098160
C27   C     C_R   0.545868 0.511146 0.523123 0.014335
C28   C     C_R   0.014287 0.498999 0.347970 0.566960
C29   C     C_R   0.527157 0.573180 0.603416 -0.014162
C30   C     C_R   0.421951 0.590398 0.631832 -0.162500
C31   C     C_R   0.344974 0.570727 0.577647 0.295429
C32   C     C_R   0.663556 0.509829 0.496256 0.100331
C33   C     C_R   0.729360 0.620924 0.624246 0.049990
C34   C     C_R   0.962077 0.561618 0.246331 -0.163639
C35   C     C_R   0.976043 0.494534 0.737802 -0.019477
C36   C     C_R   0.053410 0.455238 0.755347 -0.178491
C37   C     C_R   0.051038 0.449454 0.835637 0.293735
C38   C     C_R   0.967059 0.480563 0.898443 0.021172
C39   C     C_R   0.887532 0.516826 0.881552 -0.167587
C40   C     C_3   0.322809 0.495606 0.078603 -0.115576
C41   C     C_3   0.987757 0.063145 0.431836 -0.093829
C42   C     C_3   0.295976 0.790906 0.312122 -0.138663
C43   C     C_3   0.587784 0.321472 0.303636 -0.127592
C44   C     C_3   0.310341 0.736366 0.656854 -0.116168
C45   C     C_R   0.112902 0.479165 0.201539 -0.115352
C46   C     C_3   0.236455 0.726022 0.028167 -0.137711
C47   C     C_3   0.692977 0.477173 0.792336 -0.095474
C48   C     C_3   0.245176 0.455148 0.817696 -0.053558
C49   C     C_R   0.130863 0.497641 0.121723 0.282362
C50   C     C_R   0.059593 0.544575 0.105460 0.079672
C51   C     C_2   0.964804 0.479804 0.983974 0.284900
C52   C     C_2   0.063669 0.551973 0.020935 0.378362
Cu1   Cu    Cu3+1 0.900140 0.524980 0.518800 0.971545
Cu2   Cu    Cu3+1 0.099860 0.475020 0.481200 1.099794
H1    H     H_    0.114836 0.427255 0.706286 0.141724
H2    H     H_    0.340062 0.246198 0.309353 0.088352
H3    H     H_    0.162571 0.438543 0.214965 0.148625
H4    H     H_    0.825115 0.542879 0.931211 0.126084
H5    H     H_    0.923609 0.615184 0.155041 0.122783
H6    H     H_    0.356773 0.585049 0.116268 0.093822
H7    H     H_    0.389815 0.495463 0.021493 0.142751
H8    H     H_    0.320051 0.432682 0.110833 0.121885
H9    H     H_    0.085738 0.090160 0.404659 0.146117
H10   H     H_    0.944818 0.966762 0.420287 0.095304
H11   H     H_    0.983335 0.099480 0.498982 0.116795
H12   H     H_    0.545422 0.786073 0.337938 0.120092
H13   H     H_    0.667183 0.258088 0.611577 0.328082
H14   H     H_    0.532293 0.062152 0.664099 0.300105
H15   H     H_    0.141249 0.039074 0.716315 0.315342
H16   H     H_    0.384264 0.843992 0.278058 0.112896
H17   H     H_    0.246637 0.845767 0.349197 0.118083
H18   H     H_    0.239077 0.725591 0.265764 0.130902
H19   H     H_    0.166834 0.245150 0.293782 0.301628
H20   H     H_    0.616868 0.407417 0.288211 0.100989
H21   H     H_    0.530977 0.250842 0.258987 0.125445
H22   H     H_    0.671982 0.308246 0.297319 0.160078
H23   H     H_    0.755653 0.906913 0.355690 0.124708
H24   H     H_    0.409182 0.791574 0.641213 0.106899
H25   H     H_    0.286671 0.719768 0.720088 0.115523
H26   H     H_    0.258281 0.785379 0.656799 0.140962
H27   H     H_    0.285495 0.707522 0.064015 0.126297
H28   H     H_    0.177986 0.769721 0.069622 0.098917
H29   H     H_    0.306546 0.787161 0.989196 0.144114
H30   H     H_    0.687155 0.393441 0.750607 0.136952
H31   H     H_    0.634363 0.506052 0.773505 0.142782
H32   H     H_    0.655372 0.464625 0.856604 0.108263
H33   H     H_    0.799743 0.359685 0.989200 0.320587
H34   H     H_    0.088099 0.883378 0.612982 0.123680
H35   H     H_    0.278212 0.549640 0.820291 0.123505
H36   H     H_    0.258967 0.408669 0.753467 0.116348
H37   H     H_    0.302509 0.445366 0.852283 0.170782
H38   H     H_    0.799214 0.660283 0.663205 0.165125
H39   H     H_    0.897709 0.588569 0.293361 0.134812
H40   H     H_    0.409543 0.634633 0.694796 0.090336
H41   H     H_    0.602502 0.673556 0.715912 0.093958
H42   H     H_    0.690257 0.469510 0.435359 0.173809
N1    N     N_R   0.749710 0.562810 0.547300 -0.258540
N2    N     N_R   0.249640 0.437820 0.453210 -0.203385
O1    O     O_R   0.025490 0.682370 0.523640 -0.528934
O2    O     O_3   0.933649 0.106592 0.394480 -0.520218
O3    O     O_3   0.608705 0.209738 0.572141 -0.624778
O4    O     O_3   0.464744 0.087421 0.675664 -0.629248
O5    O     O_3   0.231243 0.065774 0.709080 -0.632526
O6    O     O_3   0.313502 0.733045 0.361698 -0.556517
O7    O     O_3   0.152887 0.303126 0.342023 -0.619378
O8    O     O_3   0.526028 0.316273 0.384975 -0.560735
O9    O     O_3   0.271520 0.631014 0.598877 -0.516303
O10   O     O_3   0.167995 0.624105 0.976608 -0.572452
O11   O     O_3   0.813812 0.563033 0.786175 -0.559761
O12   O     O_R   0.194150 0.640180 0.491890 -0.398038
O13   O     O_3   0.860924 0.407238 0.026893 -0.733461
O14   O     O_3   0.121694 0.405050 0.854058 -0.513668
O15   O     O_R   0.905900 0.523560 0.631310 -0.479569
O16   O     O_R   0.074570 0.481370 0.599560 -0.479371
O17   O     O_R   0.805850 0.359820 0.508110 -0.478542
O18   O     O_R   0.974510 0.317630 0.476360 -0.428110
O19   O     O_R   0.925430 0.518630 0.400440 -0.537183
O20   O     O_R   0.094100 0.476440 0.368690 -0.428002
O21   O     O_3   0.207365 0.460948 0.056833 -0.524501

loop_
_geom_bond_atom_site_label_1
_geom_bond_atom_site_label_2
_ccdc_geom_bond_type
C40   H6    S    
C27   C29   A    
C2    C28   S    
C35   C36   A    
C34   H39   S    
C1    O1    A    
C6    H34   S    
C7    C8    A    
C49   O21   S    
Cu1   Cu2   S    
Cu1   O1    S    
C23   H5    S    
C6    C19   A    
C45   H3    S    
C29   C30   A    
C47   H31   S    
C4    O16   A    
C36   C37   A    
H14   O4    S    
C10   C15   A    
C38   C39   A    
Cu1   O19   S    
H33   O13   S    
C42   H16   S    
C40   H8    S    
C32   N1    A    
Cu2   O12   S    
C3    C18   A    
C17   O3    S    
C37   O14   S    
C46   H28   S    
C8    C9    A    
C5    C16   S    
C48   H37   S    
C46   O10   S    
C50   C52   S    
C15   O6    S    
C9    C10   A    
C3    C13   A    
C2    C34   A    
C43   H20   S    
C4    C35   S    
C26   C31   A    
C7    O5    S    
C13   C14   A    
C18   O2    S    
C16   O18   A    
C12   O11   S    
Cu1   O15   S    
C20   C29   A    
H15   O5    S    
C2    C45   A    
C43   H21   S    
C1    C19   S    
C51   C52   D    
C47   H32   S    
C4    O15   A    
C44   H26   S    
C24   C25   A    
C33   H38   S    
C23   C50   A    
C22   H2    S    
C38   C51   S    
Cu1   N1    S    
C25   C26   A    
C47   O11   S    
C39   H4    S    
C40   H7    S    
Cu2   O18   S    
C43   O8    S    
C37   C38   A    
C1    O12   A    
C46   H27   S    
H19   O7    S    
C45   C49   A    
C10   C19   A    
C23   C34   A    
C42   H18   S    
C14   H12   S    
C41   O2    S    
C47   H30   S    
C12   C35   A    
C9    C11   A    
C26   N2    A    
C20   C33   A    
C32   H42   S    
C20   H41   S    
C48   H35   S    
Cu2   O20   S    
C22   C24   A    
C24   O8    S    
C41   H9    S    
C3    H23   S    
C16   O17   A    
H13   O3    S    
C44   O9    S    
C43   H22   S    
C11   C17   A    
C51   O13   S    
C48   O14   S    
C27   C32   A    
C31   O9    S    
C44   H25   S    
C42   O6    S    
C41   H11   S    
C6    C7    A    
C5    C18   A    
C25   C27   A    
C28   O19   A    
C12   C39   A    
C44   H24   S    
C30   H40   S    
C36   H1    S    
C28   O20   A    
C21   N2    A    
C11   C13   A    
C30   C31   A    
Cu2   O16   S    
C42   H17   S    
C33   N1    A    
C46   H29   S    
C40   O21   S    
C5    C17   A    
C52   O10   S    
C49   C50   A    
C14   C15   A    
Cu2   N2    S    
C48   H36   S    
C41   H10   S    
C21   C22   A    
C8    O4    S    
C21   O7    S    
Cu1   O17   S    
