data_mof_unit_25897.cif
_audit_creation_date              2012-10-26T18:59:56-0400
_audit_creation_method            fapswitch 2.2
_symmetry_space_group_name_H-M    P1
_symmetry_Int_Tables_number       1
_space_group_crystal_system       triclinic
_cell_length_a                    9.537486
_cell_length_b                    10.826611
_cell_length_c                    17.115632
_cell_angle_alpha                 89.466541
_cell_angle_beta                  93.791484
_cell_angle_gamma                 89.870144
_cell_volume                      1763.38512022

loop_
_atom_site_label
_atom_site_type_symbol
_atom_type_description
_atom_site_fract_x
_atom_site_fract_y
_atom_site_fract_z
_atom_type_partial_charge
C1    C     C_R   0.499987 0.262363 0.498823 0.549975
C2    C     C_R   0.499509 0.129428 0.491756 0.009107
C3    C     C_R   0.372681 0.065176 0.477524 -0.159395
C4    C     C_R   0.517310 0.498410 0.650882 0.550763
C5    C     C_R   0.372640 0.936481 0.477922 -0.159210
C6    C     C_R   0.499336 0.871094 0.492309 0.007924
C7    C     C_R   0.625699 0.936310 0.496374 0.016681
C8    C     C_3   0.746698 0.929383 0.556422 -0.267842
C9    C     C_3   0.746807 0.069562 0.555848 -0.268682
C10   C     C_R   0.065755 0.537684 0.435126 0.159095
C11   C     C_R   0.081723 0.450107 0.560677 -0.015971
C12   C     C_R   0.657747 0.497421 0.779065 -0.156696
C13   C     C_R   0.932863 0.450118 0.560689 -0.017826
C14   C     C_R   0.918410 0.537369 0.435054 0.159085
C15   C     C_3   0.906760 0.660650 0.395749 -0.275929
C16   C     C_R   0.499804 0.737761 0.499029 0.550315
C17   C     C_3   0.066060 0.661529 0.396350 -0.278293
C18   C     C_R   0.482695 0.501615 0.349118 0.551420
C19   C     C_R   0.526532 0.497933 0.736748 0.007015
C20   C     C_R   0.403263 0.498373 0.777154 -0.159836
C21   C     C_R   0.410807 0.498674 0.858482 -0.089617
C22   C     C_R   0.542648 0.498540 0.901054 0.227521
C23   C     C_R   0.589252 0.500900 0.141542 -0.089379
C24   C     C_R   0.665297 0.497684 0.860633 -0.111879
C25   C     C_R   0.596768 0.500806 0.222868 -0.159764
C26   C     C_R   0.457428 0.502368 0.098952 0.227864
C27   C     C_R   0.473496 0.502262 0.263257 0.008043
C28   C     C_R   0.342303 0.503964 0.220924 -0.154198
C29   C     C_R   0.334774 0.504066 0.139358 -0.111115
C30   C     C_R   0.625708 0.063538 0.496080 0.026332
Cu1   Cu    Cu3+1 0.640670 0.499980 0.500000 0.936272
Cu2   Cu    Cu3+1 0.359330 0.500020 0.500000 0.935239
H1    H     H_    0.699388 0.499232 0.253992 0.124913
H2    H     H_    0.105711 0.657612 0.336810 0.122554
H3    H     H_    0.686626 0.499626 0.112441 0.133306
H4    H     H_    0.114716 0.733494 0.434950 0.141599
H5    H     H_    0.767174 0.497427 0.892610 0.114109
H6    H     H_    0.754469 0.496973 0.749284 0.121746
H7    H     H_    0.245582 0.504989 0.250681 0.124618
H8    H     H_    0.300613 0.498670 0.746031 0.122354
H9    H     H_    0.883375 0.411267 0.610321 0.111464
H10   H     H_    0.313439 0.499082 0.887600 0.133009
H11   H     H_    0.232907 0.505227 0.107370 0.114313
H12   H     H_    0.273204 0.889018 0.470484 0.124220
H13   H     H_    0.273215 0.113664 0.469633 0.136952
H14   H     H_    0.717323 0.888397 0.612869 0.142073
H15   H     H_    0.842288 0.889231 0.532793 0.131554
H16   H     H_    0.717710 0.110254 0.611996 0.134878
H17   H     H_    0.841877 0.109882 0.531418 0.139668
H18   H     H_    0.143139 0.411226 0.610310 0.113978
H19   H     H_    0.854678 0.655184 0.335860 0.122581
H20   H     H_    0.863946 0.732703 0.433358 0.150837
N1    N     N_2   0.556895 0.499173 0.984030 -0.252916
N2    N     N_2   0.443192 0.501906 0.015975 -0.252904
N3    N     N_R   0.147870 0.500930 0.499500 -0.230629
N4    N     N_R   0.851960 0.500890 0.499500 -0.230997
O1    O     O_R   0.618810 0.319640 0.500000 -0.497060
O2    O     O_R   0.381230 0.319680 0.499990 -0.506618
O3    O     O_R   0.631790 0.498830 0.613930 -0.513275
O4    O     O_R   0.394210 0.498870 0.613920 -0.510240
O5    O     O_R   0.618770 0.680320 0.500010 -0.500199
O6    O     O_R   0.381190 0.680360 0.500000 -0.505793
O7    O     O_R   0.605790 0.501130 0.386080 -0.503438
O8    O     O_R   0.368210 0.501170 0.386070 -0.503677

loop_
_geom_bond_atom_site_label_1
_geom_bond_atom_site_label_2
_ccdc_geom_bond_type
C14   N4    A    
N1    N2    D    
C6    C7    A    
C17   H4    S    
C15   H19   S    
Cu1   N4    S    
C25   C27   A    
C4    O3    A    
Cu1   O5    S    
Cu2   N3    S    
Cu1   Cu2   S    
C28   H7    S    
Cu2   O2    S    
C2    C30   A    
C13   N4    A    
C4    O4    A    
C13   H9    S    
C2    C3    A    
C8    H15   S    
Cu2   O6    S    
C7    C8    S    
C11   H18   S    
C21   C22   A    
C29   H11   S    
C10   N3    A    
C11   C13   A    
C18   O8    A    
C16   O6    A    
C9    C30   S    
C9    H16   S    
C26   N2    S    
C12   C19   A    
C28   C29   A    
C5    H12   S    
C24   H5    S    
C22   N1    S    
C23   H3    S    
C23   C25   A    
C12   H6    S    
C5    C6    A    
C20   H8    S    
C22   C24   A    
C18   O7    A    
C16   O5    A    
Cu2   O4    S    
C10   C17   S    
C6    C16   S    
C21   H10   S    
Cu1   O7    S    
C11   N3    A    
C9    H17   S    
C20   C21   A    
Cu2   O8    S    
C26   C29   A    
C15   C17   S    
C1    C2    S    
C17   H2    S    
C23   C26   A    
Cu1   O3    S    
C27   C28   A    
C7    C30   A    
C12   C24   A    
C14   C15   S    
C18   C27   S    
C8    H14   S    
C15   H20   S    
C1    O2    A    
C4    C19   S    
C3    H13   S    
Cu1   O1    S    
C19   C20   A    
C25   H1    S    
C8    C9    S    
C3    C5    A    
C10   C14   A    
C1    O1    A    
