data_mof_unit_18898.cif
_audit_creation_date              2012-12-10T18:23:59-0500
_audit_creation_method            fapswitch 2.2
_symmetry_space_group_name_H-M    P1
_symmetry_Int_Tables_number       1
_space_group_crystal_system       triclinic
_cell_length_a                    15.737379
_cell_length_b                    14.941929
_cell_length_c                    14.188364
_cell_angle_alpha                 88.41409
_cell_angle_beta                  92.604331
_cell_angle_gamma                 88.377598
_cell_volume                      3330.16471886

loop_
_atom_site_label
_atom_site_type_symbol
_atom_type_description
_atom_site_fract_x
_atom_site_fract_y
_atom_site_fract_z
_atom_type_partial_charge
C1    C     C_R   0.500203 0.327495 0.501085 0.870863
C2    C     C_R   0.502868 0.046710 0.505049 -0.031028
C3    C     C_R   0.427158 0.907008 0.523212 0.089120
C4    C     C_R   0.579090 0.092640 0.488312 0.095117
C5    C     C_R   0.652721 0.950186 0.468961 -0.279284
C6    C     C_R   0.352950 0.048003 0.542097 -0.264052
C7    C     C_R   0.653078 0.043248 0.463087 0.116039
C8    C     C_R   0.355002 0.955315 0.553180 0.123016
C9    C     C_R   0.444878 0.556133 0.793152 0.182549
C10   C     C_R   0.555148 0.443930 0.206826 0.180943
C11   C     C_R   0.557529 0.445182 0.803841 0.124337
C12   C     C_R   0.499615 0.672549 0.498935 0.871605
C13   C     C_R   0.442357 0.554703 0.196177 0.125246
C14   C     C_R   0.556433 0.442379 0.904588 0.010795
C15   C     C_R   0.443350 0.557441 0.095423 0.010598
C16   C     C_R   0.338046 0.500740 0.497995 0.879832
C17   C     C_R   0.661984 0.498619 0.502049 0.878785
C18   C     C_R   0.500077 0.499949 0.949456 0.056746
C19   C     C_R   0.499781 0.499958 0.050543 0.056611
C20   C     C_R   0.444305 0.557752 0.893635 -0.027829
C21   C     C_R   0.555599 0.442198 0.106355 -0.026804
C22   C     C_R   0.610350 0.383624 0.962018 -0.204093
C23   C     C_R   0.502432 0.767819 0.497820 -0.116143
C24   C     C_R   0.389265 0.616024 0.037996 -0.203182
C25   C     C_R   0.610260 0.384015 0.060263 -0.218871
C26   C     C_R   0.389494 0.615772 0.939741 -0.218221
C27   C     C_3   0.974226 0.411481 0.501525 0.082002
C28   C     C_3   0.026183 0.582567 0.500206 0.081365
C29   C     C_3   0.020977 0.458076 0.421821 0.077026
C30   C     C_3   0.979444 0.535986 0.579864 0.077535
C31   C     C_1   0.249182 0.499291 0.493561 -0.201249
C32   C     C_1   0.750969 0.497832 0.506776 -0.201301
C33   C     C_3   0.036664 0.450964 0.576443 0.045926
C34   C     C_R   0.499522 0.232085 0.503107 -0.121249
C35   C     C_3   0.963824 0.543135 0.425258 0.045644
C36   C     C_3   0.083192 0.496915 0.495303 0.029746
C37   C     C_3   0.917190 0.497157 0.506354 0.029894
C38   C     C_1   0.173970 0.497802 0.491885 -0.064942
C39   C     C_1   0.826288 0.497461 0.509109 -0.064265
C40   C     C_R   0.425456 0.815594 0.504953 -0.015533
C41   C     C_R   0.577665 0.185964 0.497404 -0.011549
C42   C     C_3   0.935878 0.318340 0.498528 -0.404818
C43   C     C_3   0.003603 0.243554 0.491038 -0.327087
C44   C     C_3   0.964482 0.151416 0.496122 -0.917467
C45   C     C_R   0.581114 0.809995 0.497471 0.025104
C46   C     C_3   0.064916 0.675521 0.503530 -0.403002
C47   C     C_3   0.997631 0.750551 0.511850 -0.332185
C48   C     C_3   0.037706 0.842248 0.508412 -0.911116
C49   C     C_3   0.912906 0.590146 0.342398 -0.405526
C50   C     C_3   0.969620 0.632439 0.269631 -0.360935
C51   C     C_3   0.916260 0.683239 0.192042 -0.880096
C52   C     C_3   0.087826 0.404237 0.659292 -0.406424
C53   C     C_3   0.031330 0.361755 0.732169 -0.359841
C54   C     C_3   0.084879 0.310214 0.809073 -0.880416
C55   C     C_3   0.664836 0.755037 0.506618 -0.402754
C56   C     C_R   0.422028 0.188400 0.507780 0.025041
C57   C     C_3   0.711643 0.771006 0.601848 -0.348392
C58   C     C_3   0.783667 0.702053 0.622619 -0.867957
C59   C     C_3   0.337238 0.241625 0.498560 -0.403694
C60   C     C_3   0.289793 0.222952 0.404389 -0.349390
C61   C     C_3   0.217145 0.290988 0.382543 -0.866912
C62   C     C_3   0.730290 0.084567 0.419573 -0.387047
C63   C     C_3   0.706173 0.128034 0.322142 -0.317796
C64   C     C_3   0.779276 0.180714 0.283704 -0.924755
C65   C     C_3   0.282345 0.912755 0.604306 -0.405008
C66   C     C_3   0.272050 0.951585 0.702668 -0.363632
C67   C     C_R   0.579893 0.904106 0.491901 0.082931
C68   C     C_3   0.204795 0.902481 0.756661 -0.902109
C69   C     C_3   0.624244 0.388216 0.757368 -0.372856
C70   C     C_3   0.713559 0.426867 0.769512 -0.345258
C71   C     C_3   0.780162 0.365915 0.726900 -0.921428
C72   C     C_3   0.375635 0.611569 0.242736 -0.375150
C73   C     C_3   0.286490 0.572427 0.231392 -0.343671
C74   C     C_3   0.220217 0.632306 0.276038 -0.920468
C75   C     C_R   0.425173 0.094613 0.517405 0.075870
C76   C     C_R   0.503365 0.952639 0.506856 -0.025530
H1    H     H_    0.654074 0.336108 0.932852 0.151294
H2    H     H_    0.912668 0.537362 0.699465 0.184959
H3    H     H_    0.931962 0.141957 0.563402 0.263163
H4    H     H_    0.918062 0.143916 0.435891 0.268560
H5    H     H_    0.015310 0.098684 0.492563 0.253652
H6    H     H_    0.034688 0.250911 0.422740 0.242535
H7    H     H_    0.052654 0.247225 0.549264 0.223583
H8    H     H_    0.899478 0.307343 0.562805 0.198022
H9    H     H_    0.890334 0.316984 0.436520 0.197163
H10   H     H_    0.085595 0.847409 0.567699 0.263914
H11   H     H_    0.068872 0.853029 0.440486 0.264573
H12   H     H_    0.345348 0.663335 0.067161 0.150985
H13   H     H_    0.987702 0.895401 0.514819 0.251419
H14   H     H_    0.948646 0.747982 0.453388 0.222967
H15   H     H_    0.966377 0.742590 0.579975 0.242615
H16   H     H_    0.110863 0.676498 0.565338 0.200263
H17   H     H_    0.100992 0.686724 0.439054 0.199072
H18   H     H_    0.872576 0.637205 0.155112 0.262198
H19   H     H_    0.878406 0.738339 0.222469 0.259429
H20   H     H_    0.958799 0.712599 0.139833 0.249340
H21   H     H_    0.013215 0.679928 0.303986 0.232411
H22   H     H_    0.007938 0.579451 0.236629 0.215496
H23   H     H_    0.653717 0.337843 0.099470 0.135563
H24   H     H_    0.872226 0.540061 0.307380 0.201688
H25   H     H_    0.870171 0.642337 0.370676 0.199207
H26   H     H_    0.122178 0.255052 0.778004 0.259147
H27   H     H_    0.129088 0.355752 0.845953 0.262004
H28   H     H_    0.042512 0.280851 0.861459 0.249548
H29   H     H_    0.993487 0.414735 0.765796 0.214910
H30   H     H_    0.987270 0.314732 0.697802 0.232906
H31   H     H_    0.130819 0.352278 0.631037 0.198813
H32   H     H_    0.128313 0.454525 0.694241 0.201034
H33   H     H_    0.340353 0.718104 0.529656 0.177234
H34   H     H_    0.345992 0.661890 0.900528 0.135897
H35   H     H_    0.346781 0.750370 0.414764 0.185809
H36   H     H_    0.655996 0.283120 0.451827 0.197826
H37   H     H_    0.657770 0.265513 0.570784 0.176600
H38   H     H_    0.757162 0.635929 0.640090 0.269764
H39   H     H_    0.823585 0.695829 0.560522 0.266413
H40   H     H_    0.823911 0.722830 0.684029 0.252492
H41   H     H_    0.738622 0.838850 0.601696 0.221933
H42   H     H_    0.666425 0.766618 0.659710 0.233457
H43   H     H_    0.654615 0.682436 0.501913 0.207725
H44   H     H_    0.705841 0.770245 0.447012 0.178747
H45   H     H_    0.709581 0.913919 0.450629 0.147503
H46   H     H_    0.177538 0.298200 0.444769 0.265628
H47   H     H_    0.243019 0.357029 0.363338 0.269667
H48   H     H_    0.176751 0.268622 0.321974 0.252345
H49   H     H_    0.334448 0.226274 0.345912 0.232656
H50   H     H_    0.263385 0.154863 0.406726 0.221825
H51   H     H_    0.297188 0.226888 0.559121 0.177430
H52   H     H_    0.346031 0.314626 0.501512 0.207421
H53   H     H_    0.795252 0.236279 0.331080 0.262354
H54   H     H_    0.836275 0.136143 0.277288 0.265260
H55   H     H_    0.760033 0.209792 0.212800 0.244810
H56   H     H_    0.294747 0.083147 0.557793 0.150451
H57   H     H_    0.689167 0.074799 0.272021 0.216277
H58   H     H_    0.649899 0.174008 0.325425 0.227205
H59   H     H_    0.762036 0.131236 0.468020 0.227126
H60   H     H_    0.780712 0.032629 0.408855 0.177072
H61   H     H_    0.141874 0.909842 0.718136 0.263378
H62   H     H_    0.222665 0.830208 0.766086 0.255227
H63   H     H_    0.199551 0.931518 0.827432 0.253336
H64   H     H_    0.333789 0.945210 0.743995 0.229386
H65   H     H_    0.252604 0.023600 0.696755 0.220572
H66   H     H_    0.222342 0.923597 0.560660 0.203063
H67   H     H_    0.992674 0.408356 0.292606 0.182349
H68   H     H_    0.293440 0.840119 0.617195 0.228906
H69   H     H_    0.325963 0.600069 0.750167 0.157776
H70   H     H_    0.400921 0.680212 0.750294 0.164146
H71   H     H_    0.674071 0.399832 0.249646 0.163746
H72   H     H_    0.598915 0.319952 0.249531 0.161987
H73   H     H_    0.783312 0.299357 0.763930 0.261731
H74   H     H_    0.764694 0.357060 0.650749 0.263258
H75   H     H_    0.843338 0.396355 0.734474 0.243730
H76   H     H_    0.714273 0.494188 0.734459 0.241906
H77   H     H_    0.731972 0.435249 0.845057 0.217297
H78   H     H_    0.088035 0.456541 0.302407 0.184258
H79   H     H_    0.623512 0.317971 0.784815 0.165527
H80   H     H_    0.610073 0.381595 0.682659 0.262054
H81   H     H_    0.237605 0.641823 0.351689 0.263717
H82   H     H_    0.215021 0.698698 0.238730 0.261457
H83   H     H_    0.157502 0.600590 0.270837 0.243967
H84   H     H_    0.267212 0.564991 0.155922 0.216351
H85   H     H_    0.286583 0.504631 0.265522 0.242465
H86   H     H_    0.390182 0.618510 0.317323 0.262502
H87   H     H_    0.375866 0.681755 0.215039 0.164421
H88   H     H_    0.007931 0.585736 0.709024 0.181223
N1    N     N_R   0.500040 0.500070 0.750030 -0.115500
N2    N     N_R   0.499960 0.499930 0.249970 -0.115230
N3    N     N_3   0.046971 0.414325 0.336879 -0.475522
N4    N     N_3   0.953565 0.579667 0.664883 -0.476380
N5    N     N_3   0.346087 0.773297 0.483658 -0.484984
N6    N     N_3   0.655254 0.234167 0.505853 -0.479413
N7    N     N_3   0.388765 0.613625 0.734939 -0.395201
N8    N     N_3   0.611261 0.386442 0.264994 -0.396052
O1    O     O_R   0.500020 0.367860 0.580280 -0.650297
O2    O     O_R   0.499980 0.632140 0.419720 -0.651093
O3    O     O_R   0.500020 0.367840 0.419730 -0.595950
O4    O     O_R   0.499980 0.632160 0.580270 -0.592561
O5    O     O_R   0.376770 0.500000 0.580260 -0.593739
O6    O     O_R   0.623230 0.500000 0.419740 -0.593349
O7    O     O_R   0.376780 0.499980 0.419710 -0.634425
O8    O     O_R   0.623220 0.500020 0.580290 -0.635382
Zn1   Zn    Zn3+2 0.499990 0.500020 0.607200 0.938539
Zn2   Zn    Zn3+2 0.500010 0.499980 0.392800 0.937473

loop_
_geom_bond_atom_site_label_1
_geom_bond_atom_site_label_2
_ccdc_geom_bond_type
C17   O6    A    
C66   C68   S    
H69   N7    S    
C34   C56   A    
C23   C45   A    
C45   C55   S    
C27   C29   S    
C70   H77   S    
C43   H7    S    
C73   C74   S    
C14   C18   A    
C68   H62   S    
N2    Zn2   S    
C5    C67   A    
O2    Zn2   S    
C13   N2    A    
C6    C75   A    
C66   H65   S    
C55   H43   S    
C53   C54   S    
C27   C33   S    
C16   C31   S    
C15   C19   A    
C29   C36   S    
C1    O1    A    
C69   H79   S    
C74   H83   S    
C61   H48   S    
C63   H57   S    
C57   H41   S    
C60   H49   S    
C19   C21   A    
C24   C26   A    
C49   H25   S    
C11   C14   A    
C71   H74   S    
C46   H16   S    
C4    C41   A    
C10   N8    S    
C23   C40   A    
C5    H45   S    
C33   C36   S    
C18   C19   A    
C32   C39   T    
C62   H60   S    
C60   H50   S    
C49   C50   S    
C56   C59   S    
C73   H85   S    
C46   C47   S    
C53   H30   S    
C25   H23   S    
H36   N6    S    
C52   H31   S    
C22   C25   A    
C45   C67   A    
C70   C71   S    
C26   H34   S    
C30   C33   S    
C16   O7    A    
C51   H20   S    
C12   O4    A    
O7    Zn2   S    
C52   H32   S    
O1    Zn1   S    
C59   C60   S    
C56   C75   A    
H70   N7    S    
C58   H40   S    
C68   H61   S    
C69   C70   S    
C34   C41   A    
C4    C7    A    
C40   N5    S    
H33   N5    S    
C1    C34   S    
C55   H44   S    
C10   C21   A    
O4    Zn1   S    
C71   H75   S    
C50   H22   S    
C69   H80   S    
C74   H82   S    
C9    N1    A    
C63   H58   S    
C54   H27   S    
C44   H4    S    
C70   H76   S    
C28   C35   S    
C6    H56   S    
C44   H5    S    
C5    C7    A    
C65   H68   S    
C6    C8    A    
C59   H52   S    
C30   C37   S    
C60   C61   S    
H35   N5    S    
C62   H59   S    
C2    C4    A    
C43   C44   S    
C7    C62   S    
C35   C49   S    
C62   C63   S    
C9    C20   A    
C47   C48   S    
C12   C23   S    
C64   H55   S    
H88   N4    S    
C10   N2    A    
C28   C46   S    
C50   C51   S    
C48   H11   S    
C42   H8    S    
C42   H9    S    
C52   C53   S    
C73   H84   S    
C3    C76   A    
C24   H12   S    
H67   N3    S    
O6    Zn2   S    
O3    Zn2   S    
C17   O8    A    
C15   C24   A    
C64   H54   S    
C3    C40   A    
C3    C8    A    
C48   H13   S    
C13   C15   A    
C58   H39   S    
C47   H14   S    
C48   H10   S    
H78   N3    S    
C9    N7    S    
C42   C43   S    
C2    C76   A    
O8    Zn1   S    
C12   O2    A    
C54   H28   S    
C43   H6    S    
C21   C25   A    
H71   N8    S    
C1    O3    A    
C50   H21   S    
C74   H81   S    
C35   C37   S    
C47   H15   S    
C54   H26   S    
C44   H3    S    
C22   H1    S    
C72   C73   S    
C33   C52   S    
C11   C69   S    
H37   N6    S    
C13   C72   S    
C41   N6    S    
C29   C35   S    
H2    N4    S    
C31   C38   T    
C61   H47   S    
N1    Zn1   S    
C29   N3    S    
C55   C57   S    
C30   N4    S    
C28   C30   S    
C37   C39   S    
C49   H24   S    
C65   H66   S    
C27   C42   S    
C14   C22   A    
C57   C58   S    
C71   H73   S    
C46   H17   S    
C20   C26   A    
C27   C37   S    
O5    Zn1   S    
C36   C38   S    
H72   N8    S    
C72   H87   S    
C18   C20   A    
C16   O5    A    
C51   H18   S    
C63   C64   S    
C53   H29   S    
C8    C65   S    
C66   H64   S    
C64   H53   S    
C28   C36   S    
C65   C66   S    
C58   H38   S    
C17   C32   S    
C72   H86   S    
C61   H46   S    
C68   H63   S    
C11   N1    A    
C67   C76   A    
C59   H51   S    
C2    C75   A    
C51   H19   S    
C57   H42   S    
