data_mof_unit_13631.cif
_audit_creation_date              2012-10-26T19:15:22-0400
_audit_creation_method            fapswitch 2.2
_symmetry_space_group_name_H-M    P1
_symmetry_Int_Tables_number       1
_space_group_crystal_system       triclinic
_cell_length_a                    15.966962
_cell_length_b                    10.84534
_cell_length_c                    9.580929
_cell_angle_alpha                 89.440816
_cell_angle_beta                  89.042611
_cell_angle_gamma                 91.28654
_cell_volume                      1658.3669586

loop_
_atom_site_label
_atom_site_type_symbol
_atom_type_description
_atom_site_fract_x
_atom_site_fract_y
_atom_site_fract_z
_atom_type_partial_charge
C1    C     C_R   0.501972 0.262472 0.500529 0.544118
C2    C     C_R   0.519111 0.937703 0.373103 -0.144467
C3    C     C_R   0.507162 0.870933 0.498533 0.021796
C4    C     C_R   0.341357 0.499958 0.500964 0.561521
C5    C     C_R   0.506730 0.935143 0.624019 -0.016243
C6    C     C_3   0.448151 0.927902 0.748307 -0.035893
C7    C     C_3   0.457199 0.068518 0.754661 -0.117294
C8    C     C_R   0.568482 0.541697 0.070708 0.153527
C9    C     C_R   0.437271 0.444548 0.079194 0.014915
C10   C     C_R   0.436611 0.442414 0.931153 0.110790
C11   C     C_R   0.568796 0.540822 0.924001 0.150887
C12   C     C_R   0.041709 0.497900 0.628081 -0.105602
C13   C     C_3   0.611036 0.664376 0.914266 -0.275171
C14   C     C_3   0.609103 0.666750 0.073031 -0.276740
C15   C     C_R   0.500604 0.737568 0.499397 0.561019
C16   C     C_R   0.658671 0.500336 0.499078 0.545494
C17   C     C_R   0.954309 0.497983 0.626523 -0.104599
C18   C     C_R   0.912735 0.500868 0.499037 0.038830
C19   C     C_R   0.958481 0.503728 0.373123 -0.105874
C20   C     C_R   0.045855 0.503650 0.374676 -0.100611
C21   C     C_R   0.087420 0.500719 0.502129 0.042413
C22   C     C_3   0.503257 0.118055 0.884468 -0.295625
C23   C     C_1   0.823133 0.500752 0.497560 -0.064724
C24   C     C_3   0.591095 0.068139 0.908313 -0.429055
C25   C     C_3   0.365230 0.367485 0.870583 -0.250566
C26   C     C_3   0.282722 0.436311 0.878574 -0.413482
C27   C     C_2   0.360960 0.881688 0.714267 0.576913
C28   C     C_1   0.176982 0.500477 0.503334 -0.059554
C29   C     C_1   0.252134 0.500237 0.503004 -0.025518
C30   C     C_1   0.747951 0.500580 0.497346 -0.035056
C31   C     C_R   0.511754 0.062243 0.625878 0.019859
C32   C     C_R   0.510694 0.129644 0.500803 0.014669
C33   C     C_R   0.520346 0.066361 0.374072 -0.148642
Cu1   Cu    Cu3+1 0.500000 0.499980 0.640670 0.947671
Cu2   Cu    Cu3+1 0.500000 0.500020 0.359330 0.946284
H1    H     H_    0.073569 0.495599 0.727033 0.104390
H2    H     H_    0.524962 0.115529 0.275177 0.133271
H3    H     H_    0.523462 0.891372 0.273920 0.125466
H4    H     H_    0.474180 0.878489 0.838740 0.115534
H5    H     H_    0.397996 0.117502 0.735234 0.141050
H6    H     H_    0.589030 0.967462 0.929325 0.135547
H7    H     H_    0.632985 0.088693 0.817012 0.165848
H8    H     H_    0.618471 0.113808 0.000794 0.136776
H9    H     H_    0.509963 0.219572 0.873958 0.174754
H10   H     H_    0.463618 0.097990 0.978740 0.139887
H11   H     H_    0.289854 0.530249 0.832562 0.205623
H12   H     H_    0.386924 0.400152 0.139285 0.128404
H13   H     H_    0.233772 0.384414 0.820962 0.133288
H14   H     H_    0.261487 0.444807 0.988972 0.133823
H15   H     H_    0.378496 0.335073 0.764700 0.199487
H16   H     H_    0.356648 0.280404 0.931953 0.088838
H17   H     H_    0.266193 0.761977 0.762130 0.331337
H18   H     H_    0.675461 0.659243 0.869253 0.127207
H19   H     H_    0.571582 0.734719 0.865366 0.145624
H20   H     H_    0.672469 0.665279 0.119212 0.127732
H21   H     H_    0.566957 0.737629 0.115792 0.142426
H22   H     H_    0.919219 0.495755 0.724337 0.107686
H23   H     H_    0.926667 0.505959 0.274142 0.107618
H24   H     H_    0.080939 0.505816 0.276848 0.111038
N1    N     N_R   0.500520 0.500930 0.147930 -0.243152
N2    N     N_R   0.500520 0.500890 0.852020 -0.221519
O1    O     O_R   0.500000 0.319640 0.618810 -0.526275
O2    O     O_R   0.324236 0.786390 0.794918 -0.699269
O3    O     O_R   0.500010 0.319680 0.381230 -0.509696
O4    O     O_R   0.380300 0.499950 0.618760 -0.499805
O5    O     O_R   0.380310 0.499990 0.381180 -0.497274
O6    O     O_R   0.499990 0.680320 0.618770 -0.490933
O7    O     O_R   0.500000 0.680360 0.381190 -0.502537
O8    O     O_R   0.619690 0.500010 0.618820 -0.498616
O9    O     O_R   0.619700 0.500050 0.381240 -0.496659
O10   O     O_2   0.322948 0.926225 0.616735 -0.522906

loop_
_geom_bond_atom_site_label_1
_geom_bond_atom_site_label_2
_ccdc_geom_bond_type
C12   C17   A    
Cu1   O6    S    
C14   H21   S    
C7    H5    S    
C25   H16   S    
C9    H12   S    
C6    C7    S    
C13   H19   S    
C12   H1    S    
C7    C22   S    
C24   H7    S    
C9    C10   A    
C2    H3    S    
C4    C29   S    
C6    C27   S    
C26   H13   S    
C9    N1    A    
C15   O6    A    
C32   C33   A    
C20   C21   A    
C14   H20   S    
C2    C33   A    
C27   O10   D    
C31   C32   A    
C13   C14   S    
C8    N1    A    
C20   H24   S    
C4    O5    A    
C24   H6    S    
C11   C13   S    
Cu1   O8    S    
C4    O4    A    
C27   O2    S    
Cu2   O7    S    
C8    C11   A    
C15   O7    A    
C10   C25   S    
C28   C29   T    
C21   C28   S    
C17   C18   A    
C13   H18   S    
Cu1   N2    S    
C19   H23   S    
C5    C6    S    
C22   C24   S    
Cu2   O3    S    
C10   N2    A    
C7    C31   S    
C26   H11   S    
C16   C30   S    
C18   C23   S    
C1    O3    A    
C3    C5    A    
Cu1   O1    S    
C22   H10   S    
C16   O9    A    
C23   C30   T    
Cu1   O4    S    
C1    O1    A    
C33   H2    S    
Cu1   Cu2   S    
C26   H14   S    
C24   H8    S    
C6    H4    S    
C18   C19   A    
C3    C15   S    
C2    C3    A    
C8    C14   S    
Cu2   O5    S    
C5    C31   A    
C25   C26   S    
C25   H15   S    
C12   C21   A    
C1    C32   S    
C22   H9    S    
C16   O8    A    
C19   C20   A    
Cu2   O9    S    
C17   H22   S    
Cu2   N1    S    
C11   N2    A    
H17   O2    S    
