data_mof_unit_61578.cif
_audit_creation_date              2012-12-10T19:48:52-0500
_audit_creation_method            fapswitch 2.2
_symmetry_space_group_name_H-M    P1
_symmetry_Int_Tables_number       1
_space_group_crystal_system       triclinic
_cell_length_a                    26.014919
_cell_length_b                    26.047649
_cell_length_c                    22.246633
_cell_angle_alpha                 90.001434
_cell_angle_beta                  54.052355
_cell_angle_gamma                 89.998711
_cell_volume                      12203.9660421

loop_
_atom_site_label
_atom_site_type_symbol
_atom_type_description
_atom_site_fract_x
_atom_site_fract_y
_atom_site_fract_z
_atom_type_partial_charge
C1    C     C_R   0.849498 0.750007 0.301061 0.807886
C2    C     C_R   0.849499 0.249989 0.301067 0.807743
C3    C     C_R   0.349498 0.250006 0.301061 0.807929
C4    C     C_R   0.349498 0.749990 0.301067 0.807779
C5    C     C_R   0.457232 0.706375 0.529690 -0.282133
C6    C     C_R   0.456923 0.293390 0.530299 -0.282119
C7    C     C_R   0.957252 0.206361 0.529651 -0.282475
C8    C     C_R   0.956981 0.793435 0.530184 -0.282122
C9    C     C_R   0.448372 0.746565 0.494649 -0.082631
C10   C     C_R   0.448339 0.253431 0.494711 -0.082903
C11   C     C_R   0.948374 0.246565 0.494645 -0.082590
C12   C     C_R   0.948345 0.753431 0.494700 -0.082851
C13   C     C_R   0.497389 0.781798 0.452614 0.001262
C14   C     C_R   0.497560 0.218424 0.452281 0.001089
C15   C     C_R   0.997379 0.281812 0.452636 0.001146
C16   C     C_R   0.997527 0.718381 0.452346 0.001101
C17   C     C_3   0.495388 0.839059 0.451388 -0.430423
C18   C     C_3   0.495879 0.161172 0.450400 -0.430818
C19   C     C_3   0.995357 0.339074 0.451452 -0.430264
C20   C     C_3   0.995785 0.661126 0.450591 -0.430615
C21   C     C_3   0.553379 0.838705 0.452196 0.553677
C22   C     C_3   0.553850 0.161511 0.451243 0.553430
C23   C     C_3   0.053349 0.338719 0.452257 0.553762
C24   C     C_3   0.053759 0.661468 0.451429 0.553571
C25   C     C_3   0.471550 0.722003 0.958248 -0.009732
C26   C     C_3   0.464246 0.253857 0.957378 -0.012867
C27   C     C_3   0.972681 0.220107 0.958244 -0.009264
C28   C     C_3   0.964840 0.758968 0.957385 -0.012253
C29   C     C_3   0.519694 0.805455 0.956626 -0.433277
C30   C     C_3   0.545055 0.200231 0.956642 -0.427312
C31   C     C_3   0.017541 0.305329 0.956638 -0.433173
C32   C     C_3   0.040502 0.698350 0.956662 -0.427210
C33   C     C_3   0.474335 0.805181 0.042895 -0.385877
C34   C     C_3   0.502014 0.200062 0.042749 -0.381853
C35   C     C_3   0.972198 0.304966 0.042908 -0.386159
C36   C     C_3   0.997455 0.698184 0.042769 -0.381640
C37   C     C_1   0.389259 0.749969 0.221691 -0.110258
C38   C     C_1   0.389129 0.249916 0.221676 -0.108990
C39   C     C_1   0.889266 0.249964 0.221691 -0.110327
C40   C     C_1   0.889146 0.749934 0.221676 -0.108919
C41   C     C_3   0.536550 0.749468 0.926647 0.189475
C42   C     C_3   0.535768 0.250659 0.926772 0.175454
C43   C     C_3   0.036575 0.249457 0.926648 0.189533
C44   C     C_3   0.035850 0.750744 0.926773 0.175024
C45   C     C_R   0.650536 0.749974 0.698928 0.817320
C46   C     C_R   0.650538 0.250040 0.698934 0.820527
C47   C     C_R   0.150536 0.249974 0.698928 0.817056
C48   C     C_R   0.150538 0.750039 0.698934 0.820249
C49   C     C_3   0.431982 0.717306 0.044154 -0.456478
C50   C     C_3   0.421113 0.254525 0.044364 -0.406405
C51   C     C_3   0.933293 0.215544 0.044150 -0.456947
C52   C     C_3   0.921774 0.759600 0.044371 -0.405988
C53   C     C_3   0.463242 0.749497 0.073362 0.218247
C54   C     C_3   0.462570 0.250231 0.073318 0.207749
C55   C     C_3   0.963268 0.249484 0.073362 0.218478
C56   C     C_3   0.962626 0.750316 0.073319 0.207193
C57   C     C_3   0.528471 0.725248 0.043410 -0.430979
C58   C     C_3   0.508993 0.296416 0.043224 -0.440976
C59   C     C_3   0.029403 0.227198 0.043405 -0.430619
C60   C     C_3   0.013079 0.793504 0.043200 -0.440530
C61   C     C_3   0.571793 0.725177 0.957294 0.495117
C62   C     C_3   0.552832 0.296321 0.956989 0.511272
C63   C     C_3   0.072727 0.227142 0.957288 0.495025
C64   C     C_3   0.056901 0.793340 0.956964 0.511293
C65   C     C_1   0.422611 0.749810 0.154902 -0.056285
C66   C     C_1   0.422277 0.249988 0.154883 -0.061254
C67   C     C_1   0.922626 0.249800 0.154903 -0.056352
C68   C     C_1   0.922311 0.750032 0.154883 -0.061195
C69   C     C_1   0.577372 0.749787 0.845060 -0.014923
C70   C     C_1   0.577099 0.250292 0.845088 -0.029321
C71   C     C_1   0.077382 0.249779 0.845060 -0.014935
C72   C     C_1   0.077138 0.750332 0.845089 -0.029231
C73   C     C_1   0.610792 0.749900 0.778285 -0.114748
C74   C     C_1   0.610724 0.250125 0.778303 -0.116066
C75   C     C_1   0.110796 0.249896 0.778285 -0.114764
C76   C     C_1   0.110739 0.750140 0.778303 -0.115930
C77   C     C_R   0.737647 0.974074 0.457914 -0.093727
C78   C     C_R   0.737648 0.025925 0.457913 -0.093663
C79   C     C_R   0.237639 0.474074 0.457921 -0.093732
C80   C     C_R   0.237640 0.525925 0.457920 -0.093689
C81   C     C_R   0.750546 0.945546 0.500309 -0.035129
C82   C     C_R   0.750547 0.054454 0.500308 -0.034980
C83   C     C_R   0.250548 0.445546 0.500308 -0.035165
C84   C     C_R   0.250549 0.554454 0.500306 -0.035013
C85   C     C_R   0.764276 0.973006 0.544094 -0.199749
C86   C     C_R   0.764276 0.026995 0.544094 -0.200631
C87   C     C_R   0.264288 0.473006 0.544083 -0.199416
C88   C     C_R   0.264288 0.526995 0.544083 -0.200265
C89   C     C_R   0.749956 0.610005 0.500049 0.831079
C90   C     C_R   0.749954 0.389995 0.500050 0.832495
C91   C     C_R   0.249956 0.110005 0.500049 0.830916
C92   C     C_R   0.249954 0.889995 0.500050 0.832254
C93   C     C_3   0.719570 0.029592 0.405726 0.495628
C94   C     C_3   0.719567 0.970406 0.405729 0.496220
C95   C     C_3   0.219544 0.529591 0.405750 0.495753
C96   C     C_3   0.219542 0.470406 0.405752 0.496242
C97   C     C_R   0.804649 0.525963 0.457590 -0.174561
C98   C     C_R   0.804648 0.474033 0.457591 -0.174689
C99   C     C_R   0.304649 0.025963 0.457587 -0.174528
C100  C     C_R   0.304648 0.974032 0.457587 -0.174665
C101  C     C_R   0.749196 0.554468 0.500294 -0.019157
C102  C     C_R   0.749194 0.445533 0.500295 -0.019078
C103  C     C_R   0.249196 0.054468 0.500296 -0.019165
C104  C     C_R   0.249194 0.945533 0.500297 -0.019090
C105  C     C_R   0.691544 0.526999 0.544415 -0.191865
C106  C     C_R   0.691543 0.473007 0.544415 -0.191081
C107  C     C_R   0.191544 0.026999 0.544424 -0.192159
C108  C     C_R   0.191543 0.973007 0.544424 -0.191553
C109  C     C_3   0.875102 0.470437 0.404745 1.031194
C110  C     C_3   0.875102 0.529553 0.404744 1.030843
C111  C     C_3   0.375100 0.970437 0.404731 1.031091
C112  C     C_3   0.375101 0.029553 0.404730 1.030698
C113  C     C_R   0.750014 0.889998 0.500066 0.811597
C114  C     C_R   0.750014 0.110002 0.500066 0.811164
C115  C     C_R   0.250014 0.389998 0.500066 0.811755
C116  C     C_R   0.250014 0.610002 0.500066 0.811284
C117  C     C_R   0.890310 0.750186 0.499589 0.826101
C118  C     C_R   0.890313 0.249812 0.499584 0.827131
C119  C     C_R   0.390310 0.250186 0.499590 0.825971
C120  C     C_R   0.390313 0.749812 0.499584 0.827044
C121  C     C_R   0.609841 0.749608 0.499920 0.817390
C122  C     C_R   0.609820 0.250372 0.499960 0.816856
C123  C     C_R   0.109842 0.249607 0.499918 0.817379
C124  C     C_R   0.109823 0.750375 0.499953 0.816986
C125  C     C_R   0.550078 0.781422 0.453252 0.014919
C126  C     C_R   0.550235 0.218789 0.452948 0.015011
C127  C     C_R   0.050068 0.281436 0.453272 0.014765
C128  C     C_R   0.050205 0.718747 0.453008 0.014934
C129  C     C_R   0.555703 0.746057 0.496305 -0.181201
C130  C     C_R   0.555631 0.253903 0.496442 -0.181518
C131  C     C_R   0.055708 0.246055 0.496296 -0.181207
C132  C     C_R   0.055643 0.753910 0.496418 -0.181499
C133  C     C_R   0.510105 0.705936 0.531684 0.208407
C134  C     C_R   0.509748 0.293792 0.532372 0.208636
C135  C     C_R   0.010127 0.205919 0.531641 0.208614
C136  C     C_R   0.009814 0.793844 0.532243 0.208774
H1    H     H_    0.496576 0.825997 0.934460 0.164571
H2    H     H_    0.533427 0.166442 0.936034 0.166720
H3    H     H_    0.993646 0.324528 0.934478 0.164624
H4    H     H_    0.025913 0.666667 0.936074 0.166578
H5    H     H_    0.428140 0.822823 0.061811 0.183271
H6    H     H_    0.469758 0.166238 0.063337 0.187294
H7    H     H_    0.925344 0.321173 0.061828 0.183154
H8    H     H_    0.962243 0.666464 0.063377 0.186357
H9    H     H_    0.495111 0.829093 0.065134 0.206468
H10   H     H_    0.531993 0.196099 0.063115 0.204908
H11   H     H_    0.992023 0.330093 0.065149 0.206557
H12   H     H_    0.026922 0.690643 0.063130 0.205981
H13   H     H_    0.587178 0.685459 0.937380 0.087044
H14   H     H_    0.547863 0.333150 0.935745 0.096191
H15   H     H_    0.089656 0.187665 0.937364 0.086808
H16   H     H_    0.055309 0.831417 0.935704 0.096004
H17   H     H_    0.521921 0.685154 0.064091 0.130362
H18   H     H_    0.481831 0.333014 0.063691 0.131535
H19   H     H_    0.024409 0.187279 0.064076 0.130042
H20   H     H_    0.989280 0.831471 0.063652 0.130685
H21   H     H_    0.427738 0.676620 0.061578 0.194754
H22   H     H_    0.390566 0.289007 0.068715 0.199492
H23   H     H_    0.930626 0.175061 0.061568 0.194299
H24   H     H_    0.894401 0.795587 0.068713 0.199368
H25   H     H_    0.551625 0.747051 0.064555 0.222564
H26   H     H_    0.538283 0.294602 0.064715 0.217815
H27   H     H_    0.051683 0.250289 0.064556 0.222907
H28   H     H_    0.042049 0.788111 0.064686 0.218457
H29   H     H_    0.774931 0.953057 0.578280 0.171059
H30   H     H_    0.774932 0.046946 0.578280 0.170405
H31   H     H_    0.274952 0.453057 0.578262 0.171239
H32   H     H_    0.274952 0.546946 0.578261 0.170617
H33   H     H_    0.421679 0.676578 0.558881 0.175976
H34   H     H_    0.421169 0.323000 0.559896 0.176953
H35   H     H_    0.921711 0.176552 0.558816 0.175785
H36   H     H_    0.921264 0.823081 0.559705 0.176802
H37   H     H_    0.756825 0.047433 0.351608 0.018572
H38   H     H_    0.756819 0.952557 0.351612 0.018368
H39   H     H_    0.256791 0.547434 0.351629 0.018766
H40   H     H_    0.256786 0.452557 0.351632 0.018623
H41   H     H_    0.646586 0.546953 0.578855 0.168037
H42   H     H_    0.646584 0.453057 0.578854 0.167946
H43   H     H_    0.146587 0.046953 0.578868 0.167995
H44   H     H_    0.146585 0.953057 0.578867 0.167845
H45   H     H_    0.505130 0.853816 0.398725 0.272298
H46   H     H_    0.505720 0.146703 0.397561 0.271682
H47   H     H_    0.005092 0.353850 0.398799 0.272329
H48   H     H_    0.005607 0.646601 0.397786 0.271841
H49   H     H_    0.452390 0.855269 0.502862 0.178124
H50   H     H_    0.452964 0.144688 0.501678 0.178037
H51   H     H_    0.952354 0.355266 0.502938 0.178231
H52   H     H_    0.952853 0.644695 0.501907 0.178060
H53   H     H_    0.545472 0.855612 0.502910 0.086678
H54   H     H_    0.546019 0.144328 0.501773 0.086920
H55   H     H_    0.045437 0.355609 0.502983 0.086745
H56   H     H_    0.045913 0.644339 0.501995 0.086909
H57   H     H_    0.382818 0.731273 0.069428 0.177836
H58   H     H_    0.387866 0.221327 0.065252 0.167257
H59   H     H_    0.883616 0.228090 0.069424 0.177934
H60   H     H_    0.885633 0.728576 0.065274 0.167712
H61   H     H_    0.444389 0.748541 0.947101 0.142924
H62   H     H_    0.453131 0.217306 0.941052 0.129560
H63   H     H_    0.944512 0.245357 0.947100 0.142740
H64   H     H_    0.950510 0.724293 0.941075 0.129716
H65   H     H_    0.563458 0.827434 0.937696 0.242174
H66   H     H_    0.595565 0.195991 0.935812 0.237513
H67   H     H_    0.060424 0.328618 0.937711 0.242295
H68   H     H_    0.090470 0.690534 0.935826 0.237924
O1    O     O_3   0.750020 0.750020 0.500000 -0.506405
O2    O     O_3   0.750020 0.249980 0.500000 -0.505945
O3    O     O_3   0.250020 0.250020 0.500000 -0.506413
O4    O     O_3   0.250020 0.749980 0.500000 -0.505999
O5    O     O_R   0.698170 0.634220 0.542990 -0.659665
O6    O     O_R   0.698170 0.365780 0.542990 -0.659191
O7    O     O_R   0.198170 0.134220 0.542990 -0.659691
O8    O     O_R   0.198170 0.865780 0.542990 -0.659327
O9    O     O_R   0.741140 0.865830 0.457020 -0.613296
O10   O     O_R   0.741140 0.134170 0.457020 -0.613289
O11   O     O_R   0.241140 0.365830 0.457020 -0.613285
O12   O     O_R   0.241140 0.634170 0.457020 -0.613289
O13   O     O_R   0.862350 0.719680 0.336040 -0.616459
O14   O     O_R   0.862350 0.280320 0.336040 -0.616382
O15   O     O_R   0.362350 0.219680 0.336040 -0.616576
O16   O     O_R   0.362350 0.780320 0.336040 -0.616413
O17   O     O_R   0.698420 0.780360 0.663960 -0.627328
O18   O     O_R   0.698420 0.219640 0.663960 -0.630939
O19   O     O_R   0.198420 0.280360 0.663960 -0.626981
O20   O     O_R   0.198420 0.719640 0.663960 -0.629903
O21   O     O_R   0.801620 0.780400 0.336040 -0.631743
O22   O     O_R   0.801620 0.219600 0.336040 -0.631411
O23   O     O_R   0.301620 0.280400 0.336040 -0.631662
O24   O     O_R   0.301620 0.719600 0.336040 -0.631378
O25   O     O_R   0.637700 0.719640 0.663960 -0.640241
O26   O     O_R   0.637700 0.280360 0.663960 -0.641116
O27   O     O_R   0.137700 0.219640 0.663960 -0.640386
O28   O     O_R   0.137700 0.780360 0.663960 -0.641832
O29   O     O_R   0.801870 0.634220 0.457010 -0.587723
O30   O     O_R   0.801870 0.365780 0.457010 -0.587619
O31   O     O_R   0.301870 0.134220 0.457010 -0.587746
O32   O     O_R   0.301870 0.865780 0.457010 -0.587614
O33   O     O_R   0.758890 0.865820 0.542980 -0.658270
O34   O     O_R   0.758890 0.134180 0.542980 -0.659199
O35   O     O_R   0.258890 0.365820 0.542980 -0.658122
O36   O     O_R   0.258890 0.634180 0.542980 -0.659048
O37   O     O_R   0.887320 0.719660 0.457000 -0.620745
O38   O     O_R   0.887320 0.280340 0.457000 -0.620448
O39   O     O_R   0.387320 0.219660 0.457000 -0.620790
O40   O     O_R   0.387320 0.780340 0.457000 -0.620504
O41   O     O_R   0.655700 0.780400 0.457020 -0.601212
O42   O     O_R   0.655700 0.219600 0.457020 -0.601194
O43   O     O_R   0.155700 0.280400 0.457020 -0.601224
O44   O     O_R   0.155700 0.719600 0.457020 -0.601171
O45   O     O_R   0.844340 0.780370 0.542980 -0.653581
O46   O     O_R   0.844340 0.219630 0.542980 -0.653945
O47   O     O_R   0.344340 0.280370 0.542980 -0.653580
O48   O     O_R   0.344340 0.719630 0.542980 -0.653771
O49   O     O_R   0.612730 0.719670 0.543000 -0.619835
O50   O     O_R   0.612730 0.280330 0.543000 -0.620237
O51   O     O_R   0.112730 0.219670 0.543000 -0.619815
O52   O     O_R   0.112730 0.780330 0.543000 -0.620224
Zn1   Zn    Zn3+2 0.675940 0.706640 0.561420 0.975051
Zn2   Zn    Zn3+2 0.675940 0.293360 0.561420 0.975101
Zn3   Zn    Zn3+2 0.175940 0.206640 0.561420 0.974834
Zn4   Zn    Zn3+2 0.175940 0.793360 0.561420 0.974562
Zn5   Zn    Zn3+2 0.824100 0.706650 0.438580 1.038849
Zn6   Zn    Zn3+2 0.824100 0.293350 0.438580 1.040146
Zn7   Zn    Zn3+2 0.324100 0.206650 0.438580 1.038615
Zn8   Zn    Zn3+2 0.324100 0.793350 0.438580 1.039980
Zn9   Zn    Zn3+2 0.762700 0.793390 0.561410 0.969233
Zn10  Zn    Zn3+2 0.762700 0.206610 0.561410 0.966585
Zn11  Zn    Zn3+2 0.262700 0.293390 0.561410 0.969525
Zn12  Zn    Zn3+2 0.262700 0.706610 0.561410 0.967375
Zn13  Zn    Zn3+2 0.737340 0.793410 0.438590 1.029471
Zn14  Zn    Zn3+2 0.737340 0.206590 0.438590 1.029167
Zn15  Zn    Zn3+2 0.237340 0.293410 0.438590 1.029575
Zn16  Zn    Zn3+2 0.237340 0.706590 0.438590 1.029311
N1    N     N_2   0.515560 0.665999 0.571242 -0.276600
H69   H     H_    0.506942 0.630073 0.559413 0.215094
C137  C     C_3   0.479229 0.674774 0.650443 -0.701433
H70   H     H_    0.427535 0.674184 0.675860 0.219918
H71   H     H_    0.491940 0.712339 0.662113 0.250267
H72   H     H_    0.489888 0.644066 0.676238 0.233567
N2    N     N_2   0.514812 0.333406 0.572650 -0.275391
H73   H     H_    0.505740 0.369416 0.561575 0.215497
C138  C     C_3   0.478699 0.323887 0.651661 -0.705670
H74   H     H_    0.426981 0.324137 0.677185 0.222244
H75   H     H_    0.489032 0.354405 0.678011 0.233014
H76   H     H_    0.491922 0.286262 0.662533 0.248009
N3    N     N_2   0.015606 0.165962 0.571154 -0.276414
H77   H     H_    0.007018 0.130042 0.559277 0.215004
C139  C     C_3   0.979261 0.174690 0.650366 -0.702631
H78   H     H_    0.927569 0.174078 0.675775 0.219484
H79   H     H_    0.991940 0.212251 0.662087 0.250352
H80   H     H_    0.989940 0.143970 0.676126 0.233477
N4    N     N_2   0.014952 0.833520 0.572385 -0.275380
H81   H     H_    0.005965 0.869514 0.561169 0.215394
C140  C     C_3   0.978799 0.824142 0.651433 -0.706285
H82   H     H_    0.927085 0.824455 0.676939 0.222209
H83   H     H_    0.989193 0.854697 0.677679 0.232720
H84   H     H_    0.991927 0.786528 0.662456 0.248247
F1    F     F_    0.626833 0.752510 0.931834 -0.661479
F2    F     F_    0.615734 0.292894 0.931912 -0.662351
F3    F     F_    0.126669 0.256096 0.931836 -0.661329
F4    F     F_    0.119293 0.785413 0.931882 -0.662132
N5    N     N_2   0.474993 0.673742 0.922427 -0.297480
H85   H     H_    0.431216 0.661642 0.937182 0.240589
C141  C     C_3   0.514450 0.631894 0.916253 -0.773825
H86   H     H_    0.501706 0.596195 0.900486 0.239725
H87   H     H_    0.507509 0.624795 0.969739 0.225816
H88   H     H_    0.564954 0.639926 0.871164 0.242905
N6    N     N_2   0.452663 0.295492 0.922319 -0.305136
H89   H     H_    0.438867 0.283734 0.889472 0.234535
C142  C     C_3   0.426697 0.344707 0.957986 -0.764494
H90   H     H_    0.438623 0.373792 0.915127 0.243311
H91   H     H_    0.446605 0.357911 0.987676 0.227829
H92   H     H_    0.374179 0.342146 0.997325 0.247802
N7    N     N_2   0.978014 0.171322 0.922415 -0.297368
H93   H     H_    0.934736 0.157822 0.937163 0.240073
C143  C     C_3   0.019068 0.130914 0.916243 -0.775346
H94   H     H_    0.007724 0.094442 0.900478 0.239417
H95   H     H_    0.012389 0.124593 0.969730 0.225711
H96   H     H_    0.069240 0.140019 0.871154 0.242893
N8    N     N_2   0.957119 0.803045 0.922317 -0.304373
H97   H     H_    0.942379 0.794043 0.889480 0.234867
C144  C     C_3   0.935619 0.852789 0.957970 -0.767827
H98   H     H_    0.950199 0.882610 0.915104 0.243083
H99   H     H_    0.956580 0.862823 0.987652 0.227818
H100  H     H_    0.883004 0.853182 0.997314 0.247537
F5    F     F_    0.659574 0.050479 0.439806 -0.546349
F6    F     F_    0.659568 0.949528 0.439813 -0.545570
F7    F     F_    0.159546 0.550478 0.439846 -0.546105
F8    F     F_    0.159541 0.449527 0.439853 -0.545429
F9    F     F_    0.902554 0.448699 0.436387 -0.633841
F10   F     F_    0.902556 0.551290 0.436385 -0.634187
F11   F     F_    0.402562 0.948700 0.436362 -0.634028
F12   F     F_    0.402563 0.051290 0.436360 -0.634370
F13   F     F_    0.895170 0.448686 0.337474 -0.623981
F14   F     F_    0.895171 0.551298 0.337473 -0.624370
F15   F     F_    0.395159 0.948686 0.337464 -0.624186
F16   F     F_    0.395160 0.051298 0.337462 -0.624628
F17   F     F_    0.607236 0.856611 0.386379 -0.568727
F18   F     F_    0.607817 0.143952 0.385238 -0.569581
F19   F     F_    0.107199 0.356648 0.386453 -0.568650
F20   F     F_    0.107705 0.643840 0.385460 -0.569276

loop_
_geom_bond_atom_site_label_1
_geom_bond_atom_site_label_2
_ccdc_geom_bond_type
C99   C103  A    
O7    Zn3   S    
C30   H2    S    
C55   C59   S    
O3    Zn11  S    
N4    H81   S    
C52   H60   S    
C41   C61   S    
C116  O12   A    
C43   C63   S    
C141  H87   S    
N5    H85   S    
C44   C64   S    
C138  H76   S    
C64   H16   S    
O4    Zn4   S    
C134  N2    S    
O29   Zn5   S    
C26   C50   S    
C29   C33   S    
C100  C104  A    
O33   Zn9   S    
C9    C13   A    
C11   C15   A    
C36   H12   S    
C87   H31   S    
C12   C16   A    
C88   H32   S    
C64   F4    S    
C139  H79   S    
C135  N3    S    
C22   H54   S    
C122  O42   A    
C13   C125  A    
O2    Zn2   S    
C98   C109  S    
O37   Zn5   S    
C101  C105  A    
C130  C134  A    
O51   Zn3   S    
C30   H66   S    
C120  O48   A    
C133  N1    S    
C118  O46   A    
C25   C41   S    
C98   C102  A    
O27   Zn3   S    
C28   C44   S    
C17   C21   S    
C19   C23   S    
C6    C10   A    
C78   C82   A    
O5    Zn1   S    
C141  H86   S    
C16   C20   S    
C115  O11   A    
C57   C61   S    
C23   F19   S    
C129  C133  A    
C105  H41   S    
O1    Zn9   S    
C34   C54   S    
O2    Zn14  S    
C10   C14   A    
C58   H26   S    
O47   Zn11  S    
C29   H1    S    
C2    O22   A    
C95   F7    S    
C47   O19   A    
C43   C71   S    
C62   H14   S    
C107  H43   S    
C84   C88   A    
C91   C103  S    
O42   Zn14  S    
C136  N4    S    
C14   C126  A    
C121  O49   A    
C59   C63   S    
C46   O18   A    
C60   C64   S    
C33   H5    S    
C36   H8    S    
C85   H29   S    
C79   C96   S    
N3    C139  S    
C51   H59   S    
O22   Zn14  S    
C115  O35   A    
C34   H10   S    
C18   H46   S    
C49   C53   S    
C93   H37   S    
C44   C72   S    
C51   C55   S    
N2    C138  S    
C127  C131  A    
O17   Zn9   S    
C92   C104  S    
C12   C117  S    
C125  C129  A    
C57   H25   S    
C100  C111  S    
C144  H98   S    
C2    O14   A    
C103  C107  A    
O45   Zn9   S    
C20   C24   S    
C52   H24   S    
N8    C144  S    
C114  O10   A    
C111  C112  S    
C109  F9    S    
C97   C98   A    
C85   C86   A    
C50   H22   S    
C5    C9    A    
C31   C43   S    
C32   C36   S    
N4    C140  S    
O18   Zn10  S    
N7    C143  S    
C91   O31   A    
C77   C94   S    
C42   C70   S    
O10   Zn14  S    
C111  F11   S    
C90   C102  S    
C95   H39   S    
C10   C119  S    
O3    Zn15  S    
O4    Zn16  S    
C37   C65   T    
C107  C108  A    
C53   C65   S    
C42   C62   S    
C8    C12   A    
C114  O34   A    
C24   F20   S    
C84   C116  S    
C49   H21   S    
O39   Zn7   S    
C27   C51   S    
C142  H91   S    
C61   F1    S    
C30   C34   S    
C83   C115  S    
O34   Zn10  S    
C137  H72   S    
C27   H63   S    
C91   O7    A    
O24   Zn16  S    
C89   O5    A    
C48   O20   A    
C94   F6    S    
C56   C68   S    
C124  O44   A    
C70   C74   T    
C140  H82   S    
C119  O47   A    
C20   H52   S    
C21   H53   S    
C132  C136  A    
C144  H100  S    
O3    Zn3   S    
O38   Zn6   S    
C24   H56   S    
C80   C95   S    
C40   C68   T    
C92   O8    A    
C26   C42   S    
C96   F8    S    
C6    H34   S    
C143  H96   S    
O31   Zn7   S    
C29   C41   S    
C18   C22   S    
O20   Zn12  S    
C54   C66   S    
C138  H75   S    
C63   F3    S    
C20   H48   S    
C45   O17   A    
C47   C75   S    
C110  F14   S    
O1    Zn5   S    
C62   F2    S    
O2    Zn10  S    
N1    C137  S    
C26   H62   S    
C59   H27   S    
C17   H45   S    
O30   Zn6   S    
C27   N7    S    
C24   C128  S    
C9    C120  S    
C15   C127  A    
C11   C118  S    
C106  H42   S    
C81   C85   A    
C118  O38   A    
C58   C62   S    
C83   C87   A    
C87   C88   A    
C7    H35   S    
C8    C136  A    
C137  H70   S    
C86   H30   S    
C80   C84   A    
C77   C78   A    
C15   C19   S    
C50   C54   S    
C21   F17   S    
C32   H4    S    
C140  H84   S    
C126  C130  A    
C48   C76   S    
C58   H18   S    
C19   H51   S    
O48   Zn12  S    
C17   H49   S    
C4    O16   A    
N2    H73   S    
C69   C73   T    
O40   Zn8   S    
C123  O51   A    
C124  O52   A    
C121  O41   A    
C143  H94   S    
C46   O26   A    
C39   C67   T    
C141  H88   S    
N5    C141  S    
C29   H65   S    
N6    H89   S    
C28   N8    S    
C111  F15   S    
O15   Zn7   S    
O46   Zn10  S    
C117  O45   A    
O4    Zn12  S    
C57   H17   S    
O8    Zn4   S    
C56   C60   S    
C32   H68   S    
C5    C133  A    
C60   H20   S    
N3    H77   S    
C36   C56   S    
O43   Zn15  S    
C55   C67   S    
C139  H78   S    
O44   Zn16  S    
C77   C81   A    
O13   Zn5   S    
C139  H80   S    
O35   Zn11  S    
C63   H15   S    
C22   F18   S    
O32   Zn8   S    
C31   C35   S    
C21   C125  S    
C3    O23   A    
C104  C108  A    
C112  F16   S    
C23   C127  S    
C1    O21   A    
C34   H6    S    
C53   C57   S    
C96   H40   S    
C123  C131  S    
C121  C129  S    
C122  O50   A    
C13   C17   S    
O6    Zn2   S    
O3    Zn7   S    
C105  C106  A    
O4    Zn8   S    
C82   C86   A    
C109  C110  S    
C79   C83   A    
C50   H58   S    
N7    H93   S    
C92   O32   A    
C4    O24   A    
C25   C49   S    
N8    H97   S    
C27   C43   S    
C4    C37   S    
C3    O15   A    
O28   Zn4   S    
C81   C113  S    
C5    H33   S    
C30   C42   S    
C1    O13   A    
C8    H36   S    
C35   H7    S    
O25   Zn1   S    
C71   C75   T    
C93   C94   S    
C14   C18   S    
C95   C96   S    
C113  O9    A    
C110  F10   S    
C23   H55   S    
O1    Zn1   S    
C142  H90   S    
C7    C11   A    
O2    Zn6   S    
C124  C132  S    
C28   H64   S    
C89   C101  S    
C137  H71   S    
C131  C135  A    
C22   C126  S    
C47   O27   A    
O50   Zn2   S    
C78   C93   S    
C89   O29   A    
O36   Zn12  S    
C25   N5    S    
C90   O30   A    
C45   C73   S    
C120  O40   A    
C1    C40   S    
C60   H28   S    
C2    C39   S    
C38   C66   T    
C3    C38   S    
C144  H99   S    
C31   H67   S    
C140  H83   S    
C113  O33   A    
C26   N6    S    
O16   Zn8   S    
C45   O25   A    
C128  C132  A    
C33   C53   S    
O1    Zn13  S    
C143  H95   S    
C35   C55   S    
O26   Zn2   S    
C82   C114  S    
C19   H47   S    
C90   O6    A    
C59   H19   S    
C138  H74   S    
C18   H50   S    
N6    C142  S    
O41   Zn13  S    
C7    C135  A    
O49   Zn1   S    
C99   C100  A    
O21   Zn13  S    
N1    H69   S    
C32   C44   S    
C72   C76   T    
C35   H11   S    
C16   C128  A    
C33   H9    S    
C94   H38   S    
O23   Zn15  S    
O14   Zn6   S    
O52   Zn4   S    
C31   H3    S    
C46   C74   S    
C108  H44   S    
C54   C58   S    
C142  H92   S    
O19   Zn11  S    
C93   F5    S    
C61   H13   S    
C116  O36   A    
C6    C134  A    
C123  O43   A    
C97   C110  S    
C28   C52   S    
C49   H57   S    
C99   C112  S    
C51   H23   S    
O12   Zn16  S    
C102  C106  A    
C109  F13   S    
C25   H61   S    
C112  F12   S    
C79   C80   A    
C48   O28   A    
O9    Zn13  S    
O11   Zn15  S    
C41   C69   S    
C119  O39   A    
C122  C130  S    
C97   C101  A    
C52   C56   S    
C117  O37   A    
