data_mof_unit_44456.cif
_audit_creation_date              2012-12-10T19:55:06-0500
_audit_creation_method            fapswitch 2.2
_symmetry_space_group_name_H-M    P1
_symmetry_Int_Tables_number       1
_space_group_crystal_system       triclinic
_cell_length_a                    14.180277
_cell_length_b                    14.755476
_cell_length_c                    16.408599
_cell_angle_alpha                 91.12537
_cell_angle_beta                  84.216644
_cell_angle_gamma                 90.056139
_cell_volume                      3415.14580193

loop_
_atom_site_label
_atom_site_type_symbol
_atom_type_description
_atom_site_fract_x
_atom_site_fract_y
_atom_site_fract_z
_atom_type_partial_charge
C1    C     C_R   0.499085 0.673081 0.505337 0.956627
C2    C     C_R   0.499653 0.327354 0.503314 0.966490
C3    C     C_R   0.408090 0.900909 0.585369 0.451626
C4    C     C_R   0.540333 0.107832 0.604757 0.440550
C5    C     C_R   0.410425 0.808730 0.565097 0.428818
C6    C     C_R   0.551947 0.198515 0.581464 0.383618
C7    C     C_R   0.495272 0.769009 0.527829 -0.334367
C8    C     C_R   0.496997 0.232374 0.521897 -0.287069
C9    C     C_R   0.578591 0.819804 0.518037 -0.395535
C10   C     C_R   0.433938 0.177044 0.484309 -0.419741
C11   C     C_R   0.576779 0.911991 0.536269 0.535658
C12   C     C_R   0.429315 0.085454 0.500892 0.539585
C13   C     C_R   0.490650 0.953141 0.567295 -0.111773
C14   C     C_R   0.483199 0.050846 0.560867 -0.123070
C15   C     C_R   0.893778 0.574968 0.528641 -0.181525
C16   C     C_R   0.108798 0.496403 0.429966 -0.182582
C17   C     C_R   0.793707 0.574902 0.527374 0.614680
C18   C     C_R   0.208988 0.495054 0.428481 0.623467
C19   C     C_R   0.797277 0.422548 0.479289 -0.104168
C20   C     C_R   0.197799 0.496840 0.573338 -0.090323
C21   C     C_R   0.895306 0.417698 0.485633 -0.309685
C22   C     C_R   0.098257 0.491047 0.577164 -0.297036
C23   C     C_R   0.485826 0.496934 0.653769 0.837082
C24   C     C_R   0.514195 0.496911 0.346039 0.852318
C25   C     C_R   0.945468 0.494451 0.509167 0.058896
C26   C     C_R   0.052101 0.492349 0.505321 0.058817
C27   C     C_R   0.473794 0.466431 0.737171 -0.008541
C28   C     C_R   0.526241 0.468464 0.260801 -0.040633
C29   C     C_R   0.520502 0.509305 0.797337 -0.234756
C30   C     C_R   0.470995 0.505698 0.204799 -0.204503
C31   C     C_R   0.511867 0.474946 0.875534 -0.153546
C32   C     C_R   0.477945 0.471274 0.125371 -0.176528
C33   C     C_R   0.461459 0.393918 0.893442 0.093837
C34   C     C_R   0.535942 0.395505 0.101962 0.089905
C35   C     C_R   0.410892 0.351946 0.832899 0.006045
C36   C     C_R   0.594513 0.359514 0.158295 0.015552
C37   C     C_R   0.417927 0.389470 0.754960 -0.216859
C38   C     C_R   0.589287 0.397308 0.237279 -0.257987
C39   C     C_2   0.458515 0.360349 0.978107 -0.111479
C40   C     C_2   0.540258 0.362739 0.015653 -0.108833
H1    H     H_    0.562557 0.569556 0.784018 0.119758
H2    H     H_    0.422980 0.561357 0.222460 0.167988
H3    H     H_    0.760825 0.363492 0.458479 0.151635
H4    H     H_    0.231141 0.497227 0.629716 0.148316
H5    H     H_    0.932326 0.354618 0.470157 0.151401
H6    H     H_    0.057326 0.486994 0.636320 0.146342
H7    H     H_    0.631954 0.368635 0.281678 0.149487
H8    H     H_    0.382238 0.356694 0.706878 0.146938
H9    H     H_    0.437452 0.504166 0.081854 0.143616
H10   H     H_    0.545701 0.511586 0.922450 0.136580
H11   H     H_    0.644866 0.788968 0.493208 0.247234
H12   H     H_    0.390394 0.204363 0.439959 0.188864
N1    N     N_R   0.747530 0.500020 0.500000 -0.123536
N2    N     N_R   0.252470 0.499980 0.500000 -0.122441
O1    O     O_R   0.420520 0.630930 0.499990 -0.554882
O2    O     O_R   0.579480 0.369070 0.500010 -0.594979
O3    O     O_R   0.579480 0.630940 0.499990 -0.567981
O4    O     O_R   0.420520 0.369060 0.500010 -0.637351
O5    O     O_R   0.411130 0.500010 0.615800 -0.645197
O6    O     O_R   0.588870 0.499990 0.384200 -0.624831
O7    O     O_R   0.570080 0.500020 0.615800 -0.588908
O8    O     O_R   0.429920 0.499980 0.384200 -0.554644
Zn1   Zn    Zn3+2 0.393860 0.499990 0.500000 0.975422
Zn2   Zn    Zn3+2 0.606140 0.500010 0.500000 0.976919
C41   C     C_R   0.943862 0.660751 0.543989 0.177757
C42   C     C_R   0.983073 0.676471 0.618222 -0.175774
C43   C     C_R   0.034093 0.755901 0.630400 -0.126109
C44   C     C_R   0.045500 0.820380 0.568925 -0.041233
C45   C     C_R   0.005312 0.805787 0.495405 -0.149822
C46   C     C_R   0.954442 0.726323 0.482952 -0.118927
H13   H     H_    0.973932 0.627439 0.666570 0.111072
H14   H     H_    0.064834 0.767451 0.687461 0.122809
H15   H     H_    0.085253 0.881714 0.578348 0.159395
H16   H     H_    0.013961 0.855847 0.447904 0.132635
H17   H     H_    0.924393 0.715284 0.425445 0.126733
C47   C     C_R   0.065141 0.506675 0.352336 0.186309
C48   C     C_R   0.024727 0.432095 0.314327 -0.148352
C49   C     C_R   0.983562 0.442933 0.241231 -0.149100
C50   C     C_R   0.983079 0.527987 0.205327 -0.113707
C51   C     C_R   0.023933 0.602342 0.242461 -0.156804
C52   C     C_R   0.065094 0.591769 0.315639 -0.113920
H18   H     H_    0.025857 0.365558 0.340797 0.104981
H19   H     H_    0.952558 0.385265 0.212190 0.112933
H20   H     H_    0.951353 0.536182 0.148625 0.115277
H21   H     H_    0.023747 0.668170 0.214531 0.123295
H22   H     H_    0.096575 0.649819 0.343896 0.131534
O9    O     O_3   0.742589 0.652168 0.550811 -0.600686
C53   C     C_3   0.726672 0.656628 0.637149 -0.289686
H23   H     H_    0.664462 0.700975 0.654544 0.186053
H24   H     H_    0.788322 0.687749 0.663500 0.160434
H25   H     H_    0.710849 0.589469 0.665285 0.154116
O10   O     O_3   0.262305 0.489625 0.353507 -0.595488
C54   C     C_3   0.272915 0.397147 0.330267 -0.284914
H26   H     H_    0.317230 0.392181 0.270703 0.206752
H27   H     H_    0.203909 0.364714 0.321539 0.134605
H28   H     H_    0.309411 0.358657 0.375575 0.168312
C55   C     C_R   0.635629 0.356834 0.966951 0.162172
C56   C     C_R   0.706935 0.420651 0.979587 -0.163518
C57   C     C_R   0.795715 0.414608 0.934303 -0.142945
C58   C     C_R   0.814313 0.345214 0.875805 -0.112795
C59   C     C_R   0.744218 0.281589 0.862626 -0.120808
C60   C     C_R   0.655508 0.287141 0.908012 -0.101693
H29   H     H_    0.693740 0.475452 0.024112 0.124253
H30   H     H_    0.850077 0.463911 0.944476 0.118118
H31   H     H_    0.883056 0.340717 0.840726 0.115108
H32   H     H_    0.758681 0.227691 0.817393 0.128890
H33   H     H_    0.603010 0.236431 0.897720 0.099002
C61   C     C_R   0.363606 0.347219 0.025709 0.163257
C62   C     C_R   0.286474 0.403854 0.013666 -0.167443
C63   C     C_R   0.198428 0.391510 0.058640 -0.113585
C64   C     C_R   0.186210 0.322517 0.115772 -0.094944
C65   C     C_R   0.261953 0.265710 0.128021 -0.171270
C66   C     C_R   0.350092 0.277817 0.083264 -0.118281
H34   H     H_    0.294607 0.458258 0.970206 0.120905
H35   H     H_    0.139659 0.435586 0.049300 0.123094
H36   H     H_    0.118048 0.312896 0.150453 0.118155
H37   H     H_    0.252363 0.212142 0.172208 0.122741
H38   H     H_    0.407391 0.232503 0.093016 0.108317
C67   C     C_R   0.348917 0.271355 0.848492 0.123991
C68   C     C_R   0.382032 0.192799 0.883566 -0.161175
C69   C     C_R   0.322905 0.117578 0.896916 -0.156473
C70   C     C_R   0.230207 0.119825 0.875307 -0.121152
C71   C     C_R   0.196470 0.197341 0.840288 -0.124398
C72   C     C_R   0.255406 0.272688 0.826791 -0.155689
H39   H     H_    0.453414 0.189179 0.900432 0.108750
H40   H     H_    0.349127 0.057395 0.923844 0.119584
H41   H     H_    0.184583 0.061460 0.885573 0.114375
H42   H     H_    0.124579 0.199096 0.823603 0.122430
H43   H     H_    0.227806 0.332422 0.800037 0.115162
C73   C     C_R   0.663337 0.285087 0.136524 0.124356
C74   C     C_R   0.633864 0.201147 0.106134 -0.154427
C75   C     C_R   0.700130 0.132771 0.083637 -0.144904
C76   C     C_R   0.796132 0.147367 0.091764 -0.102713
C77   C     C_R   0.826005 0.230242 0.122767 -0.134239
C78   C     C_R   0.759958 0.298760 0.145367 -0.156587
H44   H     H_    0.560009 0.188602 0.099495 0.108406
H45   H     H_    0.677036 0.068475 0.059770 0.118875
H46   H     H_    0.847351 0.094428 0.074125 0.115354
H47   H     H_    0.900398 0.241513 0.128975 0.114464
H48   H     H_    0.784234 0.363085 0.168349 0.122687
O11   O     O_3   0.320952 0.939873 0.611581 -0.540060
C79   C     C_3   0.322535 0.979462 0.690461 -0.312513
H49   H     H_    0.342143 0.052079 0.685554 0.181600
H50   H     H_    0.369953 0.943495 0.729474 0.120355
H51   H     H_    0.249834 0.976665 0.722346 0.182684
O12   O     O_3   0.592604 0.071746 0.663272 -0.564279
C80   C     C_3   0.552540 0.099703 0.741842 -0.336037
H52   H     H_    0.479523 0.073069 0.754829 0.150151
H53   H     H_    0.552789 0.174647 0.750087 0.202730
H54   H     H_    0.595747 0.071403 0.788007 0.180705
O13   O     O_3   0.327300 0.759318 0.576835 -0.542004
C81   C     C_3   0.318285 0.726014 0.657238 -0.253948
H55   H     H_    0.381008 0.684964 0.669478 0.124973
H56   H     H_    0.255322 0.681127 0.664592 0.178811
H57   H     H_    0.306694 0.782102 0.703344 0.147066
O14   O     O_3   0.610020 0.256505 0.621272 -0.598758
C82   C     C_3   0.705829 0.234824 0.597081 -0.210081
H58   H     H_    0.750237 0.292981 0.613552 0.169948
H59   H     H_    0.719991 0.222542 0.529716 0.128793
H60   H     H_    0.728669 0.175406 0.630561 0.204812
O15   O     O_3   0.659717 0.961843 0.524861 -0.551240
C83   C     C_3   0.678994 0.981546 0.441093 -0.347754
H61   H     H_    0.624219 0.027433 0.420773 0.145296
H62   H     H_    0.685532 0.918976 0.401946 0.157343
H63   H     H_    0.747789 0.017681 0.432368 0.191975
O16   O     O_3   0.368743 0.030420 0.461040 -0.550960
C84   C     C_3   0.412786 0.006616 0.382682 -0.337372
H64   H     H_    0.475792 0.962996 0.387349 0.149008
H65   H     H_    0.432618 0.067337 0.345549 0.147854
H66   H     H_    0.361868 0.966574 0.349625 0.198239

loop_
_geom_bond_atom_site_label_1
_geom_bond_atom_site_label_2
_ccdc_geom_bond_type
O9    C53   S    
C54   H26   S    
C76   C77   A    
C27   C29   A    
C11   C13   A    
C53   H24   S    
C35   C67   S    
C64   C65   A    
C3    O11   S    
C10   H12   S    
C55   C56   A    
C71   C72   A    
C84   H65   S    
C48   C49   A    
C23   O5    A    
C58   H31   S    
C33   C39   S    
C34   C40   S    
O14   C82   S    
C80   H53   S    
O12   C80   S    
C1    O3    A    
C12   O16   S    
C50   H20   S    
N1    Zn2   S    
C15   C25   A    
C54   H27   S    
N2    Zn1   S    
C41   C46   A    
C15   C41   S    
C11   O15   S    
C61   C62   A    
C7    C9    A    
C43   H14   S    
C70   H41   S    
C63   C64   A    
O10   C54   S    
C1    C7    S    
C49   H19   S    
C82   H58   S    
C80   H52   S    
C75   C76   A    
O1    Zn1   S    
O13   C81   S    
O2    Zn2   S    
C64   H36   S    
C23   C27   S    
C21   H5    S    
C55   C60   A    
C3    C13   A    
C29   H1    S    
C19   N1    A    
C42   C43   A    
C76   H46   S    
C82   H59   S    
C17   O9    S    
C13   C14   S    
C4    C14   A    
C79   H51   S    
C78   H48   S    
C65   C66   A    
C20   H4    S    
C19   H3    S    
O15   C83   S    
C84   H66   S    
C83   H62   S    
C16   C26   A    
C39   C61   S    
C43   C44   A    
C59   C60   A    
C24   C28   S    
C60   H33   S    
C80   H54   S    
C47   C48   A    
C4    C6    A    
C74   H44   S    
C77   H47   S    
C5    C7    A    
C68   H39   S    
C44   C45   A    
C6    C8    A    
C75   H45   S    
C67   C72   A    
C66   H38   S    
C32   C34   A    
C61   C66   A    
O7    Zn2   S    
C51   H21   S    
C36   C73   S    
C83   H63   S    
C42   H13   S    
C53   H25   S    
C28   C38   A    
C24   O6    A    
C4    O12   S    
O8    Zn1   S    
C31   C33   A    
C69   C70   A    
C45   H16   S    
C25   C26   S    
C53   H23   S    
C37   H8    S    
O4    Zn1   S    
C9    C11   A    
C38   H7    S    
C10   C12   A    
C62   H34   S    
C81   H57   S    
C20   N2    A    
C22   H6    S    
C73   C78   A    
C12   C14   A    
C56   C57   A    
C54   H28   S    
O16   C84   S    
C79   H50   S    
C20   C22   A    
C31   H10   S    
C74   C75   A    
C17   N1    A    
C84   H64   S    
C68   C69   A    
O3    Zn2   S    
C83   H61   S    
C59   H32   S    
C15   C17   A    
C21   C25   A    
C24   O8    A    
C35   C37   A    
C16   C47   S    
C16   C18   A    
C2    C8    S    
C52   H22   S    
C81   H56   S    
C51   C52   A    
C3    C5    A    
C47   C52   A    
C67   C68   A    
C2    O4    A    
C77   C78   A    
C82   H60   S    
O5    Zn1   S    
C5    O13   S    
C57   C58   A    
O6    Zn2   S    
C18   O10   S    
C9    H11   S    
C28   C30   A    
C73   C74   A    
C44   H15   S    
C69   H40   S    
C29   C31   A    
C2    O2    A    
C62   C63   A    
C30   C32   A    
C49   C50   A    
C71   H42   S    
C65   H37   S    
C48   H18   S    
C27   C37   A    
C36   C38   A    
C58   C59   A    
C33   C35   A    
C72   H43   S    
C57   H30   S    
C34   C36   A    
C1    O1    A    
C45   C46   A    
C32   H9    S    
C18   N2    A    
C50   C51   A    
C39   C40   D    
C23   O7    A    
C40   C55   S    
C81   H55   S    
C8    C10   A    
C41   C42   A    
C22   C26   A    
C46   H17   S    
C79   H49   S    
C30   H2    S    
C70   C71   A    
O11   C79   S    
C63   H35   S    
C6    O14   S    
C56   H29   S    
C19   C21   A    
