data_mof_unit_48988.cif
_audit_creation_date              2012-10-26T18:50:00-0400
_audit_creation_method            fapswitch 2.2
_symmetry_space_group_name_H-M    P1
_symmetry_Int_Tables_number       1
_space_group_crystal_system       triclinic
_cell_length_a                    10.778581
_cell_length_b                    13.068057
_cell_length_c                    11.703827
_cell_angle_alpha                 98.384443
_cell_angle_beta                  92.225146
_cell_angle_gamma                 90.809953
_cell_volume                      1629.367558

loop_
_atom_site_label
_atom_site_type_symbol
_atom_type_description
_atom_site_fract_x
_atom_site_fract_y
_atom_site_fract_z
_atom_type_partial_charge
C1    C     C_R   0.502585 0.299537 0.480172 0.588538
C2    C     C_R   0.568716 0.867611 0.465783 0.254930
C3    C     C_R   0.466728 0.025705 0.541196 -0.014472
C4    C     C_R   0.547980 0.972775 0.463025 0.004952
C5    C     C_R   0.367077 0.417584 0.031068 -0.188938
C6    C     C_R   0.629967 0.584905 0.969174 -0.176586
C7    C     C_R   0.383127 0.422491 0.150818 0.041013
C8    C     C_R   0.616133 0.578089 0.849280 0.040167
C9    C     C_R   0.557145 0.535882 0.152499 0.125459
C10   C     C_R   0.440276 0.466030 0.847262 0.105250
C11   C     C_R   0.546838 0.531074 0.030756 -0.012457
C12   C     C_R   0.500259 0.700049 0.520206 0.567394
C13   C     C_R   0.450218 0.471002 0.969129 -0.020647
C14   C     C_R   0.262881 0.514170 0.502982 0.559715
C15   C     C_R   0.737500 0.487222 0.497028 0.534418
C16   C     C_R   0.116971 0.546357 0.721459 -0.068884
C17   C     C_R   0.883326 0.454609 0.279205 -0.069136
C18   C     C_R   0.060793 0.517127 0.817352 -0.131683
C19   C     C_R   0.938206 0.483215 0.182508 -0.131598
C20   C     C_R   0.955890 0.452931 0.801728 -0.120400
C21   C     C_R   0.043365 0.547162 0.196508 -0.120886
C22   C     C_R   0.899374 0.427484 0.691616 0.037414
C23   C     C_R   0.491336 0.812140 0.530571 0.008736
C24   C     C_R   0.101700 0.573514 0.305864 0.021475
C25   C     C_R   0.943870 0.472665 0.597352 -0.002720
C26   C     C_R   0.056749 0.530935 0.402105 -0.010918
C27   C     C_R   0.064014 0.517565 0.608730 0.000428
C28   C     C_R   0.936375 0.485939 0.391319 0.004675
C29   C     C_R   0.873961 0.472054 0.492291 -0.040055
C30   C     C_R   0.126774 0.531443 0.507601 -0.039503
C31   C     C_1   0.813669 0.340407 0.672556 0.215561
C32   C     C_1   0.193967 0.656095 0.319463 0.202101
C33   C     C_3   0.765545 0.811406 0.497325 0.020553
C34   C     C_R   0.516389 0.186913 0.471944 0.016718
C35   C     C_3   0.892712 0.829840 0.449346 -0.254934
C36   C     C_3   0.997607 0.815377 0.536648 -0.464462
C37   C     C_3   0.499285 0.186515 0.750320 0.032816
C38   C     C_3   0.431698 0.161853 0.856131 -0.287029
C39   C     C_3   0.517470 0.178038 0.964484 -0.460754
C40   C     C_1   0.320804 0.813186 0.670149 0.202800
C41   C     C_1   0.647556 0.181301 0.298912 0.211789
C42   C     C_1   0.343416 0.402634 0.782853 0.247817
C43   C     C_1   0.652592 0.600557 0.215999 0.267655
C44   C     C_R   0.608880 0.026499 0.385786 -0.126605
C45   C     C_R   0.392565 0.970893 0.607499 -0.145628
C46   C     C_R   0.588085 0.131671 0.385370 -0.074214
C47   C     C_R   0.402712 0.864718 0.601469 -0.071655
C48   C     C_R   0.464075 0.133680 0.555685 0.256410
Cu1   Cu    Cu3+1 0.509250 0.507730 0.615930 0.979462
Cu2   Cu    Cu3+1 0.490750 0.492270 0.384070 0.998181
H1    H     H_    0.078438 0.577236 0.122231 0.109880
H2    H     H_    0.323454 0.010429 0.661530 0.163977
H3    H     H_    0.680502 0.619581 0.803202 0.134961
H4    H     H_    0.319307 0.380508 0.196904 0.141517
H5    H     H_    0.760798 0.731383 0.518914 0.158174
H6    H     H_    0.757961 0.866777 0.579109 0.108659
H7    H     H_    0.905495 0.775103 0.369006 0.202942
H8    H     H_    0.898181 0.909901 0.428059 0.170849
H9    H     H_    0.088475 0.828656 0.499183 0.173906
H10   H     H_    0.989680 0.871455 0.616890 0.160830
H11   H     H_    0.994487 0.735489 0.558410 0.160182
H12   H     H_    0.920962 0.420701 0.874709 0.104399
H13   H     H_    0.542281 0.264944 0.771335 0.183135
H14   H     H_    0.576782 0.130811 0.735036 0.133856
H15   H     H_    0.349815 0.211711 0.870690 0.184114
H16   H     H_    0.398351 0.080153 0.841687 0.160854
H17   H     H_    0.596458 0.124248 0.954068 0.163964
H18   H     H_    0.465069 0.162633 0.040230 0.166997
H19   H     H_    0.554348 0.258836 0.981322 0.166363
H20   H     H_    0.289910 0.371701 0.988067 0.099384
H21   H     H_    0.706028 0.632046 0.012507 0.108189
H22   H     H_    0.202131 0.590894 0.737278 0.175489
H23   H     H_    0.800215 0.406785 0.264921 0.168277
H24   H     H_    0.104065 0.537983 0.902749 0.110182
H25   H     H_    0.894945 0.460583 0.097377 0.106978
H26   H     H_    0.669392 0.986015 0.323123 0.170098
N1    N     N_R   0.523180 0.519350 0.790130 -0.248745
N2    N     N_R   0.476820 0.480650 0.209870 -0.245455
N3    N     N_1   0.747230 0.269147 0.656544 -0.347287
N4    N     N_1   0.266484 0.723234 0.329373 -0.294062
N5    N     N_1   0.254368 0.774012 0.726500 -0.338315
N6    N     N_1   0.695033 0.220341 0.229012 -0.332483
N7    N     N_1   0.264864 0.351353 0.732751 -0.247132
N8    N     N_1   0.731213 0.652544 0.264168 -0.270229
O1    O     O_R   0.506570 0.354460 0.582000 -0.457096
O2    O     O_3   0.413930 0.186373 0.654138 -0.545872
O3    O     O_R   0.493430 0.645540 0.418000 -0.451752
O4    O     O_R   0.490940 0.341410 0.386200 -0.513155
O5    O     O_R   0.509060 0.658590 0.613800 -0.522649
O6    O     O_R   0.327470 0.506520 0.597900 -0.499523
O7    O     O_R   0.672530 0.493480 0.402100 -0.507178
O8    O     O_R   0.311840 0.493460 0.402100 -0.508451
O9    O     O_R   0.688160 0.506540 0.597900 -0.519296
O10   O     O_3   0.670773 0.822304 0.412403 -0.551733

loop_
_geom_bond_atom_site_label_1
_geom_bond_atom_site_label_2
_ccdc_geom_bond_type
C33   H5    S    
C40   C47   S    
C10   C42   S    
C39   H18   S    
C35   C36   S    
C16   H22   S    
Cu1   O6    S    
C36   H9    S    
C33   O10   S    
C12   C23   S    
C37   C38   S    
C35   H8    S    
C28   C29   A    
C19   C21   A    
C24   C26   A    
C38   C39   S    
C3    C48   A    
C44   H26   S    
C14   O6    A    
C17   C19   A    
C38   H16   S    
C22   C25   A    
C41   C46   S    
C34   C46   A    
C5    C13   A    
Cu2   O4    S    
C1    O4    A    
C18   H24   S    
C27   C30   A    
C17   H23   S    
C43   N8    T    
C14   C30   S    
Cu2   N2    S    
C37   H13   S    
C10   N1    A    
C44   C46   A    
C1    C34   S    
C15   C29   S    
C45   C47   A    
C25   C29   A    
C6    H21   S    
C9    C43   S    
C23   C47   A    
C22   C31   S    
Cu1   O1    S    
C12   O5    A    
C2    O10   S    
C6    C11   A    
C5    C7    A    
C6    C8    A    
C4    C44   A    
C45   H2    S    
C3    C45   A    
C2    C4    A    
C24   C32   S    
C5    H20   S    
C32   N4    T    
C37   O2    S    
C38   H15   S    
C39   H19   S    
C9    C11   A    
C14   O8    A    
Cu2   O3    S    
C7    N2    A    
Cu2   O8    S    
C20   C22   A    
C26   C30   A    
C8    N1    A    
C48   O2    S    
C1    O1    A    
C34   C48   A    
C3    C4    A    
C21   H1    S    
C37   H14   S    
C12   O3    A    
C17   C28   A    
C39   H17   S    
C40   N5    T    
C42   N7    T    
Cu1   O5    S    
C36   H10   S    
C10   C13   A    
C8    H3    S    
C15   O9    A    
C31   N3    T    
C25   C27   A    
C26   C28   A    
C35   H7    S    
C19   H25   S    
C11   C13   A    
C33   H6    S    
C16   C27   A    
C41   N6    T    
C33   C35   S    
Cu1   N1    S    
C18   C20   A    
C9    N2    A    
C20   H12   S    
C15   O7    A    
Cu2   O7    S    
C16   C18   A    
Cu1   Cu2   S    
C21   C24   A    
C2    C23   A    
C7    H4    S    
Cu1   O9    S    
C36   H11   S    
