data_mof_unit_15792.cif
_audit_creation_date              2012-12-10T17:01:13-0500
_audit_creation_method            fapswitch 2.2
_symmetry_space_group_name_H-M    P1
_symmetry_Int_Tables_number       1
_space_group_crystal_system       triclinic
_cell_length_a                    15.632318
_cell_length_b                    15.531294
_cell_length_c                    9.953618
_cell_angle_alpha                 89.954419
_cell_angle_beta                  60.717301
_cell_angle_gamma                 90.040869
_cell_volume                      2107.83230896

loop_
_atom_site_label
_atom_site_type_symbol
_atom_type_description
_atom_site_fract_x
_atom_site_fract_y
_atom_site_fract_z
_atom_type_partial_charge
C1    C     C_R   0.374403 0.120078 0.558594 0.813714
C2    C     C_R   0.630413 0.885625 0.438524 0.861913
C3    C     C_R   0.625600 0.120129 0.441325 0.806364
C4    C     C_R   0.369103 0.886044 0.561664 0.770824
C5    C     C_R   0.875760 0.620975 0.558003 0.783868
C6    C     C_R   0.131128 0.386032 0.438470 0.877509
C7    C     C_R   0.124815 0.620640 0.441637 0.782308
C8    C     C_R   0.868847 0.386017 0.561632 0.873444
C9    C     C_2   0.510866 0.010656 0.917868 -0.006160
C10   C     C_2   0.488960 0.011611 0.082575 -0.003235
C11   C     C_2   0.011004 0.488021 0.917135 0.020387
C12   C     C_2   0.988887 0.488346 0.083076 0.021891
C13   C     C_2   0.276552 0.847042 0.595930 -0.214897
C14   C     C_2   0.699016 0.186232 0.418198 -0.178837
C15   C     C_2   0.722132 0.845446 0.403985 -0.155832
C16   C     C_2   0.300949 0.186013 0.581627 -0.178769
C17   C     C_2   0.775067 0.349024 0.595506 -0.146353
C18   C     C_2   0.196903 0.687841 0.418184 -0.149788
C19   C     C_2   0.224904 0.349171 0.404786 -0.176704
C20   C     C_2   0.805044 0.689203 0.581107 -0.189578
C21   C     C_2   0.274464 0.765601 0.548812 -0.101764
C22   C     C_2   0.685441 0.234500 0.542701 -0.019969
C23   C     C_2   0.723643 0.764818 0.455613 -0.067291
C24   C     C_2   0.314610 0.234553 0.457217 -0.021732
C25   C     C_2   0.769631 0.265749 0.558772 -0.097798
C26   C     C_2   0.187288 0.732153 0.544242 0.055183
C27   C     C_2   0.230449 0.265777 0.441033 -0.095711
C28   C     C_2   0.812295 0.731520 0.454772 -0.039752
Cu1   Cu    Cu3+1 0.522650 1.000000 0.349410 1.051178
Cu2   Cu    Cu3+1 0.477350 1.000000 0.650590 1.067451
Cu3   Cu    Cu3+1 0.022650 0.500000 0.349410 1.038253
Cu4   Cu    Cu3+1 0.977350 0.500000 0.650590 1.042844
N1    N     N_2   0.443290 1.000000 0.876860 -0.283519
N2    N     N_2   0.556710 1.000000 0.123140 -0.289631
N3    N     N_2   0.943290 0.500000 0.876860 -0.268492
N4    N     N_2   0.056710 0.500000 0.123140 -0.275643
O1    O     O_R   0.422430 0.089640 0.419570 -0.579265
O2    O     O_R   0.577570 0.910360 0.580430 -0.479199
O3    O     O_R   0.577570 0.089640 0.580430 -0.588204
O4    O     O_R   0.422430 0.910360 0.419570 -0.504612
O5    O     O_R   0.922430 0.589640 0.419570 -0.618746
O6    O     O_R   0.077570 0.410360 0.580430 -0.585082
O7    O     O_R   0.077570 0.589640 0.580430 -0.611022
O8    O     O_R   0.922430 0.410360 0.419570 -0.582218
O9    O     O_R   0.384170 0.089650 0.673910 -0.561083
O10   O     O_R   0.615830 0.910350 0.326090 -0.609442
O11   O     O_R   0.615830 0.089650 0.326090 -0.559164
O12   O     O_R   0.384170 0.910350 0.673910 -0.577671
O13   O     O_R   0.884170 0.589650 0.673910 -0.572152
O14   O     O_R   0.115830 0.410350 0.326090 -0.538910
O15   O     O_R   0.115830 0.589650 0.326090 -0.577198
O16   O     O_R   0.884170 0.410350 0.673910 -0.535141
C29   C     C_2   0.643927 0.953261 0.027160 1.057270
O17   O     O_2   0.640261 0.886766 0.964716 -0.504827
O18   O     O_R   0.732921 0.981129 0.013104 -0.764093
H1    H     H_    0.789576 0.941940 0.945104 0.342019
C30   C     C_2   0.351303 0.960765 0.976364 1.039354
O19   O     O_2   0.277344 0.988019 0.978483 -0.595080
O20   O     O_R   0.346010 0.888533 0.063625 -0.674976
H2    H     H_    0.276304 0.866596 0.127118 0.360438
C31   C     C_2   0.141558 0.550185 0.027331 1.061524
O21   O     O_2   0.219978 0.531650 0.018925 -0.557824
O22   O     O_R   0.134582 0.622271 0.948719 -0.822189
H3    H     H_    0.199885 0.652519 0.885967 0.327321
C32   C     C_2   0.858467 0.550311 0.971883 1.054494
O23   O     O_2   0.865103 0.615446 0.035430 -0.676224
O24   O     O_R   0.768227 0.526737 0.985840 -0.723556
H4    H     H_    0.713431 0.567310 0.054735 0.323628
C33   C     C_2   0.586150 0.249751 0.678495 0.502884
H5    H     H_    0.579121 0.261806 0.790880 0.016903
O25   O     O_2   0.512941 0.253516 0.664215 -0.465079
C34   C     C_2   0.358405 0.705708 0.506620 0.460883
H6    H     H_    0.430665 0.730309 0.473616 0.132955
O26   O     O_2   0.347024 0.627839 0.508022 -0.522021
C35   C     C_2   0.413998 0.250323 0.321807 0.495159
H7    H     H_    0.421185 0.263037 0.209472 0.017911
O27   O     O_2   0.487115 0.253824 0.336381 -0.466146
C36   C     C_2   0.640078 0.702853 0.507376 0.428426
H8    H     H_    0.653759 0.634501 0.510089 0.080648
O28   O     O_2   0.556068 0.726491 0.552671 -0.544033
C37   C     C_2   0.091268 0.742247 0.689295 0.488420
H9    H     H_    0.090008 0.749750 0.798622 0.078268
O29   O     O_2   0.014254 0.747633 0.686267 -0.481800
C38   C     C_2   0.841911 0.199542 0.548135 0.464601
H10   H     H_    0.842448 0.136527 0.500681 0.102875
O30   O     O_2   0.897546 0.212623 0.599270 -0.480216
C39   C     C_2   0.905949 0.738546 0.305019 0.509830
H11   H     H_    0.903678 0.742874 0.197983 0.079531
O31   O     O_2   0.984994 0.744929 0.301290 -0.477053
C40   C     C_2   0.158275 0.199468 0.451236 0.471783
H12   H     H_    0.157906 0.136279 0.498144 0.102152
O32   O     O_2   0.102519 0.212690 0.400404 -0.478717
C41   C     C_2   0.792515 0.184042 0.269017 0.416614
H13   H     H_    0.802852 0.135596 0.183834 0.099091
O33   O     O_2   0.858158 0.235957 0.238307 -0.445453
C42   C     C_2   0.196399 0.911158 0.640573 0.412906
H14   H     H_    0.187346 0.961401 0.722260 0.054933
O34   O     O_2   0.145444 0.912958 0.578867 -0.464343
C43   C     C_2   0.207355 0.183408 0.730657 0.413475
H15   H     H_    0.196979 0.134806 0.815772 0.100511
O35   O     O_2   0.141682 0.235159 0.761336 -0.446346
C44   C     C_2   0.804305 0.908375 0.351043 0.366134
H16   H     H_    0.813229 0.956730 0.266287 0.056612
O36   O     O_2   0.857334 0.911408 0.409064 -0.446003
C45   C     C_2   0.285697 0.692320 0.262682 0.412008
H17   H     H_    0.294542 0.646610 0.174404 0.110406
O37   O     O_2   0.348996 0.746923 0.230233 -0.463869
C46   C     C_2   0.701062 0.416156 0.618728 0.308159
H18   H     H_    0.691838 0.470613 0.692955 0.056410
O38   O     O_2   0.655913 0.415317 0.547473 -0.455791
C47   C     C_2   0.719665 0.698360 0.739076 0.425804
H19   H     H_    0.709741 0.653106 0.828651 0.084878
O39   O     O_2   0.660664 0.756777 0.771940 -0.414673
C48   C     C_2   0.298788 0.416416 0.382203 0.350410
H20   H     H_    0.307971 0.471166 0.308411 0.069914
O40   O     O_2   0.343894 0.415302 0.453520 -0.421919
C49   C     C_2   0.391182 0.045082 0.193769 0.477821
H21   H     H_    0.368411 0.107549 0.173831 -0.030217
O41   O     O_2   0.332280 0.000608 0.299881 -0.483000
C50   C     C_2   0.609947 0.041279 0.805225 0.468808
H22   H     H_    0.634523 0.103816 0.821362 -0.025352
O42   O     O_2   0.667653 0.994637 0.702284 -0.475207
C51   C     C_2   0.887759 0.464929 0.200636 0.513012
H23   H     H_    0.849444 0.500980 0.306436 0.071377
O43   O     O_2   0.844214 0.406946 0.176701 -0.458111
C52   C     C_2   0.111936 0.464206 0.799867 0.523457
H24   H     H_    0.150571 0.500238 0.693875 0.101934
O44   O     O_2   0.154972 0.406023 0.824315 -0.456400

loop_
_geom_bond_atom_site_label_1
_geom_bond_atom_site_label_2
_ccdc_geom_bond_type
C21   C26   S    
C52   H24   S    
Cu2   O9    S    
C47   H19   S    
C18   C26   D    
C24   C27   S    
C39   H11   S    
C37   H9    S    
C30   O19   D    
C51   H23   S    
C5    C20   S    
C29   O17   D    
C2    O10   A    
C6    C19   S    
C45   O37   D    
C16   C43   S    
C41   H13   S    
Cu1   O11   S    
Cu2   O12   S    
C38   O30   D    
C49   O41   D    
C36   O28   D    
C30   O20   S    
N3    C32   S    
C46   H18   S    
Cu2   O2    S    
C27   C40   S    
C31   O22   S    
C4    C13   S    
C33   O25   D    
Cu4   O16   S    
C44   H16   S    
C4    O4    A    
C32   O24   S    
C22   C25   S    
C42   O34   D    
C25   C38   S    
N1    C30   S    
C7    O7    A    
C12   N4    D    
C19   C27   D    
C9    C10   S    
C8    O16   A    
C14   C41   S    
C1    O1    A    
C15   C23   D    
C3    O3    A    
O20   H2    S    
C16   C24   D    
C9    N1    D    
C5    O13   A    
C31   O21   D    
C28   C39   S    
C37   O29   D    
C50   O42   D    
C48   H20   S    
C29   O18   S    
Cu3   O8    S    
C13   C42   S    
O24   H4    S    
Cu4   N3    S    
C11   C52   S    
C38   H10   S    
C47   O39   D    
C17   C46   S    
C36   H8    S    
C20   C28   D    
C19   C48   S    
Cu1   N2    S    
C23   C36   S    
C35   H7    S    
Cu1   Cu2   S    
C20   C47   S    
C2    O2    A    
C40   O32   D    
C43   H15   S    
C7    C18   S    
C42   H14   S    
O18   H1    S    
C13   C21   D    
C10   N2    D    
C1    C16   S    
Cu3   O5    S    
C23   C28   S    
C6    O14   A    
C44   O36   D    
C2    C15   S    
C35   O27   D    
C3    C14   S    
C34   O26   D    
C43   O35   D    
C26   C37   S    
C39   O31   D    
Cu3   O14   S    
N4    C31   S    
C50   H22   S    
C4    O12   A    
C5    O5    A    
C52   O44   D    
C22   C33   S    
Cu2   N1    S    
Cu3   N4    S    
Cu3   Cu4   S    
C8    O8    A    
Cu3   O15   S    
C34   H6    S    
C48   O40   D    
C11   C12   S    
C24   C35   S    
C45   H17   S    
C8    C17   S    
Cu1   O10   S    
C17   C25   D    
C14   C22   D    
C11   N3    D    
C18   C45   S    
C7    O15   A    
C10   C49   S    
C49   H21   S    
C1    O9    A    
C40   H12   S    
C12   C51   S    
Cu1   O4    S    
C3    O11   A    
Cu4   O7    S    
C46   O38   D    
Cu2   O3    S    
C15   C44   S    
C33   H5    S    
Cu4   O13   S    
C51   O43   D    
O22   H3    S    
N2    C29   S    
C41   O33   D    
C32   O23   D    
C6    O6    A    
Cu1   O1    S    
C9    C50   S    
Cu4   O6    S    
C21   C34   S    
