data_mof_unit_55954.cif
_audit_creation_date              2012-12-10T19:16:19-0500
_audit_creation_method            fapswitch 2.2
_symmetry_space_group_name_H-M    P1
_symmetry_Int_Tables_number       1
_space_group_crystal_system       triclinic
_cell_length_a                    10.624894
_cell_length_b                    9.676963
_cell_length_c                    27.329013
_cell_angle_alpha                 88.846418
_cell_angle_beta                  89.732047
_cell_angle_gamma                 89.990978
_cell_volume                      2809.27886987

loop_
_atom_site_label
_atom_site_type_symbol
_atom_type_description
_atom_site_fract_x
_atom_site_fract_y
_atom_site_fract_z
_atom_type_partial_charge
C1    C     C_R   0.257569 0.499830 0.499110 0.840113
C2    C     C_R   0.498030 0.664431 0.279219 -0.105203
C3    C     C_R   0.508235 0.530943 0.247783 0.049119
C4    C     C_R   0.491816 0.579942 0.092115 -0.075980
C5    C     C_R   0.404687 0.493147 0.116995 -0.023587
C6    C     C_R   0.306245 0.432734 0.091440 -0.172280
C7    C     C_R   0.598493 0.630357 0.117262 -0.063953
C8    C     C_R   0.501516 0.509988 0.351718 -0.062105
C9    C     C_R   0.500629 0.497490 0.647624 -0.143023
C10   C     C_R   0.342265 0.599429 0.968049 -0.026409
C11   C     C_R   0.545130 0.723800 0.965414 0.070142
C12   C     C_R   0.500229 0.501839 0.405433 0.874637
C13   C     C_R   0.440470 0.665470 0.941401 0.045770
C14   C     C_R   0.228222 0.570599 0.942825 0.233159
C15   C     C_R   0.227643 0.569351 0.891761 -0.131779
C16   C     C_R   0.334762 0.609423 0.865312 -0.078807
C17   C     C_R   0.435592 0.669753 0.889907 -0.056471
C18   C     C_R   0.530207 0.736378 0.862437 -0.010199
C19   C     C_R   0.531258 0.720661 0.811699 0.509051
C20   C     C_R   0.345485 0.591670 0.814699 0.622102
C21   C     C_R   0.424942 0.436179 0.728940 0.298441
C22   C     C_R   0.417048 0.419114 0.677890 0.007911
C23   C     C_R   0.742665 0.499750 0.499421 0.843550
C24   C     C_R   0.599554 0.569784 0.669052 -0.275443
C25   C     C_R   0.605238 0.581365 0.719788 0.157264
C26   C     C_R   0.495912 0.547233 0.747172 0.110292
C27   C     C_R   0.363667 0.563325 0.017767 0.068216
C28   C     C_R   0.471893 0.614594 0.042029 0.071792
C29   C     C_R   0.561551 0.696648 0.016246 0.016863
C30   C     C_R   0.288400 0.464311 0.042389 -0.155565
C31   C     C_R   0.691922 0.705864 0.090382 0.118087
C32   C     C_R   0.630383 0.805514 0.937039 -0.187141
C33   C     C_R   0.622706 0.811579 0.886226 -0.123620
C34   C     C_R   0.496534 0.498624 0.594288 0.898280
C35   C     C_R   0.670888 0.738003 0.040950 -0.212020
C36   C     C_3   0.071767 0.563184 0.546306 -0.406061
C37   C     C_3   0.071596 0.348623 0.494707 -0.397605
C38   C     C_3   0.927541 0.563013 0.546632 -0.406110
C39   C     C_3   0.928736 0.348291 0.495547 -0.397608
C40   C     C_3   0.072716 0.584800 0.453979 -0.400575
C41   C     C_3   0.121289 0.499097 0.498499 0.186787
C42   C     C_3   0.878888 0.498837 0.498881 0.185671
C43   C     C_3   0.928089 0.584094 0.454073 -0.397251
C44   C     C_3   0.377174 0.082300 0.482450 -0.234285
C45   C     C_3   0.377322 0.919586 0.482279 -0.237721
C46   C     C_3   0.598286 0.083187 0.465809 -0.231598
C47   C     C_3   0.598482 0.920353 0.465907 -0.236390
C48   C     C_3   0.523936 0.078670 0.548478 -0.228248
C49   C     C_3   0.523551 0.916146 0.548513 -0.218074
C50   C     C_R   0.417321 0.468987 0.167208 0.536939
C51   C     C_R   0.604673 0.604298 0.168395 0.524677
C52   C     C_R   0.514687 0.393053 0.273250 -0.059816
C53   C     C_R   0.510776 0.388490 0.324206 -0.226924
C54   C     C_R   0.495187 0.642919 0.329291 -0.213250
H1    H     H_    0.487993 0.734676 0.351125 0.164129
H2    H     H_    0.523033 0.298896 0.252761 0.163598
H3    H     H_    0.705176 0.864940 0.952713 0.150146
H4    H     H_    0.676713 0.608454 0.646520 0.146421
H5    H     H_    0.693501 0.869030 0.865671 0.189763
H6    H     H_    0.745659 0.791048 0.021745 0.152815
H7    H     H_    0.106477 0.671106 0.549753 0.170514
H8    H     H_    0.105503 0.301718 0.460158 0.169712
H9    H     H_    0.106825 0.502613 0.578252 0.168352
H10   H     H_    0.106687 0.283104 0.525632 0.164344
H11   H     H_    0.892417 0.502770 0.579065 0.155417
H12   H     H_    0.895430 0.284848 0.527536 0.172916
H13   H     H_    0.502993 0.604148 0.258095 0.224185
H14   H     H_    0.892742 0.670974 0.549984 0.170297
H15   H     H_    0.893406 0.299133 0.461751 0.167492
H16   H     H_    0.106916 0.693376 0.455549 0.170588
H17   H     H_    0.108595 0.540544 0.419307 0.162845
H18   H     H_    0.893147 0.692449 0.455330 0.170275
H19   H     H_    0.893240 0.538728 0.419557 0.163296
H20   H     H_    0.355211 0.123676 0.445186 0.148076
H21   H     H_    0.356054 0.883021 0.444874 0.143817
H22   H     H_    0.300429 0.118107 0.506925 0.142905
H23   H     H_    0.300218 0.880414 0.506471 0.146434
H24   H     H_    0.583209 0.123444 0.427890 0.148080
H25   H     H_    0.583906 0.883737 0.428038 0.146225
H26   H     H_    0.615946 0.116474 0.562148 0.149090
H27   H     H_    0.615181 0.876371 0.562437 0.147151
H28   H     H_    0.451158 0.115437 0.574552 0.147372
H29   H     H_    0.450105 0.877384 0.574479 0.158790
H30   H     H_    0.692485 0.120777 0.477073 0.143194
H31   H     H_    0.692638 0.881818 0.477399 0.144271
H32   H     H_    0.243016 0.359273 0.109146 0.190748
H33   H     H_    0.142997 0.538253 0.872961 0.209285
H34   H     H_    0.218632 0.404584 0.023687 0.195138
H35   H     H_    0.515951 0.288443 0.342574 0.148020
N1    N     N_R   0.513668 0.528038 0.191787 -0.330180
N2    N     N_R   0.458342 0.619412 0.791609 -0.327493
N3    N     N_3   0.499750 0.138610 0.498940 -0.033873
N4    N     N_3   0.499750 0.861390 0.498940 -0.035401
O1    O     O_R   0.314910 0.616040 0.499990 -0.634075
O2    O     O_R   0.314910 0.383960 0.499990 -0.638394
O3    O     O_R   0.500140 0.616020 0.428740 -0.626339
O4    O     O_R   0.500140 0.383980 0.428740 -0.623763
O5    O     O_R   0.685320 0.616040 0.499970 -0.633617
O6    O     O_R   0.685320 0.383960 0.499970 -0.632698
O7    O     O_R   0.500090 0.616050 0.571230 -0.616770
O8    O     O_R   0.500090 0.383950 0.571230 -0.630316
O9    O     O_2   0.330857 0.392398 0.191817 -0.571858
O10   O     O_2   0.244661 0.549945 0.789147 -0.578869
O11   O     O_2   0.697685 0.657272 0.195488 -0.577289
O12   O     O_2   0.601247 0.806604 0.783289 -0.568496
Zn1   Zn    Zn3+2 0.500150 0.654960 0.499980 0.903841
Zn2   Zn    Zn3+2 0.500150 0.345040 0.499980 0.899354
C55   C     C_3   0.819313 0.747752 0.110817 -0.355650
C56   C     C_3   0.905884 0.621624 0.117607 -0.301892
C57   C     C_3   0.033286 0.662854 0.138344 -0.796310
H36   H     H_    0.082395 0.735560 0.112729 0.264239
H37   H     H_    0.020768 0.712506 0.174335 0.269562
H38   H     H_    0.092706 0.569390 0.143534 0.263538
H39   H     H_    0.862173 0.543285 0.142551 0.249294
H40   H     H_    0.921239 0.572596 0.081619 0.247190
H41   H     H_    0.867959 0.821356 0.085293 0.184564
H42   H     H_    0.808708 0.807280 0.144784 0.245285
C58   C     C_3   0.733975 0.591838 0.743325 -0.337090
C59   C     C_3   0.814949 0.465051 0.731878 -0.449983
C60   C     C_3   0.936945 0.464706 0.761138 -0.756243
H43   H     H_    0.998131 0.551795 0.748786 0.280953
H44   H     H_    0.917081 0.473709 0.800891 0.268348
H45   H     H_    0.987146 0.365745 0.755642 0.264315
H46   H     H_    0.761554 0.369246 0.741360 0.253803
H47   H     H_    0.838292 0.464288 0.692213 0.220234
H48   H     H_    0.782175 0.687601 0.730126 0.226569
H49   H     H_    0.725755 0.594124 0.783727 0.223486
C61   C     C_3   0.319625 0.320537 0.657591 -0.406579
C62   C     C_3   0.185438 0.364080 0.671477 -0.307118
C63   C     C_3   0.088126 0.264202 0.651425 -0.919491
H50   H     H_    0.097007 0.257580 0.611125 0.249621
H51   H     H_    0.101279 0.159590 0.668086 0.280819
H52   H     H_    0.991960 0.300827 0.660308 0.254467
H53   H     H_    0.174717 0.365856 0.711733 0.284753
H54   H     H_    0.166645 0.470238 0.657236 0.210804
H55   H     H_    0.323420 0.315276 0.617288 0.206736
H56   H     H_    0.338780 0.214321 0.671859 0.237605
Br1   Br    Br    0.375743 0.286489 0.773093 -0.499066
Br2   Br    Br    0.064536 0.563263 0.973586 -0.579985

loop_
_geom_bond_atom_site_label_1
_geom_bond_atom_site_label_2
_ccdc_geom_bond_type
C10   C27   A    
C43   H19   S    
C23   O6    A    
C21   C26   A    
O8    Zn2   S    
C43   H18   S    
C40   H17   S    
C31   C55   S    
C54   H1    S    
C47   H25   S    
C45   N4    S    
C61   C62   S    
C37   H8    S    
C20   O10   S    
C59   H46   S    
C60   H43   S    
C23   C42   S    
C40   H16   S    
C3    N1    S    
C47   H31   S    
C28   C29   A    
C38   C42   S    
C61   H55   S    
C51   N1    A    
C5    C6    A    
C3    C52   A    
C9    C22   A    
C46   N3    S    
C15   C16   A    
C55   C56   S    
C18   C19   A    
C49   H27   S    
C44   H22   S    
C58   C59   S    
C62   H54   S    
C50   N1    A    
C40   C43   S    
C16   C17   A    
C34   O7    A    
C8    C12   S    
C36   H9    S    
C44   N3    S    
C60   H45   S    
C16   C20   A    
C33   H5    S    
C21   C22   A    
C25   C58   S    
C27   C30   A    
C36   C41   S    
C32   H3    S    
C4    C7    A    
C4    C28   A    
C60   H44   S    
C39   C42   S    
C47   N4    S    
C20   N2    A    
C34   O8    A    
C7    C31   A    
C49   H29   S    
C24   C25   A    
C2    H13   S    
C10   C14   A    
C8    C54   A    
C46   H24   S    
C40   C41   S    
C1    O1    A    
C25   C26   A    
C57   H36   S    
C35   H6    S    
C63   H51   S    
C61   H56   S    
N4    Zn1   S    
N3    Zn2   S    
C22   C61   S    
C38   H11   S    
C1    O2    A    
C17   C18   A    
C39   H15   S    
C44   H20   S    
C57   H38   S    
C12   O4    A    
O2    Zn2   S    
C56   H39   S    
C46   H30   S    
C19   O12   S    
C1    C41   S    
C48   C49   S    
C6    C30   A    
C38   H14   S    
C11   C32   A    
C50   O9    S    
C2    C54   A    
C9    C34   S    
C39   H12   S    
C31   C35   A    
C5    C50   A    
C63   H52   S    
C58   H49   S    
C30   H34   S    
C36   H7    S    
C59   H47   S    
C37   H10   S    
C52   C53   A    
C15   H33   S    
C62   C63   S    
O3    Zn1   S    
C46   C47   S    
O1    Zn1   S    
C51   O11   S    
C55   H42   S    
C44   C45   S    
C4    C5    A    
C10   C13   A    
C6    H32   S    
C8    C53   A    
C21   Br1   S    
C59   C60   S    
C9    C24   A    
O6    Zn2   S    
C29   C35   A    
O7    Zn1   S    
O5    Zn1   S    
C13   C17   A    
C45   H21   S    
C32   C33   A    
C48   H26   S    
C36   C38   S    
C2    C3    A    
C26   N2    S    
C7    C51   A    
C37   C39   S    
C56   C57   S    
C53   H35   S    
C11   C13   A    
C55   H41   S    
C48   H28   S    
C63   H50   S    
C37   C41   S    
C18   C33   A    
C57   H37   S    
C19   N2    A    
C48   N3    S    
C56   H40   S    
C62   H53   S    
O4    Zn2   S    
C23   O5    A    
C14   Br2   S    
C11   C29   A    
C24   H4    S    
C42   C43   S    
C27   C28   A    
C14   C15   A    
C12   O3    A    
C45   H23   S    
C58   H48   S    
C49   N4    S    
C52   H2    S    
