data_mof_unit_43778.cif
_audit_creation_date              2012-12-11T17:34:15-0500
_audit_creation_method            fapswitch 2.2
_symmetry_space_group_name_H-M    P1
_symmetry_Int_Tables_number       1
_space_group_crystal_system       triclinic
_cell_length_a                    23.743389
_cell_length_b                    7.212083
_cell_length_c                    20.800568
_cell_angle_alpha                 90.523637
_cell_angle_beta                  104.874457
_cell_angle_gamma                 90.942261
_cell_volume                      3441.7238188

loop_
_atom_site_label
_atom_site_type_symbol
_atom_type_description
_atom_site_fract_x
_atom_site_fract_y
_atom_site_fract_z
_atom_type_partial_charge
O1    O     O_R   0.449110 0.494310 0.552140 -0.508513
O2    O     O_R   0.550890 0.994310 0.447860 -0.530270
O3    O     O_R   0.440010 0.824420 0.415850 -0.523542
O4    O     O_R   0.559990 0.324420 0.584150 -0.520554
C1    C     C_R   0.426556 0.653066 0.390644 0.772006
C2    C     C_R   0.575485 0.157925 0.609019 0.743784
O5    O     O_R   0.442260 0.824040 0.549660 -0.521750
O6    O     O_R   0.557740 0.324040 0.450340 -0.513667
O7    O     O_R   0.553160 0.993960 0.582620 -0.534294
O8    O     O_R   0.446840 0.493960 0.417380 -0.526797
C3    C     C_R   0.425303 0.653197 0.563377 0.781388
C4    C     C_R   0.570986 0.156558 0.432190 0.800609
O9    O     O_3   0.536380 0.660670 0.510660 -0.380091
O10   O     O_3   0.463620 0.160670 0.489340 -0.364415
V1    V     V_3+5 0.493250 0.935680 0.498020 1.601032
V2    V     V_3+5 0.506750 0.435680 0.501980 1.624246
C5    C     C_R   0.825607 0.907558 0.173971 -0.094313
C6    C     C_R   0.157193 0.420101 0.806264 -0.086361
H1    H     H_    0.810082 0.781199 0.192028 0.115453
H2    H     H_    0.166224 0.297417 0.780451 0.118818
C7    C     C_R   0.865190 0.896357 0.134204 -0.113850
C8    C     C_R   0.120450 0.404855 0.849259 -0.160860
H3    H     H_    0.879053 0.760919 0.122342 0.110452
H4    H     H_    0.101845 0.270498 0.855575 0.140949
C9    C     C_R   0.886445 0.058173 0.110131 0.000931
C10   C     C_R   0.107918 0.561703 0.883566 -0.020037
C11   C     C_R   0.866262 0.230939 0.126365 -0.062598
C12   C     C_R   0.133746 0.733515 0.874129 -0.095479
H5    H     H_    0.880615 0.358603 0.108070 0.129674
H6    H     H_    0.126190 0.857041 0.900450 0.141011
C13   C     C_R   0.826781 0.241724 0.166029 -0.101530
C14   C     C_R   0.170251 0.748555 0.831134 -0.125233
H7    H     H_    0.812178 0.376464 0.177760 0.113020
H8    H     H_    0.189444 0.882382 0.824892 0.120615
C15   C     C_R   0.806317 0.080399 0.190253 0.118202
C16   C     C_R   0.182074 0.592278 0.796815 0.124558
C17   C     C_1   0.765663 0.093347 0.231673 -0.016747
C18   C     C_1   0.220594 0.608475 0.753100 -0.023282
C19   C     C_1   0.731792 0.106569 0.266313 0.010691
C20   C     C_1   0.253483 0.620357 0.717296 0.009303
C21   C     C_R   0.635284 0.044984 0.287157 -0.121317
C22   C     C_R   0.330239 0.478751 0.675159 -0.120872
H9    H     H_    0.621538 0.974485 0.239307 0.165954
H10   H     H_    0.327102 0.358559 0.705083 0.151659
C23   C     C_R   0.596060 0.060312 0.327015 0.253913
C24   C     C_R   0.369543 0.479164 0.635348 0.295791
C25   C     C_R   0.612930 0.150301 0.389842 -0.163669
C26   C     C_R   0.375782 0.637291 0.596709 -0.179670
C27   C     C_R   0.668714 0.239871 0.409234 -0.064907
C28   C     C_R   0.332746 0.777477 0.590365 -0.077453
C29   C     C_R   0.707327 0.223594 0.367967 -0.128066
C30   C     C_R   0.294301 0.774512 0.632348 -0.133249
H11   H     H_    0.750300 0.288517 0.382892 0.166353
H12   H     H_    0.262480 0.882403 0.629147 0.164073
C31   C     C_R   0.691310 0.123559 0.307822 0.033511
C32   C     C_R   0.293938 0.627655 0.675614 0.043425
C33   C     C_R   0.645975 0.234950 0.794800 0.268642
C34   C     C_R   0.368688 0.475033 0.215218 0.263547
C35   C     C_R   0.619981 0.161919 0.675342 -0.163136
C36   C     C_R   0.387287 0.628127 0.323255 -0.137684
C37   C     C_R   0.901185 0.992590 0.768334 -0.087345
C38   C     C_R   0.101237 0.606428 0.229903 -0.082045
C39   C     C_R   0.864870 0.015652 0.703576 -0.097364
C40   C     C_R   0.139215 0.606902 0.294421 -0.090011
C41   C     C_R   0.809310 0.094294 0.694943 -0.073544
C42   C     C_R   0.199084 0.572247 0.303572 -0.079184
C43   C     C_R   0.784297 0.110581 0.749682 0.042432
C44   C     C_R   0.223518 0.568477 0.247775 0.047523
C45   C     C_R   0.821608 0.089968 0.815379 0.002536
C46   C     C_R   0.184669 0.546602 0.182379 -0.009360
C47   C     C_R   0.723205 0.147475 0.741902 0.058104
C48   C     C_R   0.285872 0.574857 0.255824 0.065976
C49   C     C_R   0.705652 0.209187 0.798697 -0.009594
C50   C     C_R   0.308625 0.514856 0.202994 -0.010413
C51   C     C_R   0.748196 0.231953 0.859657 -0.060704
C52   C     C_R   0.271559 0.499432 0.138724 -0.073926
C53   C     C_R   0.798093 0.124193 0.870138 -0.118417
C54   C     C_R   0.210605 0.511434 0.128819 -0.069379
C55   C     C_R   0.679158 0.120399 0.680801 -0.174851
C56   C     C_R   0.326618 0.642784 0.314398 -0.170620
C57   C     C_R   0.604218 0.221029 0.733152 -0.086041
C58   C     C_R   0.408644 0.544046 0.272599 -0.077793
C59   C     C_R   0.881551 0.044437 0.824458 -0.121530
C60   C     C_R   0.122222 0.564564 0.173630 -0.158858
H13   H     H_    0.690004 0.065408 0.637119 0.153121
H14   H     H_    0.311919 0.708158 0.353870 0.146930
O11   O     O_R   0.053190 0.709680 0.082610 -0.530818
O12   O     O_R   0.946810 0.209680 0.917390 -0.532573
O13   O     O_R   0.057740 0.380240 0.950340 -0.542247
O14   O     O_R   0.942260 0.880240 0.049660 -0.549158
C61   C     C_R   0.068077 0.548684 0.928680 0.745671
C62   C     C_R   0.928881 0.048446 0.068043 0.700869
O15   O     O_R   0.060000 0.379940 0.084150 -0.513777
O16   O     O_R   0.940000 0.879940 0.915850 -0.525032
O17   O     O_R   0.949110 0.210100 0.052140 -0.533006
O18   O     O_R   0.050890 0.710100 0.947860 -0.530004
C63   C     C_R   0.077161 0.550706 0.107455 0.742877
C64   C     C_R   0.924428 0.046226 0.891457 0.732320
O19   O     O_3   0.963630 0.543720 0.989330 -0.378964
O20   O     O_3   0.036370 0.043720 0.010670 -0.362402
V3    V     V_3+5 0.006750 0.268680 0.001980 1.557250
V4    V     V_3+5 0.993250 0.768680 0.998020 1.538129
C65   C     C_2   0.748678 0.397118 0.903572 0.891987
O21   O     O_2   0.780657 0.404221 0.959957 -0.545529
O22   O     O_R   0.715068 0.550644 0.878618 -0.632050
H15   H     H_    0.719185 0.654713 0.912703 0.330253
C66   C     C_2   0.297372 0.506790 0.080233 0.894478
O23   O     O_2   0.284027 0.389662 0.035754 -0.520597
O24   O     O_R   0.337879 0.647393 0.077325 -0.617085
H16   H     H_    0.352737 0.637868 0.035891 0.334586
Br1   Br    Br    0.618947 0.260798 0.875072 -0.398195
Br2   Br    Br    0.394190 0.279135 0.164962 -0.366370
C67   C     C_2   0.961165 0.922833 0.777107 0.804801
O25   O     O_2   0.968685 0.772537 0.753219 -0.536321
O26   O     O_R   0.008876 0.031312 0.811401 -0.670001
H17   H     H_    0.047320 0.973862 0.810718 0.279288
C68   C     C_2   0.038215 0.643171 0.221879 0.794072
O27   O     O_2   0.023584 0.785599 0.245017 -0.539525
O28   O     O_R   0.995951 0.513881 0.188755 -0.659097
H18   H     H_    0.954994 0.553316 0.187824 0.277602
C69   C     C_2   0.787937 0.213188 0.636360 0.777028
O29   O     O_2   0.778867 0.149368 0.579925 -0.528842
O30   O     O_R   0.781341 0.402484 0.646807 -0.646465
H19   H     H_    0.774307 0.476170 0.604387 0.336714
C70   C     C_2   0.232395 0.498587 0.368924 0.777369
O31   O     O_2   0.258901 0.353975 0.370403 -0.537959
O32   O     O_R   0.234017 0.593666 0.428241 -0.638708
H20   H     H_    0.258288 0.528779 0.468766 0.314440
C71   C     C_2   0.886958 0.973736 0.644403 0.884402
O33   O     O_2   0.933329 0.041171 0.639754 -0.531711
O34   O     O_R   0.854420 0.856383 0.594132 -0.618928
H21   H     H_    0.873717 0.838089 0.556407 0.325491
C72   C     C_2   0.114997 0.630040 0.353040 0.886139
O35   O     O_2   0.079516 0.516800 0.363317 -0.530227
O36   O     O_R   0.132045 0.783610 0.395470 -0.610649
H22   H     H_    0.112501 0.784762 0.433451 0.324852
C73   C     C_2   0.809987 0.998710 0.928342 0.751421
O37   O     O_2   0.796655 0.043318 0.979214 -0.534504
O38   O     O_R   0.830581 0.820546 0.922507 -0.652672
H23   H     H_    0.835676 0.746959 0.964841 0.308183
C74   C     C_2   0.176875 0.487562 0.060297 0.731125
O39   O     O_2   0.168232 0.623071 0.024741 -0.573769
O40   O     O_R   0.165815 0.307483 0.034185 -0.622141
H24   H     H_    0.160027 0.301679 0.984335 0.306056
Br3   Br    Br    0.517216 0.977388 0.289835 -0.479924
Br4   Br    Br    0.406316 0.245744 0.631544 -0.514900
C75   C     C_2   0.687432 0.355107 0.470948 0.824926
O41   O     O_2   0.722151 0.483982 0.473692 -0.544874
O42   O     O_R   0.665624 0.317756 0.525912 -0.674135
H25   H     H_    0.676003 0.418098 0.561567 0.294192
C76   C     C_2   0.320744 0.912658 0.534879 0.876209
O43   O     O_2   0.294121 0.054104 0.539241 -0.527902
O44   O     O_R   0.335805 0.872933 0.475614 -0.671705
H26   H     H_    0.324403 0.974497 0.441593 0.316053
C77   C     C_2   0.543785 0.268660 0.730936 0.875384
O45   O     O_2   0.524655 0.416790 0.707728 -0.532442
O46   O     O_R   0.510642 0.150952 0.760542 -0.612917
H27   H     H_    0.473154 0.208918 0.764740 0.339403
C78   C     C_2   0.472336 0.532796 0.276420 0.887415
O47   O     O_2   0.508260 0.509219 0.329219 -0.559178
O48   O     O_R   0.491391 0.553559 0.218521 -0.594382
H28   H     H_    0.535246 0.544002 0.226978 0.325652

loop_
_geom_bond_atom_site_label_1
_geom_bond_atom_site_label_2
_ccdc_geom_bond_type
C42   C44   A    
C39   C41   A    
O46   H27   S    
C72   O35   D    
O18   V4    S    
C77   O46   S    
C49   C51   A    
C45   C53   A    
C75   O41   D    
O1    C3    A    
O2    C4    A    
C2    O7    A    
C47   C55   A    
O12   V3    S    
O30   H19   S    
C25   C27   A    
C33   Br1   S    
O5    C3    A    
C73   O38   S    
C23   Br3   S    
C50   C52   A    
C34   Br2   S    
C60   C63   S    
C14   C16   A    
C75   O42   S    
C52   C54   A    
C67   O25   D    
C68   O28   S    
C46   C54   A    
O16   C64   A    
O40   H24   S    
C11   H5    S    
C27   C75   S    
C22   C24   A    
C33   C49   A    
C37   C39   A    
C21   C31   A    
C38   C68   S    
C38   C40   A    
C22   C32   A    
C61   O18   A    
C36   C58   A    
C28   C76   S    
C19   C31   S    
C41   C43   A    
C20   C32   S    
C59   C64   S    
O17   V3    S    
C28   C30   A    
C76   O43   D    
C13   H7    S    
C41   C69   S    
O13   C61   A    
C46   C60   A    
C43   C47   A    
C44   C48   A    
O13   V3    S    
C26   C28   A    
O6    V2    S    
C76   O44   S    
C51   C65   S    
C21   H9    S    
C3    C26   S    
C74   O39   D    
C22   H10   S    
C4    C25   S    
C30   H12   S    
C66   O24   S    
C23   C25   A    
O38   H23   S    
C24   C26   A    
C77   O45   D    
C11   C13   A    
C12   C14   A    
C48   C50   A    
C7    C9    A    
C37   C59   A    
C54   C74   S    
C35   C55   A    
C47   C49   A    
O11   C63   A    
O5    V1    S    
C29   C31   A    
C27   C29   A    
C10   C61   S    
C62   O17   A    
C5    C7    A    
C29   H11   S    
C74   O40   S    
C14   H8    S    
O4    V2    S    
C45   C59   A    
O11   V4    S    
O14   C62   A    
C78   O47   D    
O6    C4    A    
C78   O48   S    
C65   O22   S    
O1    V2    S    
O2    V1    S    
C51   C53   A    
C69   O29   D    
O4    C2    A    
C52   C66   S    
C7    H3    S    
C37   C67   S    
C70   O31   D    
C8    H4    S    
C66   O23   D    
O15   V3    S    
O32   H20   S    
O15   C63   A    
C55   H13   S    
O3    V1    S    
C34   C50   A    
C70   O32   S    
C71   O33   D    
O22   H15   S    
C43   C45   A    
C38   C60   A    
C40   C72   S    
C36   C56   A    
C9    C62   S    
C1    C36   S    
C15   C17   S    
C6    C8    A    
C2    C35   S    
C35   C57   A    
C53   C73   S    
O3    C1    A    
O28   H18   S    
C9    C11   A    
C73   O37   D    
C10   C12   A    
C57   C77   S    
C42   C70   S    
O14   V4    S    
C34   C58   A    
O7    V1    S    
C1    O8    A    
C48   C56   A    
O48   H28   S    
C68   O27   D    
C16   C18   S    
C18   C20   T    
C58   C78   S    
C24   Br4   S    
C13   C15   A    
C12   H6    S    
O20   V3    S    
C5    H1    S    
C6    H2    S    
C39   C71   S    
O34   H21   S    
C33   C57   A    
C69   O30   S    
O36   H22   S    
C30   C32   A    
C56   H14   S    
O19   V4    S    
O16   V4    S    
C17   C19   T    
C8    C10   A    
O9    V2    S    
O24   H16   S    
C65   O21   D    
C72   O36   S    
C44   C46   A    
C21   C23   A    
O10   V1    S    
O8    V2    S    
C5    C15   A    
C67   O26   S    
O44   H26   S    
O42   H25   S    
C6    C16   A    
O12   C64   A    
O26   H17   S    
C40   C42   A    
C71   O34   S    
