data_mof_unit_49617.cif
_audit_creation_date              2012-12-10T17:50:32-0500
_audit_creation_method            fapswitch 2.2
_symmetry_space_group_name_H-M    P1
_symmetry_Int_Tables_number       1
_space_group_crystal_system       triclinic
_cell_length_a                    15.697377
_cell_length_b                    10.679717
_cell_length_c                    9.953263
_cell_angle_alpha                 87.448291
_cell_angle_beta                  89.974831
_cell_angle_gamma                 92.939864
_cell_volume                      1664.74573949

loop_
_atom_site_label
_atom_site_type_symbol
_atom_type_description
_atom_site_fract_x
_atom_site_fract_y
_atom_site_fract_z
_atom_type_partial_charge
C1    C     C_R   0.508436 0.261008 0.503819 0.923406
C2    C     C_R   0.451659 0.029062 0.863759 -0.234014
C3    C     C_R   0.403673 0.920833 0.834016 -0.233160
C4    C     C_R   0.338155 0.499470 0.499849 0.933569
C5    C     C_R   0.407161 0.874259 0.705131 0.616833
C6    C     C_R   0.464299 0.933507 0.607501 -0.111124
C7    C     C_R   0.496041 0.055114 0.628571 -0.040409
C8    C     C_R   0.524729 0.128915 0.514423 -0.329639
C9    C     C_R   0.554550 0.071655 0.400085 0.418817
C10   C     C_R   0.541559 0.943018 0.391684 0.429542
C11   C     C_R   0.494117 0.874467 0.493245 -0.321251
C12   C     C_3   0.083008 0.494545 0.497004 0.069674
C13   C     C_R   0.376758 0.355831 0.153134 -0.271319
C14   C     C_R   0.303308 0.302876 0.095773 0.492826
C15   C     C_R   0.297050 0.309251 0.958081 -0.359507
C16   C     C_R   0.495686 0.739933 0.497299 0.978204
C17   C     C_R   0.367235 0.352426 0.875883 0.489480
C18   C     C_R   0.435950 0.428443 0.933019 0.051957
C19   C     C_R   0.437967 0.429058 0.077399 0.058837
C20   C     C_R   0.559502 0.567247 0.067639 -0.058254
C21   C     C_R   0.559594 0.567182 0.925070 -0.108161
C22   C     C_R   0.661957 0.501327 0.499953 0.849845
C23   C     C_3   0.974241 0.543181 0.614847 -0.317533
C24   C     C_3   0.968400 0.378452 0.488596 0.500493
C25   C     C_3   0.026143 0.448157 0.381318 -0.311335
C26   C     C_1   0.249210 0.496870 0.499130 -0.182599
C27   C     C_1   0.750932 0.499348 0.499982 -0.199756
C28   C     C_3   0.025294 0.424793 0.602507 0.504309
C29   C     C_3   0.285174 0.818680 0.596908 -0.382972
C30   C     C_3   0.659346 0.858462 0.303992 -0.257753
C31   C     C_3   0.258905 0.181652 0.287192 -0.350133
C32   C     C_3   0.308088 0.229997 0.700579 -0.324937
C33   C     C_3   0.989018 0.170814 0.453242 -0.344969
C34   C     C_3   0.917186 0.495762 0.499711 0.064191
C35   C     C_3   0.994761 0.311710 0.800243 -0.318311
C36   C     C_3   0.675444 0.185550 0.334359 -0.216283
C37   C     C_3   0.032924 0.613619 0.507654 -0.191810
C38   C     C_3   0.974083 0.567032 0.392973 -0.194029
C39   C     C_1   0.173854 0.495094 0.497942 -0.005451
C40   C     C_1   0.826250 0.497281 0.499918 -0.007230
C41   C     C_R   0.496367 0.097456 0.761456 -0.034235
H1    H     H_    0.049834 0.410707 0.286754 0.178098
H2    H     H_    0.384261 0.339332 0.257190 0.225094
H3    H     H_    0.270304 0.247462 0.369277 0.159358
H4    H     H_    0.315507 0.125215 0.271157 0.161576
H5    H     H_    0.205507 0.115241 0.320031 0.184039
H6    H     H_    0.239236 0.266766 0.917403 0.191172
H7    H     H_    0.248142 0.280596 0.690584 0.190699
H8    H     H_    0.299239 0.142520 0.764827 0.167631
H9    H     H_    0.325101 0.201125 0.598807 0.157746
H10   H     H_    0.608399 0.622442 0.869044 0.139735
H11   H     H_    0.041565 0.171443 0.528208 0.190365
H12   H     H_    0.363513 0.873098 0.910721 0.169776
H13   H     H_    0.015103 0.188275 0.349874 0.176628
H14   H     H_    0.957450 0.075383 0.458195 0.186816
H15   H     H_    0.950429 0.626169 0.307763 0.153151
H16   H     H_    0.062159 0.710036 0.514265 0.145327
H17   H     H_    0.950844 0.582338 0.708680 0.153966
H18   H     H_    0.940607 0.260572 0.751036 0.192288
H19   H     H_    0.971916 0.392941 0.853549 0.164708
H20   H     H_    0.021428 0.246235 0.877003 0.196174
H21   H     H_    0.714444 0.109336 0.376881 0.132672
H22   H     H_    0.670935 0.258478 0.409356 0.152117
H23   H     H_    0.307398 0.846723 0.493276 0.162128
H24   H     H_    0.709733 0.229206 0.245286 0.187195
H25   H     H_    0.532798 0.180930 0.788991 0.176169
H26   H     H_    0.451123 0.063214 0.964556 0.183035
H27   H     H_    0.254801 0.898364 0.643507 0.151883
H28   H     H_    0.235107 0.742440 0.589321 0.203617
H29   H     H_    0.671546 0.767424 0.260518 0.171804
H30   H     H_    0.677829 0.850185 0.412245 0.105518
H31   H     H_    0.701303 0.930911 0.250252 0.179024
H32   H     H_    0.608466 0.622124 0.117858 0.135567
N1    N     N_R   0.499210 0.498800 0.142780 -0.089973
N2    N     N_R   0.499180 0.498720 0.857170 -0.095849
O1    O     O_R   0.500000 0.316780 0.614690 -0.572129
O2    O     O_3   0.572943 0.884772 0.281685 -0.562273
O3    O     O_3   0.234219 0.247391 0.168499 -0.589556
O4    O     O_3   0.375565 0.309385 0.747733 -0.547453
O5    O     O_3   0.927814 0.257964 0.481624 -0.622180
O6    O     O_3   0.059738 0.350332 0.707673 -0.628115
O7    O     O_3   0.593870 0.139891 0.293507 -0.572395
O8    O     O_R   0.499990 0.316750 0.385360 -0.606379
O9    O     O_R   0.376780 0.500000 0.614650 -0.517646
O10   O     O_R   0.376770 0.499980 0.385310 -0.654570
O11   O     O_R   0.500010 0.683250 0.614640 -0.598708
O12   O     O_R   0.500000 0.683220 0.385310 -0.575245
O13   O     O_R   0.623230 0.500020 0.614690 -0.628062
O14   O     O_R   0.623220 0.500000 0.385350 -0.623697
O15   O     O_3   0.352668 0.773450 0.675774 -0.592110
Zn1   Zn    Zn3+2 0.500010 0.500020 0.653130 1.005563
Zn2   Zn    Zn3+2 0.499990 0.499980 0.346870 0.969898

loop_
_geom_bond_atom_site_label_1
_geom_bond_atom_site_label_2
_ccdc_geom_bond_type
C33   H14   S    
C23   H17   S    
C18   N2    A    
C1    C8    S    
C15   H6    S    
C30   H30   S    
C35   O6    S    
C7    C8    A    
C33   H11   S    
O8    Zn2   S    
C12   C28   S    
C34   C40   S    
O11   Zn1   S    
C5    C6    A    
C26   C39   T    
C21   H10   S    
C2    C41   A    
C17   O4    S    
C35   H18   S    
C18   C19   A    
N1    Zn2   S    
C12   C37   S    
C30   O2    S    
C24   O5    S    
C36   O7    S    
C8    C9    A    
C31   H5    S    
C16   O12   A    
O9    Zn1   S    
C22   O13   A    
C36   H22   S    
C9    C10   A    
C5    O15   S    
N2    Zn1   S    
C9    O7    S    
C14   O3    S    
C29   H23   S    
C13   C14   A    
C16   O11   A    
C32   H7    S    
C36   H21   S    
C29   O15   S    
C30   H29   S    
C10   O2    S    
C29   H28   S    
C31   H3    S    
C13   C19   A    
C24   C25   S    
C2    H26   S    
C6    C11   A    
C36   H24   S    
C4    O10   A    
C23   C37   S    
C24   C34   S    
C35   H19   S    
C37   C38   S    
C25   C38   S    
C29   H27   S    
C11   C16   S    
C4    C26   S    
C4    O9    A    
O13   Zn1   S    
C27   C40   T    
C23   C34   S    
C17   C18   A    
C20   N1    A    
C35   H20   S    
C23   C28   S    
O14   Zn2   S    
C32   H9    S    
C41   H25   S    
C22   C27   S    
C13   H2    S    
C31   O3    S    
C33   H13   S    
C15   C17   A    
C28   O6    S    
C34   C38   S    
C1    O1    A    
C19   N1    A    
C24   C28   S    
C3    C5    A    
C25   H1    S    
C30   H31   S    
C33   O5    S    
C6    C7    A    
C1    O8    A    
C21   N2    A    
C12   C25   S    
C12   C39   S    
C2    C3    A    
C32   O4    S    
C3    H12   S    
C22   O14   A    
C20   H32   S    
C7    C41   A    
C32   H8    S    
C10   C11   A    
O1    Zn1   S    
C38   H15   S    
C20   C21   A    
O10   Zn2   S    
C31   H4    S    
C14   C15   A    
O12   Zn2   S    
C37   H16   S    
