data_mof_unit_12289.cif
_audit_creation_date              2012-10-26T21:20:08-0400
_audit_creation_method            fapswitch 2.2
_symmetry_space_group_name_H-M    P1
_symmetry_Int_Tables_number       1
_space_group_crystal_system       triclinic
_cell_length_a                    13.003549
_cell_length_b                    10.791383
_cell_length_c                    9.518449
_cell_angle_alpha                 89.968303
_cell_angle_beta                  95.980336
_cell_angle_gamma                 90.240243
_cell_volume                      1328.40762723

loop_
_atom_site_label
_atom_site_type_symbol
_atom_type_description
_atom_site_fract_x
_atom_site_fract_y
_atom_site_fract_z
_atom_type_partial_charge
C1    C     C_R   0.503097 0.262390 0.500474 0.526005
C2    C     C_R   0.699534 0.499984 0.526173 0.542149
C3    C     C_R   0.812253 0.499587 0.541278 0.000704
C4    C     C_R   0.187747 0.500413 0.458722 0.000705
C5    C     C_R   0.024547 0.504769 0.311166 -0.123768
C6    C     C_R   0.975453 0.495231 0.688834 -0.123770
C7    C     C_R   0.132015 0.504041 0.324325 -0.127055
C8    C     C_R   0.867985 0.495959 0.675675 -0.127058
C9    C     C_R   0.135286 0.497419 0.580007 -0.120205
C10   C     C_R   0.864714 0.502581 0.419993 -0.120206
C11   C     C_R   0.027894 0.498142 0.567740 0.050538
C12   C     C_R   0.496903 0.737610 0.499526 0.526005
C13   C     C_R   0.972106 0.501858 0.432260 0.050538
C14   C     C_R   0.435700 0.067302 0.401416 -0.097449
C15   C     C_R   0.564301 0.932698 0.598584 -0.097450
C16   C     C_R   0.428861 0.938474 0.400168 -0.000957
C17   C     C_R   0.571138 0.061526 0.599834 -0.000954
C18   C     C_2   0.348983 0.876582 0.300486 0.243519
C19   C     C_2   0.651010 0.123419 0.699521 0.243525
C20   C     C_R   0.495094 0.871519 0.499366 -0.038529
C21   C     C_R   0.504907 0.128480 0.500634 -0.038530
C22   C     C_R   0.431881 0.427657 0.064755 0.023484
C23   C     C_R   0.568119 0.572343 0.935244 0.023484
C24   C     C_R   0.431934 0.427658 0.915933 0.025505
C25   C     C_R   0.568066 0.572341 0.084067 0.025503
C26   C     C_R   0.300466 0.500016 0.473827 0.542149
Cu1   Cu    Cu3+1 0.500000 0.500020 0.640660 0.948735
Cu2   Cu    Cu3+1 0.500000 0.499980 0.359340 0.948732
H1    H     H_    0.377417 0.369580 0.113128 0.117069
H2    H     H_    0.615556 0.878934 0.672160 0.170268
H3    H     H_    0.329862 0.779611 0.313016 0.133334
H4    H     H_    0.670139 0.220387 0.686982 0.133327
H5    H     H_    0.377503 0.369549 0.852135 0.119147
H6    H     H_    0.622497 0.630451 0.147865 0.119147
H7    H     H_    0.622583 0.630420 0.886872 0.117069
H8    H     H_    0.822228 0.505517 0.315770 0.124210
H9    H     H_    0.177772 0.494483 0.684230 0.124209
H10   H     H_    0.828659 0.493524 0.770517 0.132961
H11   H     H_    0.171341 0.506475 0.229483 0.132961
H12   H     H_    0.982568 0.507639 0.206691 0.109807
H13   H     H_    0.017432 0.492361 0.793309 0.109807
H14   H     H_    0.384445 0.121066 0.327840 0.170271
N1    N     N_R   0.500030 0.500030 0.852080 -0.227989
N2    N     N_R   0.499970 0.499970 0.147920 -0.227990
O1    O     O_R   0.499990 0.319660 0.618740 -0.508221
O2    O     O_2   0.697740 0.066071 0.796611 -0.506111
O3    O     O_R   0.500010 0.680340 0.381260 -0.508225
O4    O     O_R   0.499990 0.319630 0.381170 -0.494925
O5    O     O_R   0.500010 0.680370 0.618830 -0.494924
O6    O     O_R   0.349000 0.499990 0.599490 -0.505698
O7    O     O_R   0.651000 0.500010 0.400510 -0.505698
O8    O     O_R   0.348990 0.499960 0.361920 -0.516521
O9    O     O_R   0.651010 0.500040 0.638080 -0.516521
O10   O     O_2   0.302235 0.933933 0.203414 -0.506112

loop_
_geom_bond_atom_site_label_1
_geom_bond_atom_site_label_2
_ccdc_geom_bond_type
C4    C26   S    
Cu1   O9    S    
C1    O4    A    
C1    C21   S    
C22   H1    S    
C26   O8    A    
C9    C11   A    
C5    C13   A    
C24   H5    S    
Cu1   O6    S    
C16   C20   A    
C25   H6    S    
C14   H14   S    
C1    O1    A    
C12   C20   S    
C26   O6    A    
C9    H9    S    
C2    C3    S    
C19   O2    D    
Cu2   O3    S    
C3    C10   A    
Cu2   O8    S    
Cu1   O1    S    
C8    H10   S    
C4    C7    A    
C6    C8    A    
C19   H4    S    
C14   C21   A    
C17   C19   S    
Cu2   N2    S    
C12   O5    A    
C23   H7    S    
C23   C25   A    
C15   C20   A    
Cu2   O7    S    
C14   C16   A    
C5    H12   S    
C2    O7    A    
C18   O10   D    
Cu1   N1    S    
C11   C13   A    
C23   N1    A    
C25   N2    A    
C15   H2    S    
C16   C18   S    
C3    C8    A    
C22   C24   A    
C6    H13   S    
C6    C11   A    
C5    C7    A    
C24   N1    A    
C7    H11   S    
Cu2   O4    S    
C10   H8    S    
C18   H3    S    
C4    C9    A    
C15   C17   A    
C2    O9    A    
C22   N2    A    
Cu1   O5    S    
C12   O3    A    
Cu1   Cu2   S    
C10   C13   A    
C17   C21   A    
