data_mof_unit_52076.cif
_audit_creation_date              2013-03-05T16:41:02-0500
_audit_creation_method            fapswitch 2.2
_symmetry_space_group_name_H-M    P1
_symmetry_Int_Tables_number       1
_space_group_crystal_system       triclinic
_cell_length_a                    18.778002
_cell_length_b                    18.611222
_cell_length_c                    18.827888
_cell_angle_alpha                 109.298014
_cell_angle_beta                  109.579573
_cell_angle_gamma                 109.008574
_cell_volume                      5097.8997324

loop_
_atom_site_label
_atom_site_type_symbol
_atom_site_description
_atom_site_fract_x
_atom_site_fract_y
_atom_site_fract_z
_atom_type_partial_charge
O1    O     O_R   0.408360 0.551710 0.460090 -0.650981
O2    O     O_R   0.408400 0.448280 0.356670 -0.572984
C1    C     C_R   0.380251 0.501505 0.380520 0.935819
O3    O     O_R   0.591600 0.643340 0.551710 -0.633220
O4    O     O_R   0.591630 0.539900 0.448290 -0.623318
C2    C     C_R   0.623242 0.620692 0.503798 0.903770
Zn1   Zn    Zn3+2 0.499980 0.569060 0.569060 1.016146
Zn2   Zn    Zn3+2 0.500020 0.430940 0.430940 1.128754
O5    O     O_R   0.591600 0.551720 0.643330 -0.640620
O6    O     O_R   0.591640 0.448290 0.539910 -0.593204
O7    O     O_R   0.408370 0.460100 0.551710 -0.645915
O8    O     O_R   0.408400 0.356660 0.448290 -0.547026
C3    C     C_R   0.615564 0.495632 0.620183 0.916856
C4    C     C_R   0.378509 0.379873 0.498623 0.964201
C5    C     C_R   0.669744 0.835734 0.737126 -0.192237
H1    H     H_    0.612184 0.839843 0.732013 0.201147
C6    C     C_R   0.680735 0.815118 0.664777 -0.075026
C7    C     C_R   0.747984 0.797474 0.665128 0.049633
C8    C     C_R   0.812848 0.816692 0.743912 -0.139371
C9    C     C_R   0.808577 0.848763 0.820688 0.283016
C10   C     C_R   0.730879 0.848329 0.814435 0.273505
C11   C     C_R   0.822669 0.826954 0.582555 0.294216
C12   C     C_R   0.814290 0.814226 0.501346 -0.165749
C13   C     C_R   0.740309 0.742071 0.423502 0.034506
C14   C     C_R   0.686680 0.675119 0.428527 -0.187641
H2    H     H_    0.633585 0.616252 0.368935 0.167144
C15   C     C_R   0.690989 0.688942 0.507289 -0.085380
C16   C     C_R   0.754856 0.769153 0.584828 -0.042350
C17   C     C_R   0.625679 0.727139 0.292666 0.358054
C18   C     C_R   0.595432 0.717626 0.209460 -0.284041
H3    H     H_    0.531287 0.708890 0.175580 0.229461
C19   C     C_R   0.646417 0.718946 0.169512 0.209576
C20   C     C_R   0.729510 0.729715 0.214488 0.282939
C21   C     C_R   0.759618 0.737976 0.297098 -0.318227
H4    H     H_    0.823523 0.746672 0.330730 0.162558
C22   C     C_R   0.709274 0.737795 0.337529 -0.017118
H5    H     H_    0.496849 0.898068 0.609329 0.219874
C23   C     C_R   0.415418 0.761364 0.556501 -0.113843
C24   C     C_R   0.365751 0.678841 0.482778 -0.068840
C25   C     C_R   0.367257 0.666444 0.405608 0.051955
C26   C     C_R   0.411066 0.740859 0.401148 -0.130580
H6    H     H_    0.406279 0.733421 0.340042 0.223884
C27   C     C_R   0.456085 0.825161 0.473347 0.359703
C28   C     C_R   0.461001 0.834239 0.552147 -0.142517
C29   C     C_R   0.249472 0.574691 0.254895 -0.186148
H7    H     H_    0.249660 0.634209 0.258493 0.184635
C30   C     C_R   0.183338 0.494712 0.183327 -0.122413
C31   C     C_R   0.174037 0.415267 0.180475 -0.085951
C32   C     C_R   0.241228 0.418095 0.244703 0.233667
C33   C     C_R   0.309717 0.499973 0.316659 -0.205305
C34   C     C_R   0.309724 0.578910 0.325252 0.014771
C35   C     C_R   0.045167 0.287740 0.150164 -0.217234
H8    H     H_    0.072339 0.313941 0.219269 0.165155
C36   C     C_R   0.962112 0.214353 0.094177 0.257618
C37   C     C_R   0.925420 0.181300 0.003492 0.244074
C38   C     C_R   0.972427 0.224152 0.972093 -0.134935
C39   C     C_R   0.054028 0.298164 0.028940 -0.086501
H9    H     H_    0.086610 0.332588 0.003624 0.114100
C40   C     C_R   0.091070 0.331065 0.118346 0.118411
H10   H     H_    0.161051 0.564632 0.469073 0.191531
C41   C     C_R   0.241862 0.535283 0.555147 0.344666
C42   C     C_R   0.262039 0.470078 0.560729 -0.138442
C43   C     C_R   0.220586 0.387569 0.487197 0.046975
C44   C     C_R   0.156099 0.369299 0.408738 -0.088958
C45   C     C_R   0.135499 0.433462 0.402820 -0.194419
H11   H     H_    0.085656 0.419187 0.342242 0.166667
C46   C     C_R   0.178205 0.515995 0.475312 -0.151710
C47   C     C_R   0.174430 0.249750 0.489796 -0.176149
H12   H     H_    0.116228 0.252254 0.485430 0.177464
C48   C     C_R   0.186236 0.181233 0.495033 -0.100585
C49   C     C_R   0.261509 0.176508 0.501249 -0.018320
C50   C     C_R   0.324992 0.242556 0.501931 0.297573
C51   C     C_R   0.313389 0.313172 0.499386 -0.186219
C52   C     C_R   0.237972 0.317075 0.493655 0.005086
C53   C     C_R   0.311334 0.113081 0.596180 0.346878
C54   C     C_R   0.319537 0.042858 0.602700 -0.283404
C55   C     C_R   0.298651 0.968315 0.530244 0.213682
C56   C     C_R   0.269679 0.965204 0.448934 0.297201
C57   C     C_R   0.257468 0.033256 0.441206 -0.282501
C58   C     C_R   0.277594 0.107025 0.513615 -0.018389
C59   C     C_R   0.536527 0.584119 0.819056 0.306433
C60   C     C_R   0.598031 0.574648 0.796761 -0.125076
C61   C     C_R   0.607846 0.500353 0.782437 -0.121556
C62   C     C_R   0.563102 0.440231 0.803795 0.244241
C63   C     C_R   0.505332 0.453272 0.833187 0.248701
C64   C     C_R   0.490763 0.523494 0.837245 -0.256705
C65   C     C_R   0.744069 0.495242 0.820703 -0.078588
H13   H     H_    0.742478 0.495295 0.877567 0.215448
C66   C     C_R   0.815535 0.499406 0.811217 -0.099970
C67   C     C_R   0.821864 0.503949 0.739888 0.092619
C68   C     C_R   0.752709 0.499713 0.677540 -0.160116
C69   C     C_R   0.681206 0.495666 0.687169 -0.045715
C70   C     C_R   0.676720 0.495281 0.760938 0.129139
C71   C     C_R   0.978551 0.586254 0.780828 -0.149098
C72   C     C_R   0.046072 0.598090 0.761332 0.275983
C73   C     C_R   0.030777 0.533222 0.683676 0.318714
C74   C     C_R   0.947670 0.460189 0.626593 -0.250115
C75   C     C_R   0.881628 0.448850 0.647276 -0.137850
C76   C     C_R   0.896512 0.511142 0.725234 0.090123
O9    O     O_R   0.051730 0.908360 0.460060 -0.650066
O10   O     O_R   0.948280 0.908380 0.356650 -0.585332
C77   C     C_R   0.999681 0.878982 0.380458 0.818151
O11   O     O_R   0.960110 0.908350 0.551690 -0.580781
O12   O     O_R   0.856660 0.908370 0.448270 -0.591323
C78   C     C_R   0.879986 0.879290 0.499596 0.916443
Zn3   Zn    Zn3+2 0.069070 0.999960 0.569030 1.095404
Zn4   Zn    Zn3+2 0.930930 0.999990 0.430930 1.075414
O13   O     O_R   0.051720 0.091580 0.643310 -0.573477
O14   O     O_R   0.948270 0.091600 0.539890 -0.635361
O15   O     O_R   0.143340 0.091590 0.551680 -0.617900
O16   O     O_R   0.039890 0.091610 0.448270 -0.614944
C79   C     C_R   0.000678 0.121663 0.619422 0.952195
C80   C     C_R   0.120008 0.117425 0.497336 0.869729
O17   O     O_R   0.051730 0.460050 0.908360 -0.590781
O18   O     O_R   0.948290 0.356630 0.908390 -0.597667
C81   C     C_R   0.004112 0.380077 0.884024 0.879664
O19   O     O_R   0.143340 0.551690 0.091580 -0.608496
O20   O     O_R   0.039900 0.448270 0.091610 -0.638608
C82   C     C_R   0.119362 0.497451 0.118031 0.846327
Zn5   Zn    Zn3+2 0.069070 0.569030 0.999960 1.086992
Zn6   Zn    Zn3+2 0.930930 0.430930 0.000000 1.104996
O21   O     O_R   0.051710 0.643320 0.091560 -0.615489
O22   O     O_R   0.948270 0.539900 0.091590 -0.600661
O23   O     O_R   0.960100 0.551680 0.908340 -0.654752
O24   O     O_R   0.856660 0.448270 0.908370 -0.552283
C83   C     C_R   0.999554 0.620361 0.119499 0.887042
C84   C     C_R   0.880581 0.498124 0.877400 0.949915
C85   C     C_R   0.037549 0.743636 0.532825 -0.146234
C86   C     C_R   0.050798 0.758628 0.469066 -0.120361
H14   H     H_    0.114950 0.804353 0.485937 0.193809
C87   C     C_R   0.981229 0.716484 0.384587 0.061760
C88   C     C_R   0.899686 0.654630 0.363276 -0.242372
C89   C     C_R   0.886158 0.639856 0.426951 -0.219234
C90   C     C_R   0.954710 0.685033 0.512758 0.373328
C91   C     C_R   0.991023 0.672593 0.251022 -0.125726
C92   C     C_R   0.999206 0.687029 0.185169 0.009137
C93   C     C_R   0.008005 0.764704 0.183756 0.120216
C94   C     C_R   0.009089 0.827434 0.249791 -0.110373
C95   C     C_R   0.001451 0.813109 0.315874 -0.059426
C96   C     C_R   0.993354 0.735761 0.317777 0.053403
C97   C     C_R   0.102676 0.833797 0.133855 -0.144753
C98   C     C_R   0.116846 0.846699 0.070083 -0.112173
C99   C     C_R   0.047325 0.808816 0.987378 -0.125270
C100  C     C_R   0.961589 0.758875 0.967171 0.254920
C101  C     C_R   0.947002 0.746399 0.032722 0.224819
C102  C     C_R   0.018604 0.782513 0.115639 -0.068377
C103  C     C_R   0.292006 0.518856 0.007550 -0.142908
C104  C     C_R   0.213390 0.459820 0.929441 0.342577
C105  C     C_R   0.167071 0.371953 0.910134 -0.181939
C106  C     C_R   0.207838 0.342653 0.964525 0.251395
C107  C     C_R   0.287186 0.404028 0.041520 -0.145571
C108  C     C_R   0.327857 0.491288 0.063385 -0.205818
C109  C     C_R   0.076964 0.245328 0.763451 -0.062208
C110  C     C_R   0.000855 0.190109 0.683895 -0.134758
C111  C     C_R   0.927561 0.201912 0.667235 -0.008833
C112  C     C_R   0.926962 0.259416 0.736299 0.275556
C113  C     C_R   0.004051 0.314724 0.816898 -0.195124
C114  C     C_R   0.080941 0.310153 0.829785 0.068355
C115  C     C_R   0.882750 0.233269 0.547411 -0.179270
H15   H     H_    0.943132 0.294598 0.587727 0.179397
C116  C     C_R   0.825452 0.213903 0.465478 -0.184570
H16   H     H_    0.841216 0.259979 0.442661 0.181577
C117  C     C_R   0.748594 0.134505 0.412043 -0.177120
C118  C     C_R   0.728292 0.072894 0.439590 0.244424
C119  C     C_R   0.785121 0.093257 0.524154 0.288550
C120  C     C_R   0.863210 0.174348 0.577973 0.015233
N1    N     N_R   0.711271 0.856513 0.883351 0.280644
O25   O     O_R   0.660129 0.887983 0.891519 -0.227119
O26   O     O_R   0.728012 0.815261 0.924987 -0.237680
N2    N     N_R   0.612210 0.707318 0.083212 0.246453
O27   O     O_R   0.548541 0.722163 0.052880 -0.294826
O28   O     O_R   0.638873 0.674765 0.031713 -0.287401
N3    N     N_R   0.785046 0.734377 0.178010 0.249071
O29   O     O_R   0.814846 0.799725 0.165219 -0.279331
O30   O     O_R   0.812938 0.678437 0.166155 -0.360059
H17   H     H_    0.416137 0.769313 0.616378 0.219512
H18   H     H_    0.325865 0.624494 0.485932 0.152390
N4    N     N_R   0.492265 0.901141 0.465316 0.258961
O31   O     O_R   0.521635 0.978715 0.527704 -0.279397
O32   O     O_R   0.489059 0.892922 0.392784 -0.245349
N5    N     N_R   0.238020 0.337523 0.237659 0.217023
O33   O     O_R   0.223740 0.278248 0.165908 -0.302153
O34   O     O_R   0.242588 0.320349 0.300119 -0.420052
N6    N     N_R   0.914310 0.178327 0.130851 0.249096
O35   O     O_R   0.954306 0.174862 0.199962 -0.354275
O36   O     O_R   0.835017 0.163853 0.105167 -0.282921
N7    N     N_R   0.842364 0.103938 0.942907 0.235655
O37   O     O_R   0.815149 0.042990 0.961817 -0.261127
O38   O     O_R   0.798187 0.089228 0.864791 -0.323044
H19   H     H_    0.945619 0.200562 0.903157 0.221539
N8    N     N_R   0.284862 0.620173 0.630080 0.225332
O39   O     O_R   0.264469 0.679571 0.625367 -0.322246
O40   O     O_R   0.343890 0.638505 0.704092 -0.271044
H20   H     H_    0.309427 0.482980 0.622123 0.189059
H21   H     H_    0.121335 0.304963 0.352441 0.204694
H22   H     H_    0.633323 0.807119 0.606307 0.187980
N9    N     N_R   0.403201 0.240464 0.510037 0.229733
O41   O     O_R   0.399314 0.174319 0.452901 -0.314094
O42   O     O_R   0.478621 0.307747 0.570316 -0.366430
N10   N     N_R   0.333897 0.187641 0.673128 0.247025
O43   O     O_R   0.336377 0.180495 0.740279 -0.297228
O44   O     O_R   0.354622 0.263626 0.678089 -0.377455
H23   H     H_    0.343350 0.046824 0.665523 0.244653
N11   N     N_R   0.309431 0.898728 0.541663 0.214288
O45   O     O_R   0.348300 0.909843 0.619205 -0.349953
O46   O     O_R   0.275491 0.821946 0.475892 -0.358034
N12   N     N_R   0.257641 0.896789 0.374860 0.225081
O47   O     O_R   0.188985 0.820294 0.332103 -0.417200
O48   O     O_R   0.306259 0.915432 0.340963 -0.313215
H24   H     H_    0.233194 0.029150 0.378213 0.196349
H25   H     H_    0.444781 0.532271 0.856757 0.238864
N13   N     N_R   0.521271 0.655924 0.823929 0.265683
O49   O     O_R   0.484665 0.680635 0.867550 -0.210657
O50   O     O_R   0.537983 0.692838 0.779332 -0.371208
H26   H     H_    0.639904 0.627056 0.792549 0.236859
H27   H     H_    0.868675 0.810433 0.745939 0.250399
N14   N     N_R   0.577102 0.367339 0.796479 0.239911
O51   O     O_R   0.555319 0.307492 0.721184 -0.266678
O52   O     O_R   0.625364 0.368898 0.865868 -0.302758
N15   N     N_R   0.459728 0.395925 0.857819 0.271326
O53   O     O_R   0.388657 0.391379 0.856731 -0.335482
O54   O     O_R   0.491956 0.353902 0.888704 -0.238058
H28   H     H_    0.756020 0.502811 0.622058 0.177241
H29   H     H_    0.989515 0.637750 0.838126 0.198623
N16   N     N_R   0.127167 0.678448 0.817937 0.260083
O55   O     O_R   0.154795 0.719109 0.900720 -0.357692
O56   O     O_R   0.166845 0.717842 0.785917 -0.229841
N17   N     N_R   0.098527 0.539326 0.662535 0.239762
O57   O     O_R   0.177087 0.569837 0.722792 -0.223422
O58   O     O_R   0.079319 0.502081 0.581842 -0.402479
H30   H     H_    0.934045 0.411430 0.565711 0.182705
H31   H     H_    0.818083 0.391819 0.601577 0.192893
N18   N     N_R   0.940299 0.671563 0.578888 0.210285
O59   O     O_R   0.003190 0.714915 0.658740 -0.324276
O60   O     O_R   0.863697 0.617276 0.560294 -0.418614
N19   N     N_R   0.885670 0.888840 0.903291 0.247245
O61   O     O_R   0.887172 0.926765 0.975893 -0.258382
O62   O     O_R   0.959524 0.903228 0.906278 -0.320372
H32   H     H_    0.091965 0.778422 0.597953 0.214153
H33   H     H_    0.845876 0.619428 0.297671 0.199654
H34   H     H_    0.821872 0.593636 0.409168 0.195145
H35   H     H_    0.984280 0.612493 0.251188 0.150099
H36   H     H_    0.016004 0.887668 0.249865 0.162895
H37   H     H_    0.157643 0.862401 0.197261 0.218273
H38   H     H_    0.182229 0.885457 0.084504 0.212150
H39   H     H_    0.060749 0.819280 0.938969 0.239773
N20   N     N_R   0.891866 0.720068 0.879955 0.194648
O63   O     O_R   0.908927 0.719336 0.818272 -0.405868
O64   O     O_R   0.811549 0.690810 0.861874 -0.391126
N21   N     N_R   0.896590 0.901659 0.661786 0.207588
O65   O     O_R   0.887995 0.964144 0.708429 -0.283465
O66   O     O_R   0.968062 0.899109 0.694944 -0.308443
N22   N     N_R   0.860820 0.698609 0.016296 0.229802
O67   O     O_R   0.810164 0.732699 0.008559 -0.192169
O68   O     O_R   0.837583 0.627980 0.022255 -0.398063
H40   H     H_    0.389110 0.537263 0.122679 0.216824
H41   H     H_    0.327374 0.586292 0.024185 0.209520
N23   N     N_R   0.183950 0.489442 0.869354 0.231350
O69   O     O_R   0.141960 0.436759 0.786075 -0.379241
O70   O     O_R   0.207177 0.571822 0.897583 -0.318063
N24   N     N_R   0.171419 0.252025 0.943509 0.226461
O71   O     O_R   0.088799 0.197143 0.893186 -0.357967
O72   O     O_R   0.221160 0.224542 0.978745 -0.276024
H42   H     H_    0.318062 0.384244 0.085356 0.209389
H43   H     H_    0.134795 0.239570 0.773444 0.192553
N25   N     N_R   0.849544 0.265380 0.722518 0.214010
O73   O     O_R   0.776627 0.195798 0.690564 -0.276045
O74   O     O_R   0.850041 0.338402 0.734574 -0.428681
H44   H     H_    0.706045 0.119748 0.347626 0.212410
N26   N     N_R   0.652983 0.988311 0.379236 0.253063
O75   O     O_R   0.585690 0.979633 0.319024 -0.281169
O76   O     O_R   0.657352 0.918669 0.374198 -0.314173
N27   N     N_R   0.763067 0.033134 0.555281 0.244122
O77   O     O_R   0.821038 0.017334 0.597433 -0.363309
O78   O     O_R   0.685270 0.995412 0.543535 -0.240956
N28   N     N_R   0.570034 0.724696 0.329887 0.221972
O79   O     O_R   0.487189 0.670226 0.281333 -0.465933
O80   O     O_R   0.600531 0.779877 0.410597 -0.336117

loop_
_geom_bond_atom_site_label_1
_geom_bond_atom_site_label_2
_geom_bond_distance
_ccdc_geom_bond_type
O10   Zn4   2.014987 S    
C57   H24   1.084135 S    
C65   H13   1.080689 S    
C27   N4    1.438206 S    
O21   C83   1.280519 A    
O10   C77   1.283766 A    
O18   Zn6   2.021753 S    
Zn6   O24   2.018432 S    
Zn4   O14   2.024931 S    
C51   C52   1.411467 A    
C24   H18   1.078679 S    
N23   O70   1.301463 A    
C72   C73   1.415514 A    
C20   C21   1.399429 A    
C53   C54   1.404061 A    
C85   C86   1.398990 A    
N15   O54   1.299667 A    
C116  H16   1.082076 S    
C67   C68   1.386007 A    
C54   H23   1.082008 S    
C105  C106  1.430965 A    
C91   C92   1.397881 A    
N1    O26   1.301021 A    
C53   N10   1.442518 S    
C74   H30   1.080530 S    
C55   C56   1.416213 A    
N19   O61   1.300371 A    
C85   H32   1.082333 S    
Zn1   O7    2.022708 S    
C17   C22   1.419408 A    
C119  C120  1.416468 A    
Zn3   O13   2.015113 S    
C117  H44   1.082679 S    
C61   C62   1.425164 A    
C73   N17   1.437011 S    
C91   H35   1.085123 S    
C118  C119  1.419990 A    
C63   N15   1.444137 S    
C99   C100  1.407671 A    
C7    C8    1.402281 A    
C103  C108  1.388793 A    
O19   C82   1.286954 A    
C63   C64   1.403448 A    
N22   O67   1.299977 A    
O7    C4    1.278831 A    
C39   C40   1.396026 A    
N2    O27   1.301428 A    
C29   C34   1.381992 A    
C111  C120  1.487628 S    
C47   C52   1.380876 A    
O18   C81   1.286983 A    
C61   C70   1.500190 S    
C44   H21   1.082384 S    
C74   C75   1.393439 A    
N6    O35   1.301324 A    
C6    C7    1.403043 A    
C21   H4    1.078729 S    
C26   H6    1.080821 S    
C98   C99   1.392249 A    
C108  H40   1.080890 S    
C109  C114  1.379794 A    
N9    O42   1.299978 A    
O5    C3    1.272324 A    
O20   C82   1.274207 A    
O12   C78   1.278683 A    
C118  N26   1.435146 S    
C87   C96   1.483207 S    
C103  C104  1.403415 A    
C89   H34   1.082413 S    
C50   N9    1.439633 S    
C56   N12   1.429992 S    
Zn3   O15   2.020938 S    
Zn5   O23   2.025503 S    
C113  C114  1.417607 A    
C30   C31   1.411584 A    
H10   C46   1.082490 S    
Zn5   O21   2.021540 S    
N10   O43   1.301563 A    
C45   C46   1.394152 A    
C11   C16   1.398295 A    
C12   C13   1.414405 A    
C115  C116  1.390935 A    
C13   C14   1.378464 A    
C48   C49   1.412882 A    
N27   O77   1.298100 A    
C37   N7    1.437322 S    
C17   C18   1.401067 A    
C20   N3    1.423813 S    
C105  C114  1.491838 S    
C32   N5    1.440211 S    
C21   C22   1.398254 A    
C59   C64   1.396363 A    
C2    C15   1.439545 S    
O13   C79   1.288990 A    
C41   C42   1.408690 A    
C17   N28   1.437314 S    
C29   C30   1.386412 A    
C107  C108  1.389108 A    
C83   C92   1.437017 S    
N13   O49   1.301215 A    
N21   O65   1.300737 A    
C79   C110  1.438320 S    
C71   H29   1.078862 S    
C26   C27   1.407212 A    
C101  N22   1.432063 S    
C71   C72   1.405106 A    
O3    Zn1   2.025730 S    
C64   H25   1.082575 S    
C8    H27   1.081514 S    
N17   O58   1.300985 A    
N15   O53   1.302147 A    
C116  C117  1.390558 A    
C1    C33   1.444355 S    
C35   C36   1.402821 A    
C101  C102  1.416911 A    
C66   C84   1.436580 S    
N20   O64   1.298246 A    
C48   C80   1.437665 S    
C91   C96   1.384420 A    
N16   O56   1.301329 A    
C38   H19   1.082691 S    
C111  C112  1.390742 A    
C97   H37   1.081701 S    
Zn6   O22   2.018588 S    
N19   O62   1.301554 A    
N12   O47   1.299323 A    
C4    C51   1.439187 S    
N4    O31   1.301766 A    
C93   C102  1.484372 S    
C23   C24   1.394822 A    
C54   C55   1.405550 A    
O16   C80   1.285271 A    
N25   O73   1.300632 A    
O19   Zn5   2.018306 S    
C104  N23   1.442571 S    
N1    O25   1.301856 A    
N24   O72   1.301678 A    
C56   C57   1.402312 A    
C88   C89   1.397829 A    
O22   C83   1.283467 A    
C33   C34   1.423807 A    
C14   H2    1.086015 S    
N5    O33   1.301291 A    
N5    O34   1.300447 A    
C59   C60   1.396346 A    
N8    O39   1.301682 A    
O17   C81   1.277681 A    
O1    C1    1.272625 A    
O20   Zn6   2.025501 S    
C112  C113  1.408001 A    
C103  H41   1.082677 S    
C109  H43   1.085525 S    
C27   C28   1.403782 A    
C72   N16   1.437583 S    
C23   C28   1.393974 A    
C42   C43   1.405197 A    
C35   C40   1.401642 A    
C85   C90   1.407335 A    
N28   O79   1.300174 A    
C41   C46   1.405957 A    
C23   H17   1.082247 S    
C115  H15   1.082618 S    
O8    C4    1.282049 A    
C18   H3    1.083100 S    
Zn2   O8    2.025733 S    
C98   H38   1.082424 S    
C73   C74   1.402324 A    
C9    C10   1.420989 A    
C37   C38   1.402686 A    
O9    C77   1.276288 A    
N16   O55   1.301473 A    
N28   O80   1.301517 A    
C49   C58   1.491321 S    
C7    C16   1.492840 S    
O11   C78   1.283933 A    
C13   C22   1.489467 S    
C62   C63   1.423733 A    
O24   C84   1.290084 A    
C53   C58   1.417115 A    
N18   O60   1.301709 A    
O15   C80   1.277494 A    
C110  C111  1.412096 A    
N3    O30   1.299238 A    
N25   O74   1.298078 A    
C97   C102  1.400034 A    
O23   C84   1.275229 A    
C75   H31   1.083493 S    
C107  H42   1.082635 S    
C47   C48   1.391964 A    
C25   C26   1.408159 A    
C112  N25   1.436795 S    
N11   O46   1.299937 A    
C75   C76   1.402057 A    
C66   C67   1.414324 A    
C65   C66   1.393146 A    
C3    C69   1.437715 S    
C89   C90   1.406167 A    
C94   C95   1.397730 A    
C32   C33   1.415119 A    
C36   N6    1.435754 S    
C57   C58   1.402110 A    
O14   C79   1.274228 A    
O3    C2    1.271030 A    
N14   O52   1.301241 A    
C38   C39   1.393654 A    
C42   H20   1.083335 S    
C68   H28   1.085996 S    
C87   C88   1.401958 A    
C41   N8    1.438999 S    
C55   N11   1.445735 S    
C67   C76   1.490086 S    
C68   C69   1.395570 A    
C35   H8    1.079184 S    
C31   C40   1.492608 S    
N22   O68   1.299043 A    
C86   H14   1.083208 S    
N18   O59   1.301356 A    
Zn1   O5    2.016675 S    
C19   N2    1.441191 S    
C36   C37   1.417597 A    
C31   C32   1.396102 A    
C9    N19   1.446280 S    
C11   C12   1.411994 A    
Zn4   O16   2.027838 S    
C47   H12   1.085780 S    
Zn2   O6    2.026823 S    
O2    Zn2   2.016673 S    
N13   O50   1.301133 A    
C50   C51   1.413578 A    
O6    C3    1.292019 A    
O4    Zn2   2.022705 S    
N4    O32   1.301049 A    
C95   C96   1.411327 A    
C99   H39   1.082379 S    
C11   N21   1.438497 S    
C43   C52   1.483412 S    
C14   C15   1.387677 A    
C25   C34   1.496341 S    
C93   C94   1.384703 A    
O9    Zn3   2.024971 S    
C10   N1    1.438211 S    
C115  C120  1.401694 A    
C100  C101  1.423631 A    
C19   C20   1.410815 A    
C8    C9    1.410972 A    
O2    C1    1.291686 A    
N14   O51   1.299426 A    
C81   C113  1.434849 S    
C97   C98   1.390397 A    
N8    O40   1.300394 A    
C18   C19   1.400877 A    
C60   H26   1.081310 S    
C39   H9    1.074218 S    
O4    C2    1.292144 A    
N2    O28   1.300990 A    
C71   C76   1.404377 A    
H5    C28   1.082331 S    
O1    Zn1   2.026819 S    
C65   C70   1.383088 A    
C44   C45   1.395715 A    
C30   C82   1.431307 S    
C69   C70   1.421560 A    
N27   O78   1.299501 A    
C90   N18   1.440216 S    
N6    O36   1.301322 A    
N23   O69   1.301233 A    
O11   Zn3   2.027750 S    
N26   O76   1.299576 A    
C77   C95   1.432128 S    
C45   H11   1.081534 S    
C88   H33   1.083188 S    
N9    O41   1.300601 A    
N7    O38   1.301715 A    
C117  C118  1.403569 A    
C62   N14   1.435816 S    
C106  N24   1.447512 S    
N17   O57   1.300991 A    
C43   C44   1.401801 A    
C24   C25   1.405469 A    
C29   H7    1.085956 S    
C5    C10   1.403829 A    
C59   N13   1.436099 S    
C49   C50   1.398915 A    
N11   O45   1.301851 A    
N10   O44   1.299947 A    
C60   C61   1.404095 A    
C100  N20   1.446182 S    
C15   C16   1.420532 A    
N12   O48   1.300664 A    
N24   O71   1.300319 A    
N26   O75   1.301512 A    
C92   C93   1.410885 A    
C6    H22   1.084045 S    
N7    O37   1.298417 A    
C119  N27   1.435714 S    
C109  C110  1.390431 A    
C5    C6    1.392799 A    
N3    O29   1.300334 A    
N21   O66   1.301042 A    
C104  C105  1.425333 A    
O12   Zn4   2.020686 S    
O17   Zn5   2.018801 S    
C94   H36   1.085167 S    
C5    H1    1.082753 S    
N20   O63   1.301295 A    
C106  C107  1.405524 A    
C86   C87   1.402485 A    
C12   C78   1.438683 S    
