data_mof_unit_52907.cif
_audit_creation_date              2012-12-10T17:51:33-0500
_audit_creation_method            fapswitch 2.2
_symmetry_space_group_name_H-M    P1
_symmetry_Int_Tables_number       1
_space_group_crystal_system       triclinic
_cell_length_a                    9.914659
_cell_length_b                    10.713145
_cell_length_c                    16.768533
_cell_angle_alpha                 92.22751
_cell_angle_beta                  85.76208
_cell_angle_gamma                 90.764177
_cell_volume                      1774.79630907

loop_
_atom_site_label
_atom_site_type_symbol
_atom_type_description
_atom_site_fract_x
_atom_site_fract_y
_atom_site_fract_z
_atom_type_partial_charge
C1    C     C_R   0.500903 0.739393 0.493578 0.864004
C2    C     C_R   0.526345 0.457248 0.261987 -0.040736
C3    C     C_R   0.261656 0.880092 0.449102 -0.241894
C4    C     C_R   0.481746 0.498008 0.653164 0.879466
C5    C     C_R   0.134375 0.934164 0.463308 -0.044299
C6    C     C_R   0.121635 0.046884 0.509544 0.446266
C7    C     C_R   0.238927 0.109402 0.531073 -0.179088
C8    C     C_R   0.368688 0.059652 0.509610 0.014483
C9    C     C_R   0.377015 0.936118 0.480993 0.074981
C10   C     C_R   0.499984 0.872772 0.487702 -0.086601
C11   C     C_R   0.617815 0.938321 0.504425 -0.212476
C12   C     C_R   0.351490 0.415480 0.770534 -0.287408
C13   C     C_R   0.614488 0.065575 0.514724 -0.193476
C14   C     C_R   0.491546 0.127468 0.515182 -0.100564
C15   C     C_R   0.849672 0.669694 0.601587 -0.075013
C16   C     C_R   0.497460 0.260679 0.507024 0.890298
C17   C     C_R   0.914797 0.754543 0.650976 -0.177593
C18   C     C_R   0.054285 0.753645 0.651721 -0.202575
C19   C     C_R   0.129442 0.668225 0.602848 -0.136944
C20   C     C_R   0.067159 0.583425 0.550248 0.137362
C21   C     C_R   0.922714 0.583643 0.550022 0.144749
C22   C     C_R   0.932844 0.419362 0.451950 -0.005800
C23   C     C_R   0.416779 0.357075 0.152276 -0.146306
C24   C     C_R   0.076630 0.418792 0.452368 -0.016356
C25   C     C_R   0.518042 0.494343 0.346801 0.870185
C26   C     C_R   0.470523 0.472693 0.738226 -0.076659
C27   C     C_R   0.581467 0.492104 0.785253 0.440911
C28   C     C_R   0.572516 0.449461 0.863219 -0.260325
C29   C     C_R   0.454998 0.388088 0.893876 0.157257
C30   C     C_R   0.343820 0.373903 0.847923 -0.180672
C31   C     C_1   0.019740 0.870857 0.431122 0.130777
C32   C     C_1   0.865305 0.332940 0.399621 0.258253
C33   C     C_1   0.153651 0.328154 0.402821 0.249537
C34   C     C_R   0.409309 0.411633 0.228384 -0.186180
C35   C     C_R   0.651511 0.449331 0.217373 -0.175885
C36   C     C_R   0.658038 0.399751 0.139153 -0.168639
C37   C     C_R   0.540097 0.355904 0.105612 0.198407
C38   C     C_2   0.438936 0.355633 0.977699 -0.200336
C39   C     C_2   0.544922 0.329081 0.019083 -0.233101
H1    H     H_    0.754194 0.399604 0.103963 0.124448
H2    H     H_    0.235625 0.670746 0.608587 0.207710
H3    H     H_    0.743677 0.481794 0.242667 0.156566
H4    H     H_    0.643182 0.311798 0.987743 0.150796
H5    H     H_    0.251083 0.330232 0.871973 0.143288
H6    H     H_    0.324772 0.318891 0.129889 0.127131
H7    H     H_    0.265220 0.399460 0.735247 0.185145
H8    H     H_    0.339543 0.372533 0.007219 0.143811
H9    H     H_    0.655708 0.468093 0.900443 0.125297
H10   H     H_    0.763779 0.558713 0.795284 0.328759
H11   H     H_    0.925049 0.041972 0.521155 0.325778
H12   H     H_    0.712611 0.891601 0.510019 0.175712
H13   H     H_    0.269699 0.794484 0.412616 0.183470
H14   H     H_    0.226276 0.194965 0.567058 0.184863
H15   H     H_    0.708240 0.115770 0.522423 0.189495
H16   H     H_    0.742165 0.673262 0.606232 0.214433
H17   H     H_    0.856362 0.820178 0.689735 0.160923
H18   H     H_    0.311502 0.415595 0.261307 0.165854
H19   H     H_    0.104641 0.818644 0.691027 0.155705
N1    N     N_R   0.857140 0.501200 0.500750 -0.146016
N2    N     N_R   0.142740 0.501280 0.500770 -0.150515
N3    N     N_1   0.928320 0.819689 0.405091 -0.207065
N4    N     N_1   0.811975 0.263284 0.357465 -0.201867
N5    N     N_1   0.213945 0.254130 0.363251 -0.214404
O1    O     O_R   0.385310 0.683220 0.500000 -0.647745
O2    O     O_3   0.998876 0.101196 0.532987 -0.790554
O3    O     O_R   0.614640 0.683250 0.500010 -0.640842
O4    O     O_R   0.371780 0.500010 0.615800 -0.658117
O5    O     O_R   0.601110 0.500030 0.615800 -0.577252
O6    O     O_R   0.385360 0.316750 0.499990 -0.624337
O7    O     O_R   0.614690 0.316780 0.500000 -0.609869
O8    O     O_R   0.398890 0.499970 0.384200 -0.622942
O9    O     O_R   0.628220 0.499990 0.384200 -0.611638
O10   O     O_3   0.695988 0.553816 0.754616 -0.780208
Zn1   Zn    Zn3+2 0.346870 0.499980 0.499990 0.931898
Zn2   Zn    Zn3+2 0.653130 0.500020 0.500010 0.974277

loop_
_geom_bond_atom_site_label_1
_geom_bond_atom_site_label_2
_ccdc_geom_bond_type
C2    C35   A    
C23   H6    S    
C31   N3    T    
C35   C36   A    
C7    C8    A    
O5    Zn2   S    
C26   C27   A    
C22   C32   S    
C36   C37   A    
C21   N1    A    
C38   C39   D    
C18   C19   A    
C35   H3    S    
C18   H19   S    
C6    O2    S    
C28   H9    S    
C19   C20   A    
C8    C9    A    
C29   C38   S    
C34   H18   S    
C25   O8    A    
C14   C16   S    
C20   N2    A    
C9    C10   A    
C24   N2    A    
C2    C34   A    
C13   C14   A    
C30   H5    S    
O9    Zn2   S    
C1    O3    A    
C1    C10   S    
C36   H1    S    
C16   O7    A    
C12   H7    S    
C22   N1    A    
C25   O9    A    
C39   H4    S    
C23   C37   A    
C12   C26   A    
C15   H16   S    
C29   C30   A    
C3    C9    A    
C4    O4    A    
C33   N5    T    
C23   C34   A    
C17   C18   A    
O6    Zn1   S    
O4    Zn1   S    
C17   H17   S    
C38   H8    S    
C22   C24   A    
C7    H14   S    
C1    O1    A    
N1    Zn2   S    
O7    Zn2   S    
C4    O5    A    
C13   H15   S    
C15   C17   A    
C28   C29   A    
C8    C14   A    
C12   C30   A    
C16   O6    A    
C3    C5    A    
O8    Zn1   S    
C4    C26   S    
C3    H13   S    
C6    C7    A    
C24   C33   S    
C32   N4    T    
C37   C39   S    
C11   C13   A    
C5    C6    A    
O3    Zn2   S    
N2    Zn1   S    
C2    C25   S    
H10   O10   S    
H11   O2    S    
C11   H12   S    
C10   C11   A    
C15   C21   A    
C20   C21   A    
C27   C28   A    
O1    Zn1   S    
C27   O10   S    
C19   H2    S    
C5    C31   S    
