data_mof_unit_22880.cif
_audit_creation_date              2012-12-11T15:16:46-0500
_audit_creation_method            fapswitch 2.2
_symmetry_space_group_name_H-M    P1
_symmetry_Int_Tables_number       1
_space_group_crystal_system       triclinic
_cell_length_a                    25.408735
_cell_length_b                    7.240551
_cell_length_c                    21.635138
_cell_angle_alpha                 90.000046
_cell_angle_beta                  110.2886
_cell_angle_gamma                 90.0
_cell_volume                      3733.34131839

loop_
_atom_site_label
_atom_site_type_symbol
_atom_type_description
_atom_site_fract_x
_atom_site_fract_y
_atom_site_fract_z
_atom_type_partial_charge
O1    O     O_R   0.554350 0.505270 0.581390 -0.532724
O2    O     O_R   0.445650 0.005270 0.418610 -0.532724
O3    O     O_R   0.553380 0.177580 0.454800 -0.511822
O4    O     O_R   0.446620 0.677580 0.545200 -0.511822
C1    C     C_R   0.565602 0.344973 0.438001 0.705552
C2    C     C_R   0.434398 0.844973 0.561999 0.705551
O5    O     O_R   0.560970 0.175640 0.583140 -0.540549
O6    O     O_R   0.439030 0.675640 0.416860 -0.540550
O7    O     O_R   0.453290 0.004120 0.547860 -0.544273
O8    O     O_R   0.546710 0.504120 0.452140 -0.544274
C3    C     C_R   0.575981 0.344380 0.607858 0.714180
C4    C     C_R   0.424019 0.844380 0.392142 0.714180
O9    O     O_3   0.464660 0.338800 0.488280 -0.377943
O10   O     O_3   0.535340 0.838800 0.511720 -0.377943
V1    V     V_3+5 0.506560 0.064420 0.502170 1.425411
V2    V     V_3+5 0.493440 0.564420 0.497830 1.425411
C5    C     C_R   0.153532 0.972404 0.293618 -0.264546
C6    C     C_R   0.846468 0.472401 0.706382 -0.264546
H1    H     H_    0.238459 0.962314 0.405477 0.129847
H2    H     H_    0.761541 0.462309 0.594522 0.129847
H3    H     H_    0.142901 0.990848 0.337636 0.137238
H4    H     H_    0.857099 0.490844 0.662364 0.137238
C7    C     C_R   0.122837 0.941081 0.174416 -0.176825
C8    C     C_R   0.877163 0.441081 0.825584 -0.176825
C9    C     C_R   0.396920 0.839465 0.271565 -0.364121
C10   C     C_R   0.603080 0.339468 0.728435 -0.364121
C11   C     C_R   0.362014 0.898235 0.208505 0.451737
C12   C     C_R   0.637986 0.398239 0.791495 0.451737
C13   C     C_R   0.306280 0.954358 0.198886 0.369694
C14   C     C_R   0.693720 0.454360 0.801113 0.369694
C15   C     C_R   0.283753 0.930205 0.250614 -0.104811
C16   C     C_R   0.716246 0.430206 0.749386 -0.104811
C17   C     C_R   0.323278 0.900551 0.315899 0.027628
C18   C     C_R   0.676722 0.400550 0.684100 0.027628
C19   C     C_R   0.224734 0.940747 0.241979 0.150442
C20   C     C_R   0.775266 0.440746 0.758021 0.150442
C21   C     C_R   0.209636 0.957746 0.299023 0.079730
C22   C     C_R   0.790364 0.457744 0.700977 0.079731
C23   C     C_R   0.250206 0.950696 0.361994 -0.202608
C24   C     C_R   0.749794 0.450692 0.638006 -0.202607
C25   C     C_R   0.305745 0.916247 0.370386 -0.148805
C26   C     C_R   0.694255 0.416245 0.629614 -0.148806
C27   C     C_R   0.179913 0.923890 0.180031 -0.187972
C28   C     C_R   0.820087 0.423890 0.819969 -0.187971
C29   C     C_R   0.110249 0.954280 0.232789 0.435568
C30   C     C_R   0.889751 0.454278 0.767211 0.435567
C31   C     C_R   0.379929 0.856804 0.325812 -0.126608
C32   C     C_R   0.620071 0.356804 0.674188 -0.126607
H5    H     H_    0.188371 0.890681 0.136021 0.168361
H6    H     H_    0.811629 0.390683 0.863978 0.168360
H7    H     H_    0.439403 0.793922 0.280693 0.132298
H8    H     H_    0.560597 0.293925 0.719306 0.132297
H9    H     H_    0.334923 0.901208 0.420299 0.095252
H10   H     H_    0.665077 0.401205 0.579701 0.095253
C33   C     C_R   0.108708 0.782600 0.860632 0.374761
C34   C     C_R   0.891292 0.282600 0.139368 0.374761
C35   C     C_R   0.137019 0.803457 0.815084 0.311677
C36   C     C_R   0.862981 0.303457 0.184916 0.311677
C37   C     C_R   0.179907 0.937105 0.827101 -0.196200
C38   C     C_R   0.820093 0.437106 0.172899 -0.196200
C39   C     C_R   0.185605 0.069218 0.876395 -0.061652
C40   C     C_R   0.814395 0.569218 0.123605 -0.061652
H11   H     H_    0.217996 0.173769 0.886665 0.200249
H12   H     H_    0.782003 0.673769 0.113335 0.200249
C41   C     C_R   0.148325 0.071898 0.911460 -0.149614
C42   C     C_R   0.851675 0.571898 0.088540 -0.149613
H13   H     H_    0.152242 0.180951 0.946845 0.225617
H14   H     H_    0.847758 0.680951 0.053155 0.225617
C43   C     C_R   0.108228 0.931923 0.903494 -0.256445
C44   C     C_R   0.891772 0.431923 0.096506 -0.256445
N1    N     N_R   0.241538 0.085056 0.773268 -0.233875
N2    N     N_R   0.758462 0.585056 0.226732 -0.233875
N3    N     N_R   0.276029 0.073523 0.738707 -0.267696
N4    N     N_R   0.723971 0.573523 0.261293 -0.267697
C45   C     C_R   0.291174 0.906319 0.721216 0.519134
C46   C     C_R   0.708826 0.406319 0.278784 0.519134
N5    N     N_R   0.271640 0.751762 0.741364 -0.251187
N6    N     N_R   0.728360 0.251762 0.258635 -0.251187
N7    N     N_R   0.237592 0.763382 0.776084 -0.174368
N8    N     N_R   0.762408 0.263383 0.223916 -0.174368
C47   C     C_R   0.220825 0.929554 0.791698 0.606810
C48   C     C_R   0.779175 0.429554 0.208302 0.606810
C49   C     C_R   0.328850 0.725381 0.646363 -0.211555
C50   C     C_R   0.671149 0.225381 0.353636 -0.211555
H15   H     H_    0.303523 0.608471 0.650081 0.162517
H16   H     H_    0.696477 0.108471 0.349918 0.162517
C51   C     C_R   0.361914 0.709460 0.606130 0.400303
C52   C     C_R   0.638086 0.209459 0.393870 0.400303
C53   C     C_R   0.396461 0.858069 0.601480 -0.136957
C54   C     C_R   0.603539 0.358069 0.398520 -0.136956
C55   C     C_R   0.394278 0.023693 0.634918 -0.225658
C56   C     C_R   0.605722 0.523693 0.365082 -0.225658
H17   H     H_    0.419657 0.141466 0.632183 0.166277
H18   H     H_    0.580343 0.641466 0.367817 0.166278
C57   C     C_R   0.359889 0.040258 0.673060 -0.138354
C58   C     C_R   0.640111 0.540258 0.326940 -0.138354
H19   H     H_    0.359597 0.169619 0.698074 0.155146
H20   H     H_    0.640403 0.669619 0.301926 0.155146
C59   C     C_R   0.327260 0.890785 0.679937 -0.026817
C60   C     C_R   0.672740 0.390784 0.320063 -0.026817
O11   O     O_R   0.953220 0.285790 0.047790 -0.481571
O12   O     O_R   0.046780 0.785790 0.952210 -0.481571
O13   O     O_R   0.939020 0.617570 0.916840 -0.522933
O14   O     O_R   0.060980 0.117570 0.083160 -0.522933
C61   C     C_R   0.923282 0.448244 0.891838 0.772241
C62   C     C_R   0.076718 0.948244 0.108162 0.772242
O15   O     O_R   0.946600 0.615450 0.045180 -0.535929
O16   O     O_R   0.053400 0.115450 0.954820 -0.535930
O17   O     O_R   0.054370 0.786770 0.081410 -0.546805
O18   O     O_R   0.945630 0.286770 0.918590 -0.546805
C63   C     C_R   0.932878 0.445319 0.060221 0.689439
C64   C     C_R   0.067122 0.945319 0.939779 0.689439
O19   O     O_3   0.035300 0.454160 0.011680 -0.349655
O20   O     O_3   0.964700 0.954160 0.988320 -0.349655
V3    V     V_3+5 0.993450 0.728620 0.997830 1.662298
V4    V     V_3+5 0.006550 0.228620 0.002170 1.662298
O21   O     O_3   0.055266 0.951035 0.230513 -0.537030
C65   C     C_3   0.044899 0.789326 0.261596 0.161709
H21   H     H_    0.005636 0.811906 0.272075 0.193579
H22   H     H_    0.077772 0.761027 0.310255 0.097846
C66   C     C_3   0.037044 0.620646 0.216516 -0.430801
H23   H     H_    0.003011 0.649886 0.169235 0.225242
H24   H     H_    0.076277 0.592395 0.206420 0.202016
C67   C     C_3   0.021853 0.449613 0.247688 -0.705255
H25   H     H_    0.055863 0.415820 0.294769 0.245695
H26   H     H_    0.016092 0.330651 0.213650 0.277302
H27   H     H_    0.982173 0.473533 0.257158 0.226199
O22   O     O_3   0.944734 0.451033 0.769487 -0.537030
C68   C     C_3   0.955101 0.289323 0.738404 0.161709
H28   H     H_    0.994364 0.311903 0.727925 0.193579
H29   H     H_    0.922227 0.261025 0.689745 0.097846
C69   C     C_3   0.962956 0.120643 0.783484 -0.430802
H30   H     H_    0.996988 0.149884 0.830765 0.225242
H31   H     H_    0.923722 0.092393 0.793580 0.202016
C70   C     C_3   0.978146 0.949611 0.752311 -0.705254
H32   H     H_    0.944137 0.915817 0.705231 0.245695
H33   H     H_    0.983908 0.830648 0.786350 0.277302
H34   H     H_    0.017826 0.973530 0.742842 0.226199
S1    S     S_3+6 0.110981 0.690580 0.736972 0.076931
O23   O     O_2   0.146598 0.525574 0.736072 -0.241226
O24   O     O_2   0.051504 0.627847 0.722298 -0.323935
O25   O     O_3   0.112824 0.837426 0.677519 -0.467388
H35   H     H_    0.090474 0.945553 0.681859 0.333287
S2    S     S_3+6 0.889019 0.190581 0.263028 0.076930
O26   O     O_2   0.853402 0.025575 0.263928 -0.241226
O27   O     O_2   0.948496 0.127849 0.277702 -0.323936
O28   O     O_3   0.887176 0.337428 0.322481 -0.467388
H36   H     H_    0.909526 0.445555 0.318141 0.333287
O29   O     O_3   0.360470 0.547907 0.571459 -0.567779
C71   C     C_3   0.310618 0.544013 0.515646 0.059920
H37   H     H_    0.297986 0.684118 0.493797 0.098586
H38   H     H_    0.275980 0.485588 0.529932 0.145039
C72   C     C_3   0.319815 0.421810 0.462665 -0.266123
H39   H     H_    0.354826 0.479237 0.449000 0.216678
H40   H     H_    0.331435 0.279886 0.482309 0.197559
C73   C     C_3   0.267315 0.412817 0.400971 -0.820503
H41   H     H_    0.232622 0.343988 0.412228 0.234524
H42   H     H_    0.276561 0.333168 0.362109 0.253874
H43   H     H_    0.253775 0.553510 0.381660 0.241249
O30   O     O_3   0.639529 0.047906 0.428540 -0.567779
C74   C     C_3   0.689381 0.044012 0.484353 0.059920
H44   H     H_    0.702014 0.184117 0.506202 0.098586
H45   H     H_    0.724019 0.985586 0.470067 0.145039
C75   C     C_3   0.680184 0.921808 0.537334 -0.266124
H46   H     H_    0.645173 0.979236 0.550999 0.216678
H47   H     H_    0.668565 0.779884 0.517689 0.197559
C76   C     C_3   0.732684 0.912814 0.599028 -0.820503
H48   H     H_    0.767377 0.843985 0.587770 0.234524
H49   H     H_    0.723438 0.833165 0.637889 0.253873
H50   H     H_    0.746225 0.053507 0.618339 0.241249
S3    S     S_3+6 0.273378 0.096342 0.128536 0.042015
O31   O     O_2   0.230393 0.222438 0.139524 -0.350045
O32   O     O_2   0.316540 0.214900 0.114646 -0.281353
O33   O     O_3   0.243561 0.960088 0.062619 -0.472341
H51   H     H_    0.204268 0.002872 0.043357 0.333980
S4    S     S_3+6 0.726622 0.596345 0.871463 0.042016
O34   O     O_2   0.769607 0.722440 0.860475 -0.350045
O35   O     O_2   0.683460 0.714905 0.885353 -0.281353
O36   O     O_3   0.756439 0.460093 0.937381 -0.472342
H52   H     H_    0.795732 0.502877 0.956643 0.333980
O37   O     O_3   0.379633 0.903064 0.153986 -0.517029
C77   C     C_3   0.437557 0.940856 0.168747 0.169154
H53   H     H_    0.445156 0.939333 0.121187 0.159057
H54   H     H_    0.464620 0.828692 0.197965 0.088837
C78   C     C_3   0.454952 0.133148 0.199700 -0.338382
H55   H     H_    0.431102 0.240922 0.164583 0.248059
H56   H     H_    0.445488 0.148045 0.245818 0.191489
C79   C     C_3   0.517657 0.166341 0.216045 -0.814490
H57   H     H_    0.542411 0.063147 0.252615 0.236320
H58   H     H_    0.528813 0.306460 0.237466 0.241984
H59   H     H_    0.528735 0.156607 0.170798 0.243877
O38   O     O_3   0.620367 0.403069 0.846014 -0.517029
C80   C     C_3   0.562443 0.440861 0.831252 0.169153
H60   H     H_    0.554844 0.439339 0.878812 0.159058
H61   H     H_    0.535379 0.328697 0.802035 0.088837
C81   C     C_3   0.545048 0.633153 0.800300 -0.338381
H62   H     H_    0.568898 0.740927 0.835416 0.248059
H63   H     H_    0.554512 0.648049 0.754182 0.191489
C82   C     C_3   0.482343 0.666346 0.783954 -0.814490
H64   H     H_    0.457589 0.563152 0.747385 0.236319
H65   H     H_    0.471187 0.806465 0.762533 0.241984
H66   H     H_    0.471265 0.656613 0.829202 0.243876
S5    S     S_3+6 0.093864 0.554177 0.879020 0.045768
O39   O     O_2   0.125304 0.517793 0.950783 -0.324668
O40   O     O_2   0.032445 0.531881 0.865969 -0.337557
O41   O     O_3   0.114177 0.399097 0.834233 -0.465687
H67   H     H_    0.081843 0.315120 0.815378 0.355288
S6    S     S_3+6 0.906136 0.054178 0.120980 0.045768
O42   O     O_2   0.874696 0.017793 0.049217 -0.324668
O43   O     O_2   0.967555 0.031881 0.134030 -0.337557
O44   O     O_3   0.885823 0.899097 0.165767 -0.465687
H68   H     H_    0.918157 0.815121 0.184622 0.355288

loop_
_geom_bond_atom_site_label_1
_geom_bond_atom_site_label_2
_ccdc_geom_bond_type
C70   H34   S    
C42   H14   S    
S3    O31   D    
C7    C29   A    
C11   C13   A    
N2    N4    A    
O12   C64   A    
O28   H36   S    
C18   C26   A    
C61   O18   A    
O2    C4    A    
O22   C68   S    
C2    O7    A    
O14   C62   A    
O20   V3    S    
C78   H55   S    
C70   H32   S    
C23   C25   A    
O37   C77   S    
O5    C3    A    
S3    O32   D    
C75   H47   S    
N4    C46   A    
C79   H59   S    
C16   C20   A    
C30   O22   S    
C75   H46   S    
C19   C21   A    
C5    C29   A    
C4    C31   S    
O14   V4    S    
O10   V1    S    
H2    C24   S    
S1    O25   S    
C57   C59   A    
C78   H56   S    
C28   H6    S    
C36   S2    S    
C12   O38   S    
C56   C58   A    
C7    C27   A    
C35   S1    S    
C38   C40   A    
C39   H11   S    
C65   H21   S    
C66   C67   S    
C40   H12   S    
O12   V3    S    
O33   H51   S    
C38   C48   S    
C51   C53   A    
S4    O36   S    
C79   H58   S    
S6    O42   D    
C41   H13   S    
C71   C72   S    
O1    C3    A    
C82   H66   S    
C15   C17   A    
C53   C55   A    
C19   C27   A    
C9    C31   A    
C1    C54   S    
C10   C32   A    
O19   V4    S    
C24   C26   A    
C82   H64   S    
O6    V2    S    
C22   C24   A    
C49   C59   A    
N3    C45   A    
C3    C32   S    
C69   H31   S    
S2    O28   S    
C6    C30   A    
C14   S4    S    
C74   H45   S    
C74   H44   S    
C76   H50   S    
C65   H22   S    
N5    N7    A    
S3    O33   S    
C37   C39   A    
C40   C42   A    
C50   C60   A    
C50   C52   A    
S5    O41   S    
C76   H49   S    
C76   H48   S    
N7    C47   A    
O41   H67   S    
C27   H5    S    
C78   C79   S    
O5    V1    S    
C80   H61   S    
C7    C62   S    
C5    H3    S    
O16   C64   A    
C58   H20   S    
C79   H57   S    
C65   C66   S    
C16   C18   A    
O4    V2    S    
O13   V3    S    
C11   O37   S    
C69   H30   S    
C10   H8    S    
C55   H17   S    
S5    O40   D    
C54   C56   A    
O44   H68   S    
C34   S6    S    
O6    C4    A    
C80   C81   S    
C33   S5    S    
C45   C59   S    
C71   H38   S    
O13   C61   A    
O1    V2    S    
C5    C21   A    
C13   S3    S    
C72   C73   S    
O2    V1    S    
C45   N5    A    
C25   H9    S    
C66   H23   S    
C33   C43   A    
H1    C23   S    
C67   H27   S    
S2    O27   D    
S4    O34   D    
C49   H15   S    
C8    C28   A    
C52   C54   A    
C34   C44   A    
C33   C35   A    
C9    C11   A    
C17   C31   A    
C15   C19   A    
C20   C28   A    
O4    C2    A    
C72   H40   S    
C20   C22   A    
O18   V4    S    
C74   C75   S    
O3    V1    S    
C67   H26   S    
C68   H28   S    
C29   O21   S    
C70   H33   S    
C73   H41   S    
C81   C82   S    
C6    H4    S    
O15   C63   A    
C73   H43   S    
C37   C47   S    
C46   N6    A    
C81   H62   S    
O3    C1    A    
C49   C51   A    
C52   O30   S    
S1    O23   D    
C57   H19   S    
C12   C14   A    
C46   C60   S    
C2    C53   S    
C10   C12   A    
C9    H7    S    
C71   H37   S    
S2    O26   D    
C8    C30   A    
O38   C80   S    
C68   C69   S    
C73   H42   S    
C6    C22   A    
C17   C25   A    
C1    O8    A    
C21   C23   A    
S6    O43   D    
O8    V2    S    
O21   C65   S    
C26   H10   S    
C14   C16   A    
S1    O24   D    
O16   V4    S    
C56   H18   S    
C42   C44   A    
S6    O44   S    
C41   C43   A    
O11   C63   A    
C58   C60   A    
S4    O35   D    
C69   C70   S    
C43   C64   S    
N8    C48   A    
C34   C36   A    
O15   V3    S    
N6    N8    A    
C75   C76   S    
O7    V1    S    
O30   C74   S    
C77   H54   S    
C66   H24   S    
C81   H63   S    
C35   C37   A    
C44   C63   S    
O17   V3    S    
C55   C57   A    
O36   H52   S    
C39   C41   A    
C18   C32   A    
C13   C15   A    
C80   H60   S    
C51   O29   S    
O9    V2    S    
N1    N3    A    
C82   H65   S    
O11   V4    S    
O25   H35   S    
C50   H16   S    
C8    C61   S    
S5    O39   D    
N1    C47   A    
C72   H39   S    
O29   C71   S    
C36   C38   A    
C77   C78   S    
N2    C48   A    
C77   H53   S    
C67   H25   S    
C68   H29   S    
C62   O17   A    
