data_mof_unit_20391.cif
_audit_creation_date              2012-12-11T17:25:10-0500
_audit_creation_method            fapswitch 2.2
_symmetry_space_group_name_H-M    P1
_symmetry_Int_Tables_number       1
_space_group_crystal_system       triclinic
_cell_length_a                    6.943972
_cell_length_b                    20.543086
_cell_length_c                    24.449756
_cell_angle_alpha                 90.280581
_cell_angle_beta                  90.67403
_cell_angle_gamma                 89.716279
_cell_volume                      3487.44777317

loop_
_atom_site_label
_atom_site_type_symbol
_atom_type_description
_atom_site_fract_x
_atom_site_fract_y
_atom_site_fract_z
_atom_type_partial_charge
O1    O     O_R   0.507280 0.423750 0.460310 -0.542716
O2    O     O_R   0.171030 0.555650 0.437630 -0.537095
O3    O     O_R   0.004080 0.576250 0.539690 -0.549841
C1    C     C_R   0.339075 0.575639 0.421795 0.756523
O4    O     O_R   0.177330 0.422980 0.453960 -0.515938
O5    O     O_R   0.010420 0.442640 0.556140 -0.518223
C2    C     C_R   0.345825 0.398709 0.443778 0.842391
O6    O     O_R   0.500930 0.557360 0.443860 -0.529761
O7    O     O_3   0.340310 0.506600 0.533500 -0.367611
V1    V     V_3+5 0.064140 0.498780 0.493780 1.616077
O8    O     O_R   0.680890 0.444350 0.562370 -0.534925
C3    C     C_R   0.850526 0.424378 0.578085 0.759497
O9    O     O_R   0.674590 0.577020 0.546040 -0.519223
C4    C     C_R   0.843951 0.600530 0.557658 0.724528
V2    V     V_3+5 0.564550 0.501220 0.506220 1.612618
O10   O     O_3   0.838250 0.493400 0.466500 -0.372924
C5    C     C_R   0.964528 0.837389 0.910952 -0.121889
C6    C     C_R   0.854291 0.663865 0.587323 -0.138314
C7    C     C_R   0.880527 0.722938 0.906414 -0.143679
C8    C     C_R   0.930988 0.777728 0.937811 -0.031457
C9    C     C_R   0.954949 0.839704 0.853253 -0.203918
C10   C     C_R   0.900750 0.784307 0.821169 0.109475
C11   C     C_R   0.861239 0.726081 0.849262 0.050813
C12   C     C_R   0.881068 0.784676 0.762476 0.006236
C13   C     C_R   0.827779 0.726615 0.733289 -0.040956
C14   C     C_R   0.754229 0.673946 0.764481 0.401212
C15   C     C_R   0.787359 0.672400 0.820903 -0.205495
C16   C     C_R   0.896748 0.842448 0.732399 -0.175516
C17   C     C_R   0.877871 0.843276 0.675432 -0.020411
C18   C     C_R   0.877678 0.783749 0.645445 0.006339
C19   C     C_R   0.846209 0.724825 0.674583 0.118652
C20   C     C_R   0.912037 0.781096 0.587735 -0.062682
C21   C     C_R   0.889360 0.721689 0.558631 -0.103278
C22   C     C_R   0.847236 0.665522 0.644601 -0.067250
H1    H     H_    0.739761 0.630466 0.843770 0.156942
H2    H     H_    0.849222 0.619488 0.665391 0.171300
H3    H     H_    0.851094 0.677366 0.926818 0.171538
H4    H     H_    0.985988 0.886011 0.834896 0.104578
H5    H     H_    0.906467 0.888928 0.752811 0.144117
H6    H     H_    0.655520 0.235706 0.817916 0.165815
C23   C     C_R   0.739296 0.286320 0.744561 0.011336
C24   C     C_R   0.886632 0.293593 0.705430 0.024342
C25   C     C_R   0.055180 0.255958 0.710356 -0.138329
H7    H     H_    0.167085 0.262149 0.680283 0.194946
C26   C     C_R   0.083424 0.211476 0.753660 0.004413
C27   C     C_R   0.936389 0.204393 0.792950 0.036803
C28   C     C_R   0.767553 0.241888 0.787888 -0.173585
C29   C     C_1   0.872900 0.340214 0.660639 0.078293
C30   C     C_1   0.950859 0.158375 0.838215 0.039652
C31   C     C_1   0.961642 0.120387 0.876154 -0.132644
C32   C     C_1   0.862395 0.378826 0.623184 -0.036020
C33   C     C_R   0.581904 0.790375 0.249405 -0.025860
C34   C     C_R   0.445171 0.793957 0.206116 0.035496
C35   C     C_R   0.290428 0.750479 0.204981 -0.126756
H8    H     H_    0.189025 0.752871 0.170960 0.163840
C36   C     C_R   0.265473 0.703366 0.246081 0.035570
C37   C     C_R   0.398288 0.700426 0.290574 -0.030870
C38   C     C_R   0.558326 0.743341 0.291614 -0.167511
C39   C     C_1   0.463571 0.840180 0.160984 0.036982
C40   C     C_1   0.368029 0.656055 0.336679 0.039922
C41   C     C_1   0.349801 0.619475 0.375346 -0.069019
C42   C     C_1   0.476201 0.878534 0.123345 -0.113226
C43   C     C_R   0.465135 0.161623 0.089106 -0.114541
C44   C     C_R   0.351741 0.337964 0.411240 -0.263460
C45   C     C_R   0.390547 0.276633 0.089902 -0.030583
C46   C     C_R   0.412178 0.218341 0.061694 -0.203277
C47   C     C_R   0.492721 0.163017 0.146576 -0.047774
C48   C     C_R   0.438942 0.220294 0.176817 -0.012278
C49   C     C_R   0.402973 0.278965 0.147410 -0.022712
C50   C     C_R   0.411490 0.220804 0.234860 0.066705
C51   C     C_R   0.399889 0.281016 0.263877 0.012439
C52   C     C_R   0.373592 0.338166 0.233226 -0.193678
C53   C     C_R   0.372667 0.338012 0.176187 0.435259
C54   C     C_R   0.368059 0.163397 0.263482 -0.083150
C55   C     C_R   0.328868 0.164581 0.318981 -0.122488
C56   C     C_R   0.337594 0.222663 0.348697 0.043921
C57   C     C_R   0.387071 0.281507 0.322539 0.077503
C58   C     C_R   0.290298 0.222152 0.404111 -0.176065
C59   C     C_R   0.289515 0.279360 0.435034 0.376544
C60   C     C_R   0.414576 0.338207 0.356095 -0.127225
H9    H     H_    0.288815 0.119546 0.338697 0.146980
H10   H     H_    0.356417 0.319144 0.065837 0.205777
H11   H     H_    0.391892 0.217810 0.017661 0.128377
H12   H     H_    0.334363 0.382986 0.253274 0.193095
H13   H     H_    0.346374 0.117514 0.242703 0.137444
H14   H     H_    0.247310 0.176923 0.422943 0.182673
O11   O     O_R   0.323320 0.942780 0.056240 -0.519920
O12   O     O_R   0.647300 0.077050 0.046060 -0.536202
O13   O     O_R   0.813840 0.057330 0.943840 -0.543892
C61   C     C_R   0.478397 0.101211 0.056508 0.754686
O14   O     O_R   0.653250 0.944380 0.062400 -0.529740
O15   O     O_R   0.819830 0.923720 0.960300 -0.541304
C62   C     C_R   0.485328 0.924049 0.077992 0.778994
O16   O     O_R   0.317330 0.076390 0.039790 -0.536474
O17   O     O_3   0.483830 0.993470 0.966560 -0.379017
V3    V     V_3+5 0.760140 0.001210 0.006210 1.500611
O18   O     O_R   0.149290 0.922840 0.953850 -0.530086
C63   C     C_R   0.979674 0.899171 0.942589 0.752880
O19   O     O_R   0.143340 0.055500 0.937510 -0.536146
C64   C     C_R   0.973677 0.075461 0.921758 0.700206
V4    V     V_3+5 0.259690 0.998600 0.993650 1.511376
O20   O     O_3   0.986130 0.006520 0.033440 -0.359496
C65   C     C_2   0.992428 0.837880 0.558407 0.858445
O21   O     O_2   0.912676 0.858500 0.517065 -0.499352
O22   O     O_R   0.160541 0.867364 0.578227 -0.633501
H15   H     H_    0.201581 0.905481 0.554983 0.335373
C66   C     C_2   0.554597 0.323684 0.741518 0.796351
O23   O     O_2   0.453421 0.328439 0.781993 -0.551786
O24   O     O_R   0.493174 0.352435 0.692563 -0.647094
H16   H     H_    0.364973 0.375847 0.696063 0.312574
C67   C     C_2   0.267858 0.173938 0.756485 0.796794
O25   O     O_2   0.369187 0.169551 0.716012 -0.531754
O26   O     O_R   0.328821 0.144538 0.805202 -0.667257
H17   H     H_    0.456962 0.121122 0.801550 0.295491
C68   C     C_2   0.698541 0.740038 0.338098 0.915388
O27   O     O_2   0.728783 0.788430 0.366024 -0.483964
O28   O     O_R   0.797322 0.682364 0.350362 -0.633417
H18   H     H_    0.767810 0.645942 0.323521 0.265602
C69   C     C_2   0.750747 0.834895 0.249799 0.820934
O29   O     O_2   0.911333 0.814160 0.261438 -0.544026
O30   O     O_R   0.726000 0.900600 0.236765 -0.661606
H19   H     H_    0.851330 0.925699 0.238247 0.306762
C70   C     C_2   0.099997 0.657650 0.240747 0.789533
O31   O     O_2   0.959350 0.672643 0.212851 -0.555233
O32   O     O_R   0.105760 0.596814 0.266159 -0.647792
H20   H     H_    0.985380 0.570288 0.258796 0.319513
S1    S     S_3+6 0.330516 0.413435 0.142714 0.044112
O33   O     O_2   0.492917 0.426707 0.104271 -0.300223
O34   O     O_2   0.144615 0.409597 0.110754 -0.307696
O35   O     O_3   0.315948 0.474886 0.188289 -0.483566
H21   H     H_    0.287676 0.514115 0.166146 0.385666
C71   C     C_2   0.530263 0.394134 0.336708 0.772993
O36   O     O_2   0.683757 0.384088 0.314049 -0.527555
O37   O     O_R   0.462728 0.457855 0.343360 -0.671081
H22   H     H_    0.554051 0.491340 0.328041 0.301366
S2    S     S_3+6 0.213303 0.275441 0.504008 0.027085
O38   O     O_2   0.010127 0.300551 0.506889 -0.330725
O39   O     O_2   0.218082 0.206427 0.524178 -0.296893
O40   O     O_3   0.354517 0.321467 0.544862 -0.495031
H23   H     H_    0.485919 0.303340 0.540464 0.341067
C72   C     C_2   0.599639 0.108449 0.172959 0.726836
O41   O     O_2   0.729771 0.120180 0.205640 -0.536192
O42   O     O_R   0.551111 0.043979 0.160937 -0.677976
H24   H     H_    0.635303 0.011581 0.181340 0.314260
C73   C     C_2   0.913765 0.718576 0.498303 0.843698
O43   O     O_2   0.786169 0.695346 0.469514 -0.526517
O44   O     O_R   0.083703 0.740722 0.474730 -0.639213
H25   H     H_    0.083489 0.735253 0.433492 0.333591
C74   C     C_2   0.836607 0.907377 0.649898 0.805676
O45   O     O_2   0.925174 0.955771 0.664812 -0.527588
O46   O     O_R   0.690275 0.912764 0.610363 -0.632194
H26   H     H_    0.674069 0.958878 0.596403 0.334834
C75   C     C_2   0.943108 0.770923 0.998503 0.741999
O47   O     O_2   0.032408 0.810362 0.026396 -0.566220
O48   O     O_R   0.854569 0.718215 0.023886 -0.646878
H27   H     H_    0.873237 0.718674 0.065088 0.321206
S3    S     S_3+6 0.572015 0.619958 0.740166 0.000739
O49   O     O_2   0.474411 0.645805 0.689487 -0.311646
O50   O     O_2   0.658135 0.554175 0.728130 -0.352213
O51   O     O_3   0.403760 0.611642 0.788655 -0.479796
H28   H     H_    0.442422 0.572548 0.809728 0.358821

loop_
_geom_bond_atom_site_label_1
_geom_bond_atom_site_label_2
_ccdc_geom_bond_type
C13   C19   A    
H6    C28   S    
O12   V3    S    
S3    O49   D    
C60   C71   S    
V3    O20   S    
C44   C60   A    
C23   C24   A    
C4    C6    S    
O2    C1    A    
O17   V3    S    
C1    O6    A    
C73   O43   D    
C34   C39   S    
O15   C63   A    
C70   O31   D    
C26   C27   A    
C59   S2    S    
C27   C30   S    
C14   C15   A    
V4    O20   S    
C16   C17   A    
C56   C58   A    
C74   O46   S    
O5    C3    A    
C18   C19   A    
C70   O32   S    
C74   O45   D    
V2    O10   S    
O18   C63   A    
O15   V3    S    
C5    C8    A    
C36   C37   A    
C21   C73   S    
C14   S3    S    
C27   C28   A    
C7    H3    S    
O44   H25   S    
O14   V3    S    
O11   V4    S    
O8    V2    S    
C65   O22   S    
C29   C32   T    
C9    H4    S    
C7    C8    A    
O16   V4    S    
C48   C49   A    
C68   O28   S    
C50   C54   A    
O46   H26   S    
C49   C53   A    
C50   C51   A    
O1    V2    S    
C11   C15   A    
C75   O48   S    
C65   O21   D    
O7    V1    S    
C58   H14   S    
C46   H11   S    
C43   C46   A    
S3    O50   D    
O9    C4    A    
C66   O24   S    
C72   O41   D    
S2    O40   S    
C73   O44   S    
C61   O16   A    
C43   C47   A    
C69   O30   S    
O40   H23   S    
C35   C36   A    
C19   C22   A    
C8    C75   S    
O13   C64   A    
C47   C48   A    
C36   C70   S    
C56   C57   A    
S2    O39   D    
C54   C55   A    
O4    C2    A    
C58   C59   A    
C55   H9    S    
C37   C40   S    
C16   H5    S    
C15   H1    S    
C13   C14   A    
C53   S1    S    
C1    C41   S    
C5    C9    A    
C40   C41   T    
C7    C11   A    
C55   C56   A    
S1    O34   D    
C17   C18   A    
O14   C62   A    
C6    C22   A    
O19   C64   A    
C66   O23   D    
C45   H10   S    
C23   C28   A    
C20   C65   S    
C67   O26   S    
C24   C29   S    
C12   C13   A    
C25   C26   A    
O30   H19   S    
C52   H12   S    
O3    C4    A    
C33   C38   A    
C71   O37   S    
O19   V4    S    
O12   C61   A    
C45   C46   A    
S3    O51   S    
O9    V2    S    
C25   H7    S    
O32   H20   S    
C44   C59   A    
C10   C12   A    
C24   C25   A    
S1    O33   D    
O2    V1    S    
C51   C57   A    
C3    C32   S    
C33   C34   A    
O26   H17   S    
C5    C63   S    
C57   C60   A    
C35   H8    S    
C39   C42   T    
C23   C66   S    
C67   O25   D    
O1    C2    A    
C12   C16   A    
C52   C53   A    
O5    V1    S    
C69   O29   D    
C26   C67   S    
C34   C35   A    
O37   H22   S    
O6    V2    S    
O22   H15   S    
C31   C64   S    
C20   C21   A    
O13   V3    S    
C72   O42   S    
O35   H21   S    
O7    V2    S    
S1    O35   S    
O4    V1    S    
O3    V1    S    
V1    O10   S    
O28   H18   S    
O51   H28   S    
C18   C20   A    
C37   C38   A    
C38   C68   S    
C45   C49   A    
O11   C62   A    
C43   C61   S    
C71   O36   D    
C22   H2    S    
C54   H13   S    
C6    C21   A    
C2    C44   S    
C17   C74   S    
C33   C69   S    
O17   V4    S    
C51   C52   A    
C48   C50   A    
C30   C31   T    
C42   C62   S    
O24   H16   S    
O48   H27   S    
C10   C11   A    
S2    O38   D    
C68   O27   D    
C75   O47   D    
C9    C10   A    
O18   V4    S    
O42   H24   S    
O8    C3    A    
C47   C72   S    
