data_mof_unit_30054.cif
_audit_creation_date              2013-03-05T16:30:29-0500
_audit_creation_method            fapswitch 2.2
_symmetry_space_group_name_H-M    P1
_symmetry_Int_Tables_number       1
_space_group_crystal_system       triclinic
_cell_length_a                    8.669333
_cell_length_b                    14.805678
_cell_length_c                    14.23278
_cell_angle_alpha                 90.920458
_cell_angle_beta                  99.049652
_cell_angle_gamma                 90.990081
_cell_volume                      1803.51784516

loop_
_atom_site_label
_atom_site_type_symbol
_atom_site_description
_atom_site_fract_x
_atom_site_fract_y
_atom_site_fract_z
_atom_type_partial_charge
O1    O     O_R   0.500010 0.369070 0.579480 -0.653369
O2    O     O_R   0.499990 0.630930 0.420520 -0.644824
O3    O     O_R   0.500010 0.369060 0.420520 -0.562565
O4    O     O_R   0.499990 0.630940 0.579480 -0.565364
C1    C     C_R   0.494814 0.327191 0.498947 0.913195
C2    C     C_R   0.496631 0.672592 0.500150 0.906290
O5    O     O_R   0.271750 0.500000 0.560890 -0.603493
O6    O     O_R   0.728250 0.500000 0.439110 -0.611223
O7    O     O_R   0.271750 0.499990 0.401930 -0.574211
O8    O     O_R   0.728250 0.500010 0.598070 -0.554053
C3    C     C_R   0.201574 0.500819 0.475310 0.904567
C4    C     C_R   0.798607 0.499653 0.524874 0.910184
Zn1   Zn    Zn3+2 0.500000 0.500010 0.606140 1.066636
Zn2   Zn    Zn3+2 0.500000 0.499990 0.393860 1.055616
C5    C     C_2   0.037952 0.489407 0.463711 -0.019634
C6    C     C_2   0.962503 0.511987 0.537057 -0.020079
C7    C     C_R   0.350428 0.100326 0.561442 0.332532
C8    C     C_R   0.327639 0.893227 0.419574 0.334353
C9    C     C_R   0.386874 0.192310 0.564879 -0.241084
C10   C     C_R   0.363396 0.801873 0.421835 -0.231842
H1    H     H_    0.352523 0.234126 0.620919 0.188725
H2    H     H_    0.307200 0.756624 0.365631 0.197337
C11   C     C_R   0.463784 0.230961 0.495292 -0.088327
C12   C     C_R   0.467648 0.767940 0.497747 -0.099123
C13   C     C_R   0.500252 0.178641 0.419693 -0.089586
C14   C     C_R   0.536439 0.824179 0.572470 -0.087029
H3    H     H_    0.557740 0.208202 0.364892 0.197883
H4    H     H_    0.618893 0.798362 0.630265 0.226408
C15   C     C_R   0.467814 0.086853 0.416495 -0.126263
C16   C     C_R   0.504083 0.915115 0.570573 -0.118762
H5    H     H_    0.505174 0.045722 0.360848 0.177286
H6    H     H_    0.563758 0.959213 0.626775 0.180854
C17   C     C_R   0.396537 0.047338 0.487927 0.024362
C18   C     C_R   0.401668 0.949991 0.494308 0.013038
C19   C     C_R   0.388448 0.453948 0.091603 -0.273683
C20   C     C_R   0.563637 0.571853 0.903336 -0.264030
H7    H     H_    0.295254 0.419118 0.044545 0.190206
H8    H     H_    0.610009 0.630545 0.945474 0.186601
C21   C     C_R   0.385473 0.454632 0.190198 0.419965
C22   C     C_R   0.561686 0.572176 0.804275 0.476710
N1    N     N_R   0.500000 0.499980 0.252470 -0.158375
N2    N     N_R   0.500000 0.500020 0.747530 -0.149462
C23   C     C_R   0.615620 0.545791 0.217170 0.046178
C24   C     C_R   0.441906 0.426827 0.788524 0.007755
H9    H     H_    0.703605 0.583119 0.265520 0.177355
H10   H     H_    0.393704 0.369861 0.744396 0.156300
C25   C     C_R   0.622604 0.545070 0.118694 -0.194121
C26   C     C_R   0.445215 0.423797 0.887843 -0.211064
H11   H     H_    0.718387 0.580548 0.094093 0.175608
H12   H     H_    0.401025 0.363602 0.917497 0.173136
C27   C     C_R   0.507765 0.498102 0.053793 0.085769
C28   C     C_R   0.506930 0.497281 0.947396 0.090180
N3    N     N_R   0.965056 0.438914 0.381002 0.239317
O9    O     O_R   0.945961 0.476537 0.298274 -0.327091
O10   O     O_R   0.917531 0.355882 0.388590 -0.347893
N4    N     N_R   0.035292 0.562794 0.620020 0.237441
O11   O     O_R   0.029969 0.532233 0.704669 -0.313056
O12   O     O_R   0.095099 0.642832 0.610964 -0.340807
N5    N     N_R   0.269340 0.061743 0.632719 0.214679
O13   O     O_R   0.180172 0.990101 0.613353 -0.317356
O14   O     O_R   0.272624 0.102796 0.714589 -0.354509
N6    N     N_R   0.217707 0.926998 0.342127 0.211620
O15   O     O_R   0.132552 0.996353 0.354761 -0.320492
O16   O     O_R   0.191725 0.883479 0.260808 -0.346372
N7    N     N_R   0.257823 0.408390 0.222529 0.232161
O17   O     O_R   0.285306 0.340694 0.279111 -0.331343
O18   O     O_R   0.119179 0.413637 0.172545 -0.319408
N8    N     N_R   0.627334 0.649223 0.764857 0.202870
O19   O     O_R   0.750318 0.639966 0.724168 -0.318227
O20   O     O_R   0.592106 0.729663 0.791791 -0.375001

loop_
_geom_bond_atom_site_label_1
_geom_bond_atom_site_label_2
_geom_bond_distance
_ccdc_geom_bond_type
C19   C21   1.407441 A    
O7    Zn2   2.000061 S    
C6    N4    1.441874 S    
N6    O15   1.301449 A    
C16   H6    1.084041 S    
N4    O12   1.301702 A    
C13   H3    1.083519 S    
C21   N7    1.431523 S    
N1    C23   1.364931 A    
C14   H4    1.080866 S    
C20   C28   1.398011 A    
C26   C28   1.412795 A    
O6    C4    1.275992 A    
C2    C12   1.438155 S    
C3    C5    1.408925 S    
C20   H8    1.082473 S    
C17   C18   1.446620 S    
N5    O13   1.301490 A    
C15   H5    1.083996 S    
C24   C26   1.410810 A    
N3    O9    1.298850 A    
O5    C3    1.273390 A    
C23   H9    1.081156 S    
O7    C3    1.288709 A    
O2    C2    1.286230 A    
O3    Zn2   1.981265 S    
N2    C24   1.364665 A    
C7    N5    1.441791 S    
Zn2   N1    2.012372 S    
O1    C1    1.288502 A    
C8    C18   1.409774 A    
O8    C4    1.287328 A    
C26   H12   1.081817 S    
Zn1   N2    2.012372 S    
C7    C9    1.391076 A    
C12   C14   1.391011 A    
C14   C16   1.379847 A    
C8    C10   1.392590 A    
N3    O10   1.301336 A    
C19   C27   1.396426 A    
C4    C6    1.412374 S    
O2    Zn2   1.969453 S    
N5    O14   1.301628 A    
O4    C2    1.291755 A    
O1    Zn1   1.969453 S    
C16   C18   1.401378 A    
N6    O16   1.301716 A    
C27   C28   1.513044 S    
C5    N3    1.437145 S    
C15   C17   1.400711 A    
O5    Zn1   1.982276 S    
C11   C13   1.395154 A    
N4    O11   1.301023 A    
C21   N1    1.379539 A    
C13   C15   1.381573 A    
C25   H11   1.081829 S    
N7    O17   1.297587 A    
C22   N8    1.427757 S    
O4    Zn1   1.981265 S    
N8    O20   1.301294 A    
C10   C12   1.400899 A    
C9    C11   1.402051 A    
C8    N6    1.441185 S    
C20   C22   1.407446 A    
O6    Zn2   1.982275 S    
N7    O18   1.301088 A    
C24   H10   1.081061 S    
C7    C17   1.409286 A    
C19   H7    1.082378 S    
C9    H1    1.083229 S    
C23   C25   1.412252 A    
N8    O19   1.299099 A    
C25   C27   1.412141 A    
C5    C6    1.356652 D    
C10   H2    1.083973 S    
C22   N2    1.377039 A    
O3    C1    1.292042 A    
O8    Zn1   2.000060 S    
C1    C11   1.443939 S    
