data_mof_unit_47134.cif
_audit_creation_date              2012-12-11T16:04:51-0500
_audit_creation_method            fapswitch 2.2
_symmetry_space_group_name_H-M    P1
_symmetry_Int_Tables_number       1
_space_group_crystal_system       triclinic
_cell_length_a                    10.561389
_cell_length_b                    10.658462
_cell_length_c                    16.867858
_cell_angle_alpha                 98.664465
_cell_angle_beta                  98.513704
_cell_angle_gamma                 61.807181
_cell_volume                      1647.96635174

loop_
_atom_site_label
_atom_site_type_symbol
_atom_type_description
_atom_site_fract_x
_atom_site_fract_y
_atom_site_fract_z
_atom_type_partial_charge
C1    C     C_R   0.354659 0.775452 0.398852 0.556655
C2    C     C_3   0.284974 0.763128 0.247711 -0.124140
C3    C     C_3   0.337803 0.831200 0.323329 0.040783
C4    C     C_R   0.371031 0.347518 0.358556 0.539448
C5    C     C_3   0.454715 0.829833 0.278663 -0.077101
C6    C     C_3   0.346234 0.981911 0.255701 -0.143107
C7    C     C_3   0.230526 0.981144 0.302217 -0.150748
C8    C     C_3   0.176665 0.914072 0.225707 -0.119541
C9    C     C_3   0.292125 0.914450 0.180573 0.046071
C10   C     C_3   0.431415 0.235114 0.764275 0.263940
C11   C     C_3   0.371494 0.381536 0.733544 -0.099741
C12   C     C_3   0.685833 0.422468 0.255192 -0.066844
C13   C     C_3   0.321051 0.319647 0.654120 0.012372
C14   C     C_3   0.383709 0.171861 0.685442 -0.102904
C15   C     C_3   0.236160 0.218468 0.717776 -0.175243
C16   C     C_R   0.777818 0.376662 0.402110 0.548660
C17   C     C_3   0.173579 0.366870 0.684386 -0.139259
C18   C     C_3   0.224459 0.427297 0.765281 -0.129517
C19   C     C_3   0.287851 0.279571 0.797067 0.071232
C20   C     C_1   0.768526 0.367570 0.715566 -0.049325
C21   C     C_1   0.813248 0.329680 0.782213 -0.039019
C22   C     C_1   0.358104 0.764171 0.714529 -0.049278
C23   C     C_3   0.811125 0.353131 0.320101 0.030298
C24   C     C_1   0.327046 0.810730 0.782233 -0.041653
C25   C     C_R   0.886900 0.312813 0.088711 0.558784
C26   C     C_R   0.320261 0.300672 0.119724 0.540650
C27   C     C_R   0.257476 0.958073 0.099592 0.552617
C28   C     C_R   0.379636 0.715097 0.631723 0.539246
C29   C     C_R   0.878876 0.302049 0.862178 0.553787
C30   C     C_R   0.277365 0.252281 0.877334 0.567948
C31   C     C_R   0.282918 0.879627 0.859848 0.550805
C32   C     C_R   0.363408 0.343191 0.582232 0.532068
C33   C     C_R   0.718414 0.410214 0.635675 0.533293
C34   C     C_3   0.873038 0.211311 0.267718 -0.147450
C35   C     C_1   0.345519 0.338989 0.274649 -0.067753
C36   C     C_1   0.333787 0.329172 0.203307 -0.066974
C37   C     C_3   0.749868 0.279332 0.201055 -0.154302
C38   C     C_3   0.965812 0.264330 0.233535 -0.159997
C39   C     C_3   0.903142 0.406314 0.287498 -0.125376
C40   C     C_3   0.781158 0.470935 0.221720 0.243869
C41   C     C_3   0.842122 0.331857 0.167964 0.071379
C42   C     C_3   0.400062 0.763604 0.201820 -0.077186
Cr1   Cr    Cr6+3 0.608340 0.611040 0.520430 1.019829
Cr2   Cr    Cr6+3 0.287650 0.601120 0.489350 1.016621
Cr3   Cr    Cr6+3 0.604040 0.287870 0.490280 1.020227
Cr4   Cr    Cr6+3 0.054020 0.052700 0.970850 1.038890
Cr5   Cr    Cr6+3 0.059230 0.375120 0.993390 1.031475
Cr6   Cr    Cr6+3 0.374950 0.061200 0.992340 1.058352
H1    H     H_    0.570907 0.488389 0.267193 0.106461
H2    H     H_    0.687075 0.228897 0.164016 0.138660
H3    H     H_    0.907950 0.107391 0.291583 0.127907
H4    H     H_    0.079811 0.206761 0.219847 0.108743
H5    H     H_    0.965878 0.457305 0.324048 0.119380
H6    H     H_    0.260381 0.672203 0.245870 0.127221
H7    H     H_    0.464852 0.676242 0.157660 0.176817
H8    H     H_    0.568189 0.795710 0.303678 0.170043
H9    H     H_    0.637431 0.153597 0.768462 0.321436
H10   H     H_    0.819977 0.617934 0.195241 0.338255
H11   H     H_    0.372767 0.070742 0.256550 0.126554
H12   H     H_    0.164660 0.067413 0.346578 0.118242
H13   H     H_    0.064216 0.944250 0.200135 0.135126
H14   H     H_    0.429129 0.447195 0.739279 0.096028
H15   H     H_    0.449689 0.067601 0.652091 0.141923
H16   H     H_    0.179896 0.151823 0.713372 0.122340
H17   H     H_    0.067875 0.420991 0.649086 0.156981
H18   H     H_    0.159527 0.531427 0.799046 0.147457
O1    O     O_R   0.751220 0.499230 0.435170 -0.515039
O2    O     O_R   0.412990 0.180750 0.091610 -0.515765
O3    O     O_R   0.366620 0.943130 0.065760 -0.484041
O4    O     O_R   0.477220 0.727600 0.436870 -0.502455
O5    O     O_R   0.160510 0.906330 0.879210 -0.499197
O6    O     O_R   0.930190 0.179050 0.889450 -0.483686
O7    O     O_R   0.909140 0.398170 0.896710 -0.511011
O8    O     O_R   0.186190 0.363460 0.918830 -0.505399
O9    O     O_R   0.401670 0.173200 0.913310 -0.441561
O10   O     O_R   0.356120 0.936130 0.900470 -0.502177
O11   O     O_3   0.162740 0.163010 0.985530 -0.313375
O12   O     O_R   0.297880 0.469080 0.560050 -0.513025
O13   O     O_R   0.258650 0.745120 0.411470 -0.511824
O14   O     O_R   0.297070 0.467240 0.395960 -0.503368
O15   O     O_R   0.488830 0.252610 0.387790 -0.507524
O16   O     O_R   0.724400 0.302390 0.420980 -0.492778
O17   O     O_R   0.752100 0.501210 0.612190 -0.511073
O18   O     O_R   0.478040 0.729440 0.600970 -0.500448
O19   O     O_R   0.259530 0.747110 0.588490 -0.495646
O20   O     O_3   0.567415 0.167126 0.806160 -0.658182
O21   O     O_3   0.732678 0.605479 0.195009 -0.718800
O22   O     O_R   0.489720 0.254590 0.564810 -0.524610
O23   O     O_R   0.725220 0.304230 0.585080 -0.488594
O24   O     O_3   0.500010 0.500010 0.500020 -0.287744
O25   O     O_R   0.171830 0.913880 0.057510 -0.511880
O26   O     O_R   0.940690 0.186050 0.054730 -0.520635
O27   O     O_R   0.920470 0.405720 0.075010 -0.497708
O28   O     O_R   0.196690 0.370460 0.084120 -0.494870

loop_
_geom_bond_atom_site_label_1
_geom_bond_atom_site_label_2
_ccdc_geom_bond_type
C26   O28   A    
C5    C42   S    
C11   C18   S    
C25   O27   A    
C30   O9    A    
C28   O18   A    
C34   C37   S    
Cr1   O17   S    
Cr6   O10   S    
C13   C32   S    
Cr3   O16   S    
C9    C42   S    
Cr6   O3    S    
C11   H14   S    
H10   O21   S    
C6    C9    S    
C12   H1    S    
C7    C8    S    
C39   H5    S    
C15   C19   S    
C12   C23   S    
C34   H3    S    
C40   O21   S    
C4    O14   A    
C3    C7    S    
C38   C39   S    
C30   O8    A    
C29   O7    A    
C32   O22   A    
H9    O20   S    
C18   C19   S    
C12   C37   S    
C5    H8    S    
C4    O15   A    
C35   C36   T    
C8    C9    S    
C15   H16   S    
C27   O25   A    
Cr3   O23   S    
Cr4   O6    S    
C27   O3    A    
C8    H13   S    
C29   O6    A    
C16   C23   S    
C31   O5    A    
C4    C35   S    
C22   C28   S    
C13   C14   S    
Cr1   O18   S    
Cr6   O9    S    
C2    C8    S    
Cr1   O24   S    
Cr2   O14   S    
Cr3   O22   S    
Cr5   O7    S    
C38   C41   S    
C10   C14   S    
C25   C41   S    
C39   C40   S    
Cr4   O25   S    
C21   C29   S    
C1    C3    S    
Cr6   O11   S    
C12   C40   S    
C33   O23   A    
C42   H7    S    
C10   C19   S    
C23   C34   S    
C16   O16   A    
C17   C18   S    
Cr5   O27   S    
C16   O1    A    
Cr6   O2    S    
Cr3   O24   S    
C33   O17   A    
Cr4   O5    S    
C20   C33   S    
C26   C36   S    
C40   C41   S    
Cr1   O4    S    
C2    H6    S    
C1    O13   A    
C22   C24   T    
Cr5   O11   S    
Cr2   O19   S    
C7    H12   S    
Cr2   O24   S    
C9    C27   S    
C15   C17   S    
C10   O20   S    
C25   O26   A    
C34   C38   S    
C6    H11   S    
Cr2   O13   S    
Cr3   O15   S    
Cr5   O8    S    
C3    C5    S    
Cr4   O11   S    
C6    C7    S    
C18   H18   S    
C17   H17   S    
C1    O4    A    
C13   C17   S    
C26   O2    A    
Cr2   O12   S    
C2    C3    S    
C24   C31   S    
C37   H2    S    
C11   C13   S    
C31   O10   A    
C5    C6    S    
C2    C42   S    
C23   C39   S    
C14   H15   S    
C38   H4    S    
Cr5   O28   S    
C37   C41   S    
C10   C11   S    
C32   O12   A    
Cr4   O26   S    
C20   C21   T    
Cr1   O1    S    
C28   O19   A    
C14   C15   S    
C19   C30   S    
