data_mof_unit_38067.cif
_audit_creation_date              2013-03-05T15:50:42-0500
_audit_creation_method            fapswitch 2.2
_symmetry_space_group_name_H-M    P1
_symmetry_Int_Tables_number       1
_space_group_crystal_system       triclinic
_cell_length_a                    15.019341
_cell_length_b                    10.887722
_cell_length_c                    9.610294
_cell_angle_alpha                 90.012441
_cell_angle_beta                  90.118444
_cell_angle_gamma                 92.228389
_cell_volume                      1570.34500823

loop_
_atom_site_label
_atom_site_type_symbol
_atom_site_description
_atom_site_fract_x
_atom_site_fract_y
_atom_site_fract_z
_atom_type_partial_charge
O1    O     O_R   0.499990 0.319640 0.618810 -0.591323
O2    O     O_R   0.500000 0.319660 0.381240 -0.538730
C1    C     C_R   0.496773 0.262423 0.500029 0.836031
O3    O     O_R   0.370250 0.499960 0.618800 -0.594009
O4    O     O_R   0.370260 0.499980 0.381230 -0.555951
C2    C     C_R   0.328907 0.500437 0.499790 0.860511
Cu1   Cu    Cu3+1 0.499990 0.499990 0.640660 0.949104
Cu2   Cu    Cu3+1 0.500010 0.500010 0.359340 1.016948
O5    O     O_R   0.500000 0.680340 0.618760 -0.631240
O6    O     O_R   0.500010 0.680360 0.381190 -0.585554
O7    O     O_R   0.629740 0.500020 0.618770 -0.601291
O8    O     O_R   0.629750 0.500040 0.381200 -0.563430
C3    C     C_R   0.496555 0.737122 0.500430 0.842277
C4    C     C_R   0.670669 0.498116 0.500393 0.817617
C5    C     C_R   0.815264 0.607454 0.484893 -0.220827
C6    C     C_R   0.766723 0.497387 0.502623 -0.066902
C7    C     C_R   0.809374 0.388542 0.531169 -0.130359
C8    C     C_R   0.902737 0.388023 0.538840 0.031894
C9    C     C_R   0.952193 0.498810 0.512744 0.027142
C10   C     C_R   0.907875 0.608988 0.488607 0.119581
C11   C     C_R   0.947439 0.279454 0.569662 0.134761
C12   C     C_R   0.041539 0.281524 0.568835 0.324024
C13   C     C_R   0.090637 0.391737 0.540050 -0.004757
C14   C     C_R   0.045711 0.500070 0.510428 -0.083575
C15   C     C_R   0.094382 0.610402 0.479017 0.013891
C16   C     C_R   0.049472 0.722332 0.475462 0.252438
C17   C     C_R   0.956488 0.720012 0.474112 -0.231910
C18   C     C_R   0.184125 0.397141 0.544175 -0.163978
C19   C     C_R   0.231985 0.502270 0.500038 -0.204240
C20   C     C_R   0.187051 0.606635 0.457004 0.284791
H1    H     H_    0.780587 0.691804 0.470180 0.174053
H2    H     H_    0.769090 0.305075 0.546916 0.193826
H3    H     H_    0.220941 0.318638 0.577020 0.204785
H4    H     H_    0.922176 0.805636 0.467050 0.170166
C21   C     C_R   0.378253 0.121750 0.689908 -0.242027
H5    H     H_    0.367842 0.218812 0.681668 0.172561
C22   C     C_R   0.332377 0.057776 0.796043 0.338926
C23   C     C_R   0.336791 0.929040 0.802426 0.147051
C24   C     C_R   0.384454 0.868113 0.700703 -0.181400
H6    H     H_    0.376012 0.769436 0.699727 0.203331
C25   C     C_R   0.437505 0.932316 0.601240 0.091054
C26   C     C_R   0.436111 0.062013 0.597701 0.008350
C27   C     C_R   0.490895 0.127899 0.499887 -0.193457
C28   C     C_R   0.539918 0.063750 0.399751 0.329732
H7    H     H_    0.573450 0.888596 0.322021 0.205246
C29   C     C_R   0.535588 0.936534 0.399139 -0.237156
C30   C     C_R   0.488979 0.870475 0.501414 -0.096204
H8    H     H_    0.399838 0.360823 0.128541 0.172907
C31   C     C_R   0.617786 0.664760 0.143348 -0.238253
H9    H     H_    0.622882 0.669970 0.252962 0.215707
C32   C     C_R   0.675062 0.746879 0.071003 0.343443
C33   C     C_R   0.673815 0.744934 0.926831 -0.258937
H10   H     H_    0.717488 0.806663 0.867588 0.190713
C34   C     C_R   0.617004 0.663564 0.855959 -0.205826
H11   H     H_    0.623013 0.670120 0.746422 0.216831
C35   C     C_R   0.557624 0.580595 0.925287 0.201271
C36   C     C_R   0.557765 0.580857 0.074623 0.160770
N1    N     N_R   0.500860 0.501210 0.147910 -0.199353
C37   C     C_R   0.444980 0.423602 0.073694 0.011925
H12   H     H_    0.399734 0.361479 0.870862 0.171222
C38   C     C_R   0.444962 0.423796 0.925954 -0.022901
N2    N     N_R   0.500890 0.501290 0.852040 -0.209335
N3    N     N_R   0.283015 0.124993 0.896813 0.119609
O9    O     O_R   0.243500 0.224307 0.860350 -0.350163
O10   O     O_R   0.288762 0.098463 0.028467 -0.335689
N4    N     N_2   0.287422 0.857211 0.901697 -0.440508
H13   H     H_    0.232539 0.896576 0.944494 0.315967
C39   C     C_3   0.340934 0.791969 0.000706 -0.490917
H14   H     H_    0.298089 0.723698 0.057315 0.262097
H15   H     H_    0.372411 0.857567 0.076396 0.259328
H16   H     H_    0.393593 0.740822 0.947403 0.193357
N5    N     N_R   0.734737 0.832015 0.143583 0.153272
O11   O     O_R   0.736617 0.835777 0.278795 -0.413346
O12   O     O_R   0.787475 0.907664 0.074776 -0.316682
N6    N     N_2   0.897790 0.167331 0.595504 -0.419965
H17   H     H_    0.926935 0.089377 0.559115 0.286187
C40   C     C_3   0.864981 0.153343 0.736423 -0.549308
H18   H     H_    0.921298 0.146862 0.810686 0.269371
H19   H     H_    0.822294 0.068031 0.743935 0.231794
H20   H     H_    0.824421 0.232203 0.766393 0.224511
N7    N     N_R   0.087043 0.170544 0.593153 0.094207
O13   O     O_R   0.139287 0.128432 0.498016 -0.378334
O14   O     O_R   0.080677 0.116052 0.713264 -0.365636
N8    N     N_R   0.233180 0.704058 0.382346 0.139690
O15   O     O_R   0.306553 0.754558 0.430559 -0.401163
O16   O     O_R   0.198738 0.747404 0.269044 -0.332560
N9    N     N_2   0.097117 0.837142 0.490226 -0.359721
H21   H     H_    0.062972 0.911765 0.455981 0.296428
C41   C     C_3   0.136113 0.856326 0.626982 -0.466929
H22   H     H_    0.182676 0.937588 0.624793 0.282102
H23   H     H_    0.175202 0.776875 0.659849 0.201356
H24   H     H_    0.082982 0.870567 0.704940 0.225138
N10   N     N_R   0.598010 0.125886 0.301596 0.153772
O17   O     O_R   0.658955 0.205120 0.345014 -0.353580
O18   O     O_R   0.600353 0.088224 0.173116 -0.315643

loop_
_geom_bond_atom_site_label_1
_geom_bond_atom_site_label_2
_geom_bond_distance
_ccdc_geom_bond_type
N4    C39   1.448252 S    
N9    H21   1.031146 S    
N3    O10   1.301284 A    
N10   O17   1.301164 A    
C8    C11   1.413098 A    
C25   C26   1.413484 A    
C21   H5    1.077197 S    
C27   C28   1.413730 A    
N7    O13   1.301004 A    
Cu1   Cu2   2.703569 S    
C24   C25   1.413260 A    
C40   H18   1.109933 S    
Cu1   O7    1.960500 S    
C1    C27   1.463892 S    
C16   C17   1.395839 A    
C19   C20   1.405833 A    
C18   C19   1.394362 A    
C21   C22   1.402200 A    
N8    O16   1.301086 A    
C23   C24   1.395611 A    
O7    C4    1.294766 A    
C5    C6    1.389003 A    
C31   C36   1.420071 A    
C35   C36   1.435166 A    
C8    C9    1.414509 A    
C21   C26   1.417844 A    
O5    C3    1.296392 A    
C28   N10   1.437554 S    
Cu2   N1    2.032014 S    
C29   C30   1.391915 A    
C23   N4    1.424694 S    
C33   C34   1.383984 A    
C6    C7    1.395874 A    
C31   C32   1.402051 A    
C13   C14   1.410244 A    
C41   H23   1.109767 S    
N4    H13   1.030112 S    
N10   O18   1.301927 A    
C11   C12   1.412656 A    
O3    Cu1   1.959458 S    
C22   N3    1.438043 S    
C28   C29   1.384105 A    
C40   H19   1.110377 S    
C17   H4    1.084679 S    
C5    C10   1.390787 A    
C34   C35   1.412583 A    
C37   C38   1.419831 A    
C32   C33   1.385769 A    
C12   N7    1.430183 S    
C14   C15   1.414679 A    
N5    O12   1.301820 A    
C24   H6    1.076955 S    
C3    C30   1.460790 S    
C16   N9    1.422919 S    
N1    C37   1.367180 A    
H7    C29   1.081533 S    
H12   C38   1.079178 S    
O1    C1    1.300234 A    
N6    H17   1.031346 S    
Cu1   N2    2.031483 S    
C22   C23   1.407124 A    
Cu2   O8    1.959457 S    
C7    C8    1.404262 A    
C25   C30   1.419397 A    
C13   C18   1.403552 A    
N8    O15   1.296950 A    
C41   H24   1.110935 S    
N6    C40   1.448125 S    
O3    C2    1.300389 A    
O8    C4    1.299376 A    
C18   H3    1.082634 S    
N9    C41   1.449534 S    
C7    H2    1.082836 S    
C4    C6    1.443107 S    
C32   N5    1.442757 S    
C33   H10   1.083301 S    
H8    C37   1.081812 S    
C40   H20   1.110211 S    
C15   C20   1.410408 A    
Cu1   O5    1.974886 S    
C34   H11   1.058912 S    
O1    Cu1   1.974751 S    
C39   H14   1.107705 S    
O2    Cu2   1.974888 S    
N5    O11   1.300279 A    
O6    C3    1.303926 A    
N7    O14   1.299960 A    
O4    Cu2   1.960499 S    
C5    H1    1.082414 S    
C10   C17   1.394834 A    
C11   N6    1.427619 S    
C9    C10   1.413313 A    
C9    C14   1.404339 A    
C15   C16   1.416020 A    
C36   N1    1.386950 A    
O4    C2    1.298916 A    
C39   H16   1.110782 S    
O2    C1    1.300816 A    
C35   N2    1.381009 A    
C20   N8    1.437063 S    
C38   N2    1.367358 A    
N3    O9    1.301324 A    
C2    C19   1.456625 S    
Cu2   O6    1.974751 S    
C31   H9    1.057392 S    
C26   C27   1.425790 A    
C39   H15   1.111221 S    
C12   C13   1.411530 A    
C41   H22   1.106474 S    
