data_mof_unit_22559.cif
_audit_creation_date              2012-12-11T16:23:20-0500
_audit_creation_method            fapswitch 2.2
_symmetry_space_group_name_H-M    P1
_symmetry_Int_Tables_number       1
_space_group_crystal_system       triclinic
_cell_length_a                    20.092302
_cell_length_b                    7.193978
_cell_length_c                    19.705889
_cell_angle_alpha                 89.902707
_cell_angle_beta                  99.086927
_cell_angle_gamma                 89.895442
_cell_volume                      2812.60204925

loop_
_atom_site_label
_atom_site_type_symbol
_atom_type_description
_atom_site_fract_x
_atom_site_fract_y
_atom_site_fract_z
_atom_type_partial_charge
O1    O     O_R   0.188410 0.619490 0.310050 -0.541299
O2    O     O_R   0.811590 0.380510 0.689950 -0.539862
O3    O     O_R   0.311590 0.119490 0.189950 -0.540603
O4    O     O_R   0.688410 0.880510 0.810050 -0.541523
O5    O     O_R   0.327280 0.288800 0.321740 -0.527218
O6    O     O_R   0.672720 0.711200 0.678260 -0.527687
O7    O     O_R   0.172720 0.788800 0.178260 -0.528320
O8    O     O_R   0.827280 0.211200 0.821740 -0.532347
C1    C     C_R   0.352318 0.457049 0.337910 0.716382
C2    C     C_R   0.647623 0.542943 0.662225 0.715962
C3    C     C_R   0.148025 0.957740 0.161901 0.713540
C4    C     C_R   0.852343 0.042503 0.837832 0.723836
O9    O     O_R   0.189900 0.289710 0.318190 -0.535517
O10   O     O_R   0.810100 0.710290 0.681810 -0.537222
O11   O     O_R   0.310100 0.789710 0.181810 -0.537560
O12   O     O_R   0.689900 0.210290 0.818190 -0.535345
O13   O     O_R   0.173230 0.120350 0.186370 -0.535159
O14   O     O_R   0.826770 0.879650 0.813630 -0.534863
O15   O     O_R   0.326770 0.620350 0.313630 -0.536607
O16   O     O_R   0.673230 0.379650 0.686370 -0.537141
C5    C     C_R   0.168297 0.457371 0.332745 0.693614
C6    C     C_R   0.829854 0.542334 0.665154 0.686447
C7    C     C_R   0.329844 0.957678 0.165149 0.687457
C8    C     C_R   0.668305 0.042672 0.832746 0.692174
O17   O     O_3   0.244690 0.453290 0.206760 -0.372285
O18   O     O_3   0.755310 0.546710 0.793240 -0.373495
O19   O     O_3   0.255310 0.953290 0.293240 -0.372802
O20   O     O_3   0.744690 0.046710 0.706760 -0.371875
V1    V     V_3+5 0.250980 0.178070 0.258020 1.409812
V2    V     V_3+5 0.749020 0.821930 0.741980 1.404915
V3    V     V_3+5 0.249020 0.678070 0.241980 1.406111
V4    V     V_3+5 0.750980 0.321930 0.758020 1.403712
C9    C     C_R   0.463663 0.142222 0.066023 -0.148166
C10   C     C_R   0.567395 0.860520 0.966209 -0.145602
C11   C     C_R   0.067474 0.639119 0.466310 -0.146706
C12   C     C_R   0.963712 0.357448 0.566071 -0.150169
H1    H     H_    0.492532 0.269104 0.065577 0.117651
H2    H     H_    0.566283 0.734290 0.996042 0.119254
H3    H     H_    0.066401 0.764999 0.496197 0.118518
H4    H     H_    0.992567 0.230258 0.565602 0.116767
C13   C     C_R   0.416872 0.127763 0.111282 -0.193306
C14   C     C_R   0.613666 0.874241 0.920382 -0.198727
C15   C     C_R   0.113711 0.625441 0.420444 -0.198924
C16   C     C_R   0.916904 0.371932 0.611317 -0.194181
H5    H     H_    0.411455 0.244605 0.144502 0.127987
H6    H     H_    0.647048 0.757780 0.916441 0.136695
H7    H     H_    0.147108 0.741581 0.416525 0.136184
H8    H     H_    0.911455 0.254841 0.644529 0.129863
C17   C     C_R   0.378444 0.965201 0.114629 -0.058514
C18   C     C_R   0.617742 0.035969 0.880916 -0.058929
C19   C     C_R   0.117734 0.464140 0.380912 -0.059146
C20   C     C_R   0.878485 0.534855 0.614670 -0.057160
C21   C     C_R   0.388122 0.814975 0.069773 0.145229
C22   C     C_R   0.572687 0.185800 0.888071 0.158923
C23   C     C_R   0.072630 0.314778 0.388002 0.158989
C24   C     C_R   0.888216 0.685497 0.569875 0.144409
C25   C     C_R   0.436132 0.831529 0.025191 -0.133575
C26   C     C_R   0.527050 0.170242 0.935179 -0.134152
C27   C     C_R   0.027037 0.330251 0.435157 -0.133568
C28   C     C_R   0.936234 0.668896 0.525306 -0.133453
H9    H     H_    0.443148 0.717960 0.990924 0.106855
H10   H     H_    0.492561 0.283532 0.940286 0.107557
H11   H     H_    0.992516 0.217312 0.440219 0.107974
H12   H     H_    0.943279 0.782767 0.491073 0.107175
C29   C     C_R   0.474176 0.993844 0.022872 0.060499
C30   C     C_R   0.523911 0.008716 0.974465 0.057742
C31   C     C_R   0.023970 0.491305 0.474531 0.057631
C32   C     C_R   0.974249 0.506182 0.522953 0.061154
C33   C     C_R   0.085035 0.961577 0.110614 -0.114464
C34   C     C_R   0.915349 0.038773 0.889491 -0.131771
C35   C     C_R   0.415243 0.458033 0.389735 -0.124555
C36   C     C_R   0.584616 0.541751 0.610607 -0.127361
C37   C     C_R   0.030741 0.143453 0.932352 0.368629
C38   C     C_R   0.971093 0.846506 0.066402 0.371430
C39   C     C_R   0.477744 0.687656 0.558203 0.368883
C40   C     C_R   0.521966 0.311629 0.442387 0.368445
C41   C     C_R   0.973022 0.143898 0.880059 0.077505
C42   C     C_R   0.027090 0.858988 0.120798 0.071883
C43   C     C_R   0.531459 0.669912 0.614574 0.075922
C44   C     C_R   0.468299 0.329288 0.386000 0.077117
C45   C     C_R   0.916271 0.937358 0.950559 -0.215153
C46   C     C_R   0.084963 0.057082 0.048547 -0.226501
C47   C     C_R   0.580111 0.422539 0.553842 -0.228083
C48   C     C_R   0.419728 0.577317 0.446515 -0.227496
C49   C     C_R   0.971980 0.944433 0.004209 0.024146
C50   C     C_R   0.029109 0.050330 0.995248 0.012702
C51   C     C_R   0.525429 0.432648 0.499238 0.017601
C52   C     C_R   0.474342 0.566995 0.501223 0.017659
H13   H     H_    0.129766 0.133863 0.041586 0.177054
H14   H     H_    0.871859 0.858019 0.956894 0.179303
H15   H     H_    0.379030 0.675136 0.448623 0.184419
H16   H     H_    0.620857 0.324920 0.551663 0.185411
C53   C     C_3   0.347582 0.637796 0.066309 -0.731722
H17   H     H_    0.292863 0.670549 0.057000 0.212132
H18   H     H_    0.357838 0.545914 0.023873 0.191817
H19   H     H_    0.360864 0.557913 0.114764 0.212651
C54   C     C_3   0.569911 0.360388 0.845024 -0.758102
H20   H     H_    0.563968 0.324077 0.789639 0.204167
H21   H     H_    0.526663 0.450709 0.852204 0.193428
H22   H     H_    0.616391 0.443272 0.859986 0.217551
C55   C     C_3   0.069729 0.140896 0.344800 -0.761146
H23   H     H_    0.063804 0.178171 0.289452 0.206310
H24   H     H_    0.116149 0.057086 0.359669 0.217574
H25   H     H_    0.026412 0.051100 0.351885 0.194413
C56   C     C_3   0.847741 0.863230 0.566476 -0.730568
H26   H     H_    0.793010 0.831291 0.557110 0.213101
H27   H     H_    0.861025 0.942325 0.614977 0.212210
H28   H     H_    0.858062 0.955530 0.524102 0.192064
C57   C     C_3   0.023111 0.770718 0.190001 -0.779999
H29   H     H_    0.975163 0.811270 0.207343 0.211408
H30   H     H_    0.025751 0.617040 0.185921 0.205209
H31   H     H_    0.063840 0.816303 0.231182 0.209019
C58   C     C_3   0.972066 0.257425 0.814938 -0.748361
H32   H     H_    0.019672 0.331657 0.811980 0.211344
H33   H     H_    0.961243 0.165342 0.769389 0.180985
H34   H     H_    0.932927 0.367246 0.811761 0.223916
C59   C     C_3   0.470535 0.219103 0.320893 -0.764163
H35   H     H_    0.522096 0.222999 0.307305 0.209703
H36   H     H_    0.455812 0.072682 0.328359 0.207513
H37   H     H_    0.437117 0.277797 0.275791 0.198186
C60   C     C_3   0.529201 0.779198 0.679904 -0.764821
H38   H     H_    0.477691 0.774247 0.693591 0.209579
H39   H     H_    0.562830 0.720571 0.724924 0.207155
H40   H     H_    0.543601 0.925982 0.672611 0.205306
O21   O     O_3   0.089028 0.235035 0.923599 -0.649595
H41   H     H_    0.100138 0.197363 0.878365 0.287820
O22   O     O_3   0.914288 0.742806 0.072400 -0.652703
H42   H     H_    0.924353 0.651945 0.110281 0.301544
O23   O     O_3   0.427201 0.819014 0.557572 -0.653348
H43   H     H_    0.443188 0.921731 0.589230 0.300364
O24   O     O_3   0.572408 0.179894 0.443161 -0.653171
H44   H     H_    0.556218 0.076587 0.411865 0.300493

loop_
_geom_bond_atom_site_label_1
_geom_bond_atom_site_label_2
_ccdc_geom_bond_type
C26   H10   S    
C47   C51   A    
C51   C52   A    
O1    C5    A    
C53   H17   S    
C23   C27   A    
O19   V1    S    
O13   V1    S    
O12   C8    A    
O3    C7    A    
C10   C14   A    
O15   V3    S    
C10   C30   A    
C54   H20   S    
C9    C29   A    
C49   C50   A    
O7    C3    A    
C47   H16   S    
C56   H27   S    
C18   C22   A    
C46   H13   S    
O9    V1    S    
C58   H32   S    
C36   C43   A    
C57   H30   S    
O16   V4    S    
O4    C8    A    
C40   O24   S    
C37   O21   S    
C7    C17   S    
O1    V3    S    
O2    V4    S    
C14   H6    S    
O3    V1    S    
C34   C45   A    
C60   H40   S    
C33   C46   A    
C27   C31   A    
C26   C30   A    
C2    O16   A    
O2    C6    A    
C22   C54   S    
O14   V2    S    
C48   H15   S    
C11   C15   A    
C58   H34   S    
C16   C20   A    
O11   C7    A    
C55   H24   S    
C34   C41   A    
C33   C42   A    
O10   V2    S    
C41   C58   S    
C13   C17   A    
C35   C44   A    
C54   H21   S    
C1    O15   A    
O5    V1    S    
C8    C18   S    
C37   C50   A    
C56   H28   S    
O7    V3    S    
C21   C53   S    
C31   C32   S    
O8    V4    S    
C55   H23   S    
C48   C52   A    
C12   H4    S    
C57   H31   S    
C21   C25   A    
O18   V4    S    
C46   C50   A    
C9    H1    S    
C24   C28   A    
C11   H3    S    
O5    C1    A    
C43   C60   S    
C38   O22   S    
C11   C31   A    
O8    C4    A    
C3    C33   S    
O9    C5    A    
O11   V3    S    
C40   C51   A    
C60   H38   S    
C14   C18   A    
C45   H14   S    
O6    V2    S    
C53   H19   S    
O21   H41   S    
C59   H37   S    
O22   H42   S    
C5    C19   S    
C54   H22   S    
C6    C20   S    
C35   C48   A    
C22   C26   A    
C4    C34   S    
C44   C59   S    
C3    O13   A    
C13   H5    S    
C1    C35   S    
C10   H2    S    
O17   V3    S    
C40   C44   A    
C25   C29   A    
O6    C2    A    
C12   C32   A    
C25   H9    S    
O12   V4    S    
C56   H26   S    
C23   C55   S    
C27   H11   S    
C28   H12   S    
C9    C13   A    
O10   C6    A    
C59   H36   S    
O23   H43   S    
C16   H8    S    
C59   H35   S    
C15   C19   A    
C15   H7    S    
C17   C21   A    
O20   V2    S    
C42   C57   S    
C19   C23   A    
C38   C49   A    
O24   H44   S    
O4    V2    S    
C24   C56   S    
C60   H39   S    
C36   C47   A    
C12   C16   A    
C39   O23   S    
C39   C52   A    
C28   C32   A    
C53   H18   S    
C29   C30   S    
C38   C42   A    
C4    O14   A    
C37   C41   A    
C55   H25   S    
C57   H29   S    
C39   C43   A    
C45   C49   A    
C20   C24   A    
C58   H33   S    
C2    C36   S    
