data_mof_unit_18154.cif
_audit_creation_date              2013-03-05T15:46:18-0500
_audit_creation_method            fapswitch 2.2
_symmetry_space_group_name_H-M    P1
_symmetry_Int_Tables_number       1
_space_group_crystal_system       triclinic
_cell_length_a                    8.289702
_cell_length_b                    15.202934
_cell_length_c                    19.191757
_cell_angle_alpha                 97.049991
_cell_angle_beta                  94.40669
_cell_angle_gamma                 98.138714
_cell_volume                      2365.28082921

loop_
_atom_site_label
_atom_site_type_symbol
_atom_site_description
_atom_site_fract_x
_atom_site_fract_y
_atom_site_fract_z
_atom_type_partial_charge
P1    P     P_3+3 0.990700 0.707490 0.561920 0.481986
O1    O     O_2   0.165020 0.721890 0.541560 -0.335180
O2    O     O_3   0.893030 0.608480 0.539180 -0.409123
O3    O     O_3   0.389120 0.667500 0.413900 -0.397995
O4    O     O_2   0.310023 0.825008 0.462164 -0.305760
O5    O     O_3   0.002798 0.728178 0.654019 -0.573295
O6    O     O_3   0.381651 0.809434 0.332475 -0.518733
H1    H     H_    0.334986 0.679705 0.280554 0.146435
C1    C     C_3   0.413124 0.773728 0.210571 -0.979452
H2    H     H_    0.439713 0.720059 0.170620 0.213588
H3    H     H_    0.288489 0.788917 0.196520 0.293404
P2    P     P_3+3 0.340130 0.430100 0.338870 0.494854
P3    P     P_3+3 0.930481 0.614837 0.285367 0.455891
O7    O     O_2   0.172060 0.457600 0.329040 -0.345595
O8    O     O_3   0.964390 0.622060 0.377370 -0.358492
O9    O     O_2   0.041974 0.551070 0.252603 -0.389763
O10   O     O_3   0.306495 0.315876 0.305019 -0.567079
O11   O     O_3   0.009484 0.718409 0.261415 -0.488873
C2    C     C_3   0.891397 0.775552 0.268934 0.368610
H4    H     H_    0.859906 0.785175 0.324464 0.074784
H5    H     H_    0.779991 0.748679 0.232444 0.052464
C3    C     C_3   0.960099 0.866028 0.249005 -0.892795
H6    H     H_    0.073748 0.894712 0.283514 0.286209
H7    H     H_    0.989247 0.858273 0.193258 0.255991
C4    C     C_3   0.762406 0.348753 0.317798 0.371769
H8    H     H_    0.642969 0.365619 0.332243 0.085884
H9    H     H_    0.860536 0.406330 0.336340 0.139811
C5    C     C_3   0.757746 0.329849 0.238014 -0.838933
H10   H     H_    0.664977 0.270316 0.217835 0.267285
H11   H     H_    0.879547 0.316401 0.222906 0.263425
Ba1   Ba    Ba6+2 0.161760 0.544680 0.467770 1.586082
C6    C     C_3   0.046866 0.655978 0.684783 0.395898
H12   H     H_    0.170394 0.645590 0.671109 0.092387
H13   H     H_    0.955531 0.594879 0.667605 0.120917
C7    C     C_3   0.050406 0.679578 0.764454 -0.922867
H14   H     H_    0.144797 0.738755 0.783517 0.255861
H15   H     H_    0.079142 0.623197 0.792014 0.209599
H16   H     H_    0.929162 0.695446 0.778269 0.299795
C8    C     C_3   0.275199 0.259507 0.356095 0.325261
H17   H     H_    0.146216 0.258807 0.368300 0.116237
H18   H     H_    0.361199 0.280367 0.404254 0.149326
C9    C     C_3   0.302017 0.165861 0.324512 -0.699848
H19   H     H_    0.263235 0.154326 0.266937 0.221229
H20   H     H_    0.434667 0.161263 0.330807 0.185382
P4    P     P_3+3 0.819590 0.292500 0.438020 0.482451
O12   O     O_2   0.645270 0.278050 0.458420 -0.383633
O13   O     O_3   0.917270 0.391510 0.460760 -0.392832
O14   O     O_3   0.421180 0.332490 0.586040 -0.355990
O15   O     O_3   0.792169 0.271260 0.345840 -0.552858
P5    P     P_3+3 0.869447 0.386252 0.715171 0.519083
O16   O     O_3   0.383630 0.545490 0.584580 -0.428883
O17   O     O_3   0.845910 0.377930 0.622570 -0.357499
O18   O     O_2   0.728095 0.431030 0.744212 -0.362995
O19   O     O_3   0.825177 0.277203 0.735438 -0.481668
Ba2   Ba    Ba6+2 0.648420 0.455310 0.532170 1.598757
P6    P     P_3+3 0.434108 0.783826 0.416840 0.486473
C10   C     C_3   0.422905 0.742614 0.282771 0.521120
H21   H     H_    0.549315 0.729045 0.295523 -0.037084
H22   H     H_    0.504188 0.834841 0.210591 0.252318
O20   O     O_3   0.426670 0.454500 0.415370 -0.413070
C11   C     C_3   0.562682 0.734180 0.645593 0.295281
H23   H     H_    0.661871 0.703056 0.621183 0.080619
C12   C     C_3   0.631544 0.829645 0.680151 -0.601402
H24   H     H_    0.755996 0.829735 0.706190 0.233823
H25   H     H_    0.556441 0.851115 0.722675 0.198365
P7    P     P_3+3 0.465023 0.572764 0.673474 0.484208
O21   O     O_2   0.638230 0.542350 0.670940 -0.344369
O22   O     O_3   0.503139 0.688395 0.699487 -0.542213
H26   H     H_    0.868084 0.912195 0.254954 0.229482
C13   C     C_3   0.895464 0.221037 0.686893 0.409822
H27   H     H_    0.830702 0.215500 0.633215 0.120526
H28   H     H_    0.027274 0.246169 0.685538 0.049763
C14   C     C_3   0.878821 0.128110 0.708443 -0.729789
H29   H     H_    0.921282 0.130305 0.764850 0.297431
P8    P     P_3+3 0.382900 0.214303 0.581940 0.486190
C15   C     C_3   0.349627 0.210737 0.713876 0.187179
O23   O     O_2   0.501053 0.176732 0.531774 -0.357267
O24   O     O_3   0.457282 0.188722 0.663802 -0.514715
H30   H     H_    0.324279 0.280677 0.712770 0.122641
C16   C     C_3   0.426315 0.204164 0.788401 -0.531209
H31   H     H_    0.537596 0.255835 0.800401 0.198785
C17   C     C_R   0.165256 0.166879 0.544549 0.067816
C18   C     C_R   0.098678 0.075270 0.537700 0.044369
C19   C     C_R   0.959721 0.890434 0.529751 -0.037795
C20   C     C_R   0.099585 0.929055 0.577061 -0.034520
C21   C     C_R   0.176381 0.016064 0.573688 -0.199224
C22   C     C_R   0.891800 0.796492 0.521220 0.208275
H32   H     H_    0.286388 0.040994 0.608475 0.166028
C23   C     C_R   0.739438 0.768470 0.482338 -0.486593
C24   C     C_R   0.918221 0.200405 0.478310 0.161037
C25   C     C_R   0.854262 0.106462 0.468470 -0.007117
C26   C     C_R   0.943270 0.044249 0.499720 0.027779
C27   C     C_R   0.704718 0.072273 0.428853 -0.037752
C28   C     C_R   0.639594 0.981252 0.422522 -0.197824
C29   C     C_R   0.721670 0.919619 0.454916 -0.052679
C30   C     C_R   0.877315 0.950694 0.492922 0.084551
C31   C     C_R   0.649905 0.828583 0.452638 0.182925
C32   C     C_R   0.068597 0.226510 0.518401 -0.495965
H33   H     H_    0.522619 0.960019 0.392202 0.218916
H34   H     H_    0.635619 0.115763 0.402749 0.170164
C33   C     C_R   0.612366 0.539327 0.301633 -0.519742
C34   C     C_R   0.455113 0.494870 0.278836 0.336274
C35   C     C_R   0.395770 0.488183 0.207601 -0.210012
C36   C     C_R   0.497469 0.520380 0.157715 0.055974
C37   C     C_R   0.658951 0.561980 0.181464 -0.281209
C38   C     C_R   0.715804 0.571019 0.253252 0.197678
C39   C     C_R   0.464298 0.584046 0.044218 -0.151423
C40   C     C_R   0.407812 0.578587 0.973000 -0.124722
C41   C     C_R   0.326122 0.497498 0.935271 0.155051
C42   C     C_R   0.291826 0.424092 0.972190 -0.148313
C43   C     C_R   0.348609 0.427858 0.043811 -0.110729
C44   C     C_R   0.436897 0.509487 0.080985 0.078843
C45   C     C_R   0.122373 0.446881 0.828549 -0.240341
C46   C     C_R   0.073495 0.442843 0.756494 0.259907
C47   C     C_R   0.342586 0.518220 0.737927 0.225858
C48   C     C_R   0.395633 0.521548 0.810495 -0.220944
C49   C     C_R   0.281835 0.488213 0.857024 -0.039105
C50   C     C_R   0.182093 0.481864 0.713543 -0.417496
H35   H     H_    0.530142 0.647329 0.070669 0.121983
H36   H     H_    0.272338 0.454766 0.190754 0.149664
H37   H     H_    0.226364 0.362042 0.944188 0.166292
H38   H     H_    0.035223 0.419618 0.862511 0.161046
H39   H     H_    0.741487 0.585156 0.144197 0.154969
H40   H     H_    0.137989 0.489429 0.660783 0.176492
H41   H     H_    0.658623 0.543396 0.356403 0.168590
H42   H     H_    0.726121 0.388228 0.213588 0.240401
C51   C     C_2   0.205797 0.093602 0.357102 1.036890
O25   O     O_2   0.274510 0.052051 0.397939 -0.634023
O26   O     O_R   0.037788 0.071713 0.337837 -0.793799
H43   H     H_    0.987499 0.017581 0.358839 0.314444
H44   H     H_    0.460814 0.734474 0.604596 0.150831
C52   C     C_2   0.636126 0.897811 0.630078 1.034000
O27   O     O_2   0.759515 0.951642 0.631186 -0.665471
O28   O     O_R   0.498563 0.904105 0.585577 -0.745734
H45   H     H_    0.514489 0.958325 0.559527 0.334720
H46   H     H_    0.748205 0.097459 0.699661 0.279383
H47   H     H_    0.953845 0.087283 0.676304 0.226637
H48   H     H_    0.233862 0.162757 0.702468 0.083356
C53   C     C_2   0.311970 0.222735 0.843983 0.991706
O29   O     O_2   0.356619 0.220427 0.905921 -0.594481
O30   O     O_R   0.155532 0.241578 0.825265 -0.829969
H49   H     H_    0.085964 0.245322 0.866377 0.343297
C54   C     C_2   0.473479 0.112756 0.792920 1.141581
O31   O     O_2   0.612058 0.106126 0.816169 -0.613963
O32   O     O_R   0.357043 0.036028 0.773319 -0.796632
H50   H     H_    0.402865 0.979161 0.780721 0.319026
C55   C     C_2   0.132343 0.898822 0.646071 1.137883
O33   O     O_2   0.045574 0.916047 0.693027 -0.606135
O34   O     O_R   0.266005 0.855544 0.659644 -0.755831
H51   H     H_    0.274056 0.839103 0.709221 0.313280
H52   H     H_    0.685178 0.698770 0.478322 0.171183
C56   C     C_2   0.128223 0.319591 0.534585 1.137361
O35   O     O_2   0.126752 0.355943 0.594128 -0.692468
O36   O     O_R   0.211225 0.362335 0.485679 -0.792365
H53   H     H_    0.285258 0.416999 0.509632 0.395159
C57   C     C_2   0.568415 0.556641 0.837430 1.074048
O37   O     O_2   0.634783 0.628202 0.822903 -0.629658
O38   O     O_R   0.654455 0.508173 0.880928 -0.775950
H54   H     H_    0.770881 0.538667 0.896082 0.318606
H55   H     H_    0.430657 0.637801 0.946982 0.120938
C58   C     C_2   0.321632 0.343530 0.075806 1.054545
O39   O     O_2   0.195387 0.290465 0.058731 -0.609576
O40   O     O_R   0.441929 0.322970 0.123569 -0.798333
H56   H     H_    0.407973 0.263770 0.141559 0.334712

loop_
_geom_bond_atom_site_label_1
_geom_bond_atom_site_label_2
_geom_bond_distance
_ccdc_geom_bond_type
P1    C22   1.894276 S    
O14   Ba2   2.807339 S    
P7    O22   1.744263 S    
C12   H25   1.109241 S    
C33   C34   1.392069 A    
C14   H29   1.107331 S    
O4    P6    1.546887 D    
O5    C6    1.387928 S    
C29   C30   1.420623 A    
C43   C58   1.484535 S    
C19   C22   1.443706 A    
P1    Ba1   3.419353 S    
O7    Ba1   2.837325 S    
C58   O39   1.223438 D    
C10   H21   1.111185 S    
C41   C49   1.502794 S    
C8    H18   1.107184 S    
C32   C56   1.419072 S    
C20   C21   1.395763 A    
C40   C41   1.404203 A    
C4    C5    1.519332 S    
C18   C26   1.418687 A    
P5    O19   1.744268 S    
P3    O11   1.746866 S    
O6    P6    1.748342 S    
C5    H10   1.109801 S    
C55   O34   1.390181 S    
C15   O24   1.403350 S    
O11   C2    1.401971 S    
C42   H37   1.076565 S    
O10   C8    1.394598 S    
C21   H32   1.080485 S    
O34   H51   1.012695 S    
C47   C48   1.420518 A    
C26   C30   1.436047 A    
C48   C49   1.431540 A    
C37   H39   1.082871 S    
P1    O1    1.518882 D    
C19   C30   1.437882 A    
C11   C12   1.530711 S    
C42   C43   1.409903 A    
C55   O33   1.221901 D    
O2    Ba2   2.845453 S    
C45   H38   1.082794 S    
C2    H4    1.113825 S    
C52   O27   1.213188 D    
O12   Ba2   2.881742 S    
P5    O17   1.759821 S    
C39   C40   1.398961 A    
C15   H30   1.115039 S    
C13   H27   1.112426 S    
C1    H2    1.107038 S    
C3    H26   1.110305 S    
O16   Ba2   2.926153 S    
O17   Ba2   2.771997 S    
C16   C54   1.506582 S    
P7    O21   1.571927 D    
Ba1   O13   2.844863 S    
Ba2   O20   2.785253 S    
O3    P6    1.747964 S    
C17   C32   1.404034 A    
O14   P8    1.770689 S    
C11   H23   1.111035 S    
C9    H20   1.110001 S    
P6    C31   1.867316 S    
C39   H35   1.081705 S    
C36   C37   1.412601 A    
C58   O40   1.396610 S    
C5    H42   1.106937 S    
O32   H50   1.013281 S    
C8    C9    1.530431 S    
P4    O13   1.597257 S    
P5    O18   1.542780 D    
P7    C47   1.858560 S    
P1    O5    1.749446 S    
O3    Ba1   2.807941 S    
C6    C7    1.524140 S    
C20   C55   1.472630 S    
C7    H16   1.110211 S    
C19   C20   1.424087 A    
C8    H17   1.110907 S    
C36   C44   1.500327 S    
O26   H43   1.011747 S    
C16   H31   1.113041 S    
C4    H8    1.104313 S    
P4    O12   1.519182 D    
C23   C31   1.402099 A    
O1    Ba1   2.881220 S    
P1    O2    1.597227 S    
O16   P7    1.762955 S    
C6    H13   1.110011 S    
Ba1   O20   2.926926 S    
P2    O10   1.753138 S    
C51   O26   1.395213 S    
P2    C34   1.840419 S    
H1    C10   1.111559 S    
C25   C27   1.400262 A    
C1    H3    1.110648 S    
C33   H41   1.082188 S    
O19   C13   1.402006 S    
C14   H46   1.108039 S    
P4    O15   1.750084 S    
C47   C50   1.388227 A    
C2    C3    1.517713 S    
C13   C14   1.510962 S    
C28   C29   1.409232 A    
C27   C28   1.399348 A    
C50   H40   1.075070 S    
C12   C52   1.495953 S    
O2    Ba1   2.921689 S    
P4    C24   1.928580 S    
P8    O23   1.543000 D    
C27   H34   1.077362 S    
O36   H53   0.998537 S    
C46   C50   1.387340 A    
C9    C51   1.493799 S    
C45   C49   1.417884 A    
C56   O36   1.378066 S    
P3    O8    1.753890 S    
P2    Ba1   3.402078 S    
O38   H54   1.013938 S    
C3    H7    1.110736 S    
C9    H19   1.112185 S    
C51   O25   1.221704 D    
C25   C26   1.437900 A    
O13   Ba2   2.922531 S    
C45   C46   1.402236 A    
C33   C38   1.394546 A    
C54   O32   1.396983 S    
C57   O37   1.221717 D    
C43   C44   1.424771 A    
C7    H15   1.104969 S    
C15   C16   1.540491 S    
Ba1   O16   2.785992 S    
P3    C38   1.840014 S    
Ba2   O21   2.837631 S    
C53   O29   1.223747 D    
C29   C31   1.421026 A    
P8    C17   1.896221 S    
O8    Ba1   2.771398 S    
O28   H45   1.013591 S    
C40   H55   1.082690 S    
C15   H48   1.109622 S    
C4    H9    1.109959 S    
C16   C53   1.507758 S    
C37   C38   1.405194 A    
Ba1   Ba2   4.565838 S    
C6    H12   1.104224 S    
C5    H11   1.110964 S    
P2    O7    1.515064 D    
O30   H49   1.013194 S    
C53   O30   1.397040 S    
C11   O22   1.398518 S    
C24   C25   1.435466 A    
C14   H47   1.107596 S    
C28   H33   1.077799 S    
C57   O38   1.398879 S    
C35   H36   1.082252 S    
O6    C10   1.403385 S    
C1    C10   1.518167 S    
C34   C35   1.403460 A    
P8    O24   1.751791 S    
C4    O15   1.398575 S    
C48   C57   1.485101 S    
O40   H56   1.013875 S    
C11   H44   1.109967 S    
C12   H24   1.110984 S    
P2    O20   1.561055 S    
C23   H52   1.082029 S    
C18   C21   1.396614 A    
C56   O35   1.208479 D    
P4    Ba2   3.419862 S    
C52   O28   1.392924 S    
C17   C18   1.409904 A    
P3    O9    1.543641 D    
C35   C36   1.410395 A    
C22   C23   1.399417 A    
C3    H6    1.110528 S    
C39   C44   1.407991 A    
C13   H28   1.108681 S    
C7    H14   1.109688 S    
P5    C46   1.855969 S    
C41   C42   1.401251 A    
C1    H22   1.111010 S    
C24   C32   1.393208 A    
C54   O31   1.222289 D    
C2    H5    1.110763 S    
