data_mof_unit_44261.cif
_audit_creation_date              2012-12-10T18:09:47-0500
_audit_creation_method            fapswitch 2.2
_symmetry_space_group_name_H-M    P1
_symmetry_Int_Tables_number       1
_space_group_crystal_system       triclinic
_cell_length_a                    10.796088
_cell_length_b                    12.655877
_cell_length_c                    13.385299
_cell_angle_alpha                 83.993081
_cell_angle_beta                  92.28917
_cell_angle_gamma                 101.444572
_cell_volume                      1782.33552617

loop_
_atom_site_label
_atom_site_type_symbol
_atom_type_description
_atom_site_fract_x
_atom_site_fract_y
_atom_site_fract_z
_atom_type_partial_charge
C1    C     C_R   0.475246 0.441875 0.690478 0.858002
C2    C     C_R   0.476488 0.465768 0.970855 0.015128
C3    C     C_R   0.472306 0.497174 0.867073 0.055947
C4    C     C_R   0.740928 0.500646 0.496381 0.829790
C5    C     C_R   0.515034 0.545822 0.036785 -0.091800
C6    C     C_R   0.587653 0.646132 0.001009 0.074206
C7    C     C_R   0.576194 0.682090 0.899812 0.329271
C8    C     C_R   0.495567 0.612236 0.838179 -0.104667
C9    C     C_R   0.471065 0.535042 0.134042 -0.073533
C10   C     C_R   0.643418 0.682829 0.172981 -0.114578
C11   C     C_R   0.445725 0.413669 0.798926 -0.097386
C12   C     C_3   0.118963 0.497271 0.498713 -0.138377
C13   C     C_R   0.317061 0.082005 0.349628 0.449585
C14   C     C_R   0.672342 0.803987 0.611902 0.500845
C15   C     C_R   0.730331 0.913042 0.613186 -0.432138
C16   C     C_R   0.520727 0.559562 0.310654 0.884891
C17   C     C_R   0.675544 0.993940 0.559380 0.509695
C18   C     C_R   0.554673 0.965206 0.513468 0.015215
C19   C     C_R   0.511003 0.854120 0.501844 0.017168
C20   C     C_R   0.481389 0.041829 0.469807 -0.088028
C21   C     C_R   0.388319 0.008551 0.395374 -0.012891
C22   C     C_R   0.366499 0.901546 0.368984 0.445101
C23   C     C_3   0.089715 0.603207 0.434165 0.788305
C24   C     C_R   0.420971 0.824856 0.427575 -0.238712
C25   C     C_R   0.491674 0.148143 0.500182 0.113796
C26   C     C_R   0.350322 0.191349 0.367953 -0.105901
C27   C     C_R   0.257626 0.499609 0.499489 0.859548
C28   C     C_3   0.897269 0.390169 0.455295 -0.249347
C29   C     C_3   0.041647 0.390519 0.452348 0.255717
C30   C     C_3   0.944937 0.595977 0.427248 -0.450736
C31   C     C_3   0.930097 0.505465 0.605829 -0.206540
C32   C     C_3   0.875876 0.497364 0.495835 -0.157959
C33   C     C_2   0.828364 0.365216 0.355995 0.519435
C34   C     C_3   0.074411 0.503622 0.608539 -0.340614
C35   C     C_2   0.732806 0.743695 0.243988 0.438301
C36   C     C_2   0.334544 0.488840 0.149705 0.462598
C37   C     C_2   0.352560 0.211636 0.779762 0.495363
C38   C     C_2   0.405089 0.661640 0.770868 0.537520
C39   C     C_2   0.296259 0.271738 0.301989 0.436333
C40   C     C_2   0.551685 0.176644 0.597278 0.587057
C41   C     C_2   0.065880 0.283668 0.506882 0.499699
C42   C     C_2   0.851044 0.428053 0.684446 0.509228
C43   C     C_2   0.119385 0.426149 0.689515 0.653148
C44   C     C_R   0.655770 0.713149 0.069560 -0.040998
C45   C     C_R   0.544482 0.595108 0.205163 -0.133716
C46   C     C_R   0.404192 0.303585 0.839349 -0.046257
C47   C     C_R   0.409421 0.276942 0.943053 -0.149002
C48   C     C_R   0.448277 0.356005 0.007537 -0.130430
H1    H     H_    0.121989 0.583411 0.631970 0.251588
H2    H     H_    0.922206 0.587354 0.625578 0.164732
H3    H     H_    0.832322 0.427002 0.293039 0.039866
H4    H     H_    0.130923 0.760930 0.435908 0.370904
H5    H     H_    0.742016 0.711636 0.321480 0.077231
H6    H     H_    0.615762 0.802737 0.796608 0.339347
H7    H     H_    0.280332 0.437199 0.097236 0.139121
H8    H     H_    0.365070 0.130677 0.807735 0.110380
H9    H     H_    0.424520 0.746776 0.743428 0.058228
H10   H     H_    0.287413 0.346486 0.327772 0.211260
H11   H     H_    0.304232 0.801687 0.268472 0.344465
H12   H     H_    0.921383 0.671989 0.449334 0.201369
H13   H     H_    0.146304 0.085990 0.300567 0.359718
H14   H     H_    0.614194 0.253616 0.602952 0.133705
H15   H     H_    0.803363 0.755007 0.698161 0.328810
H16   H     H_    0.826486 0.103018 0.578366 0.385271
H17   H     H_    0.124899 0.237965 0.472468 0.103494
H18   H     H_    0.046856 0.441650 0.306144 0.395385
H19   H     H_    0.229408 0.631380 0.341399 0.355452
H20   H     H_    0.796677 0.460374 0.736203 0.060881
H21   H     H_    0.185515 0.377597 0.671979 0.107643
H22   H     H_    0.719948 0.786919 0.042651 0.233097
H23   H     H_    0.456205 0.330916 0.087032 0.182759
H24   H     H_    0.382925 0.193457 0.974927 0.172879
H25   H     H_    0.851635 0.323014 0.509809 0.252406
H26   H     H_    0.820752 0.934358 0.651516 0.181382
H27   H     H_    0.396180 0.743162 0.410426 0.212659
H28   H     H_    0.910398 0.590858 0.348274 0.159364
N1    N     N_R   0.433240 0.222190 0.444680 -0.202999
N2    N     N_R   0.566070 0.776970 0.554790 -0.138325
O1    O     O_R   0.468120 0.366740 0.627160 -0.622579
O2    O     O_3   0.144688 0.696783 0.481202 -0.791734
O3    O     O_2   0.800135 0.830358 0.215943 -0.515319
O4    O     O_3   0.622670 0.790109 0.870156 -0.756341
O5    O     O_2   0.277777 0.515339 0.216710 -0.565718
O6    O     O_2   0.287868 0.222363 0.704042 -0.555306
O7    O     O_2   0.303385 0.607747 0.748802 -0.593559
O8    O     O_2   0.261560 0.255074 0.216095 -0.567143
O9    O     O_3   0.291817 0.872937 0.285963 -0.658106
O10   O     O_3   0.213370 0.045277 0.289665 -0.625444
O11   O     O_2   0.533805 0.112305 0.672288 -0.607348
O12   O     O_R   0.510770 0.544830 0.662520 -0.578290
O13   O     O_3   0.725914 0.722466 0.661421 -0.743766
O14   O     O_3   0.745033 0.097687 0.540760 -0.740840
O15   O     O_2   0.020697 0.246501 0.588158 -0.573213
O16   O     O_3   0.081334 0.388871 0.353171 -0.771914
O17   O     O_3   0.136141 0.614545 0.336145 -0.747639
O18   O     O_2   0.845212 0.330363 0.690027 -0.515226
O19   O     O_2   0.091583 0.424967 0.777242 -0.506794
O20   O     O_R   0.663880 0.410950 0.482330 -0.642985
O21   O     O_R   0.706530 0.589040 0.517700 -0.574854
O22   O     O_R   0.489230 0.455170 0.337480 -0.625699
O23   O     O_R   0.531880 0.633260 0.372840 -0.667477
O24   O     O_R   0.293470 0.410960 0.482300 -0.649097
O25   O     O_R   0.336120 0.589050 0.517670 -0.590440
O26   O     O_2   0.766404 0.274858 0.346432 -0.506754
Zn1   Zn    Zn3+2 0.471520 0.381090 0.476390 0.971913
Zn2   Zn    Zn3+2 0.528480 0.618910 0.523610 0.992324

loop_
_geom_bond_atom_site_label_1
_geom_bond_atom_site_label_2
_ccdc_geom_bond_type
C42   H20   S    
C9    C45   A    
C1    O12   A    
C31   C42   S    
C4    O20   A    
C12   C29   S    
C35   H5    S    
C33   O26   D    
C1    C11   S    
C35   O3    D    
C7    C8    A    
C12   C23   S    
O22   Zn1   S    
O20   Zn1   S    
C42   O18   D    
C28   C29   S    
C25   C40   S    
C5    C6    A    
C26   C39   S    
C20   C25   A    
C36   O5    D    
C40   H14   S    
O1    Zn1   S    
O24   Zn1   S    
C18   C19   A    
C25   N1    A    
C37   H8    S    
C41   O15   D    
C47   C48   A    
C30   H12   S    
C9    C36   S    
C37   O6    D    
C44   H22   S    
C10   C35   S    
C23   O2    S    
H18   O16   S    
C43   H21   S    
C6    C44   A    
C21   C22   A    
H19   O17   S    
C17   O14   S    
C8    C38   S    
C28   H25   S    
C14   O13   S    
C26   N1    A    
C38   O7    D    
C10   C44   A    
C23   C30   S    
C28   C32   S    
O12   Zn2   S    
C3    C8    A    
C16   O22   A    
C41   H17   S    
C12   C27   S    
C2    C48   A    
C39   H10   S    
C19   N2    A    
C5    C9    A    
H13   O10   S    
C38   H9    S    
C30   H28   S    
C31   C32   S    
C7    O4    S    
C10   C45   A    
C17   C18   A    
C31   C34   S    
C13   C21   A    
C22   O9    S    
C4    C32   S    
C28   C33   S    
C40   O11   D    
C22   C24   A    
C13   C26   A    
C2    C5    A    
H16   O14   S    
C48   H23   S    
C12   C34   S    
H6    O4    S    
O23   Zn2   S    
C15   C17   A    
O21   Zn2   S    
C46   C47   A    
C34   H1    S    
C29   C41   S    
C34   C43   S    
C43   O19   D    
C16   C45   S    
C24   H27   S    
C6    C7    A    
C33   H3    S    
C27   O24   A    
N2    Zn2   S    
N1    Zn1   S    
C2    C3    A    
C36   H7    S    
C30   C32   S    
C29   O16   S    
C1    O1    A    
C13   O10   S    
C27   O25   A    
C23   O17   S    
C19   C24   A    
O25   Zn2   S    
C18   C20   A    
C14   N2    A    
H11   O9    S    
C47   H24   S    
C3    C11   A    
C16   O23   A    
C15   H26   S    
C20   C21   A    
C4    O21   A    
H15   O13   S    
C14   C15   A    
C11   C46   A    
C31   H2    S    
C39   O8    D    
C37   C46   S    
H4    O2    S    
