data_mof_unit_28373.cif
_audit_creation_date              2012-10-26T21:19:41-0400
_audit_creation_method            fapswitch 2.2
_symmetry_space_group_name_H-M    P1
_symmetry_Int_Tables_number       1
_space_group_crystal_system       triclinic
_cell_length_a                    10.846678
_cell_length_b                    15.124281
_cell_length_c                    13.853619
_cell_angle_alpha                 90.581824
_cell_angle_beta                  90.57816
_cell_angle_gamma                 90.243123
_cell_volume                      2272.40700582

loop_
_atom_site_label
_atom_site_type_symbol
_atom_type_description
_atom_site_fract_x
_atom_site_fract_y
_atom_site_fract_z
_atom_type_partial_charge
C1    C     C_R   0.497186 0.329622 0.499393 0.542166
C2    C     C_R   0.573335 0.811087 0.438740 -0.132251
C3    C     C_R   0.495071 0.232412 0.498680 0.012953
C4    C     C_R   0.495275 0.766296 0.501788 0.016191
C5    C     C_R   0.436569 0.182406 0.424067 -0.011922
C6    C     C_R   0.417683 0.814047 0.564678 -0.020428
C7    C     C_R   0.439560 0.090240 0.427899 -0.116592
C8    C     C_R   0.421616 0.906287 0.563595 -0.117093
C9    C     C_R   0.499860 0.047485 0.503583 0.024927
C10   C     C_R   0.501952 0.950840 0.502293 0.030745
C11   C     C_R   0.566528 0.564367 0.109689 -0.147565
C12   C     C_R   0.497271 0.669925 0.500525 0.542751
C13   C     C_R   0.403219 0.460508 0.890537 -0.147534
C14   C     C_R   0.567318 0.561682 0.211036 0.049921
C15   C     C_R   0.406784 0.459390 0.789218 0.044003
C16   C     C_R   0.262289 0.502027 0.499377 0.542434
C17   C     C_R   0.737955 0.498677 0.500739 0.546685
C18   C     C_R   0.430132 0.440263 0.208209 0.050917
C19   C     C_R   0.591477 0.542362 0.791628 0.055615
C20   C     C_R   0.429721 0.438706 0.106855 -0.146846
C21   C     C_R   0.593295 0.543063 0.893053 -0.139859
C22   C     C_R   0.498178 0.501630 0.054812 0.021610
C23   C     C_R   0.871958 0.498665 0.502227 -0.008315
C24   C     C_R   0.498174 0.501818 0.945251 0.021897
C25   C     C_R   0.238808 0.700852 0.272273 -0.104988
C26   C     C_R   0.787944 0.312471 0.755608 -0.112806
C27   C     C_R   0.178471 0.659834 0.348349 -0.076968
C28   C     C_R   0.828605 0.351279 0.670489 -0.075457
C29   C     C_R   0.119771 0.577544 0.334473 0.069529
C30   C     C_R   0.885580 0.434886 0.672921 0.072847
C31   C     C_R   0.121489 0.536566 0.241900 0.036820
C32   C     C_R   0.900873 0.479820 0.762806 0.021630
C33   C     C_R   0.181067 0.579563 0.165850 -0.092624
C34   C     C_R   0.128617 0.503626 0.498303 -0.010092
C35   C     C_R   0.860442 0.439223 0.847578 -0.106050
C36   C     C_R   0.239952 0.660843 0.181152 -0.112191
C37   C     C_R   0.803771 0.356308 0.843859 -0.112188
C38   C     C_R   0.932642 0.531757 0.421246 -0.159953
C39   C     C_R   0.068290 0.471102 0.579114 -0.157205
C40   C     C_3   0.065061 0.447001 0.221559 -0.411742
C41   C     C_3   0.958183 0.570549 0.771670 -0.417562
C42   C     C_3   0.623023 0.051491 0.660528 -0.401465
C43   C     C_3   0.668480 0.947251 0.371995 -0.410414
C44   C     C_3   0.369608 0.224620 0.340834 -0.392653
C45   C     C_R   0.940736 0.469409 0.583111 -0.033008
C46   C     C_3   0.328083 0.768540 0.630600 -0.387046
C47   C     C_R   0.060526 0.535483 0.418651 -0.035462
C48   C     C_R   0.556526 0.096503 0.578706 0.001330
C49   C     C_R   0.578791 0.903231 0.438931 0.002717
C50   C     C_R   0.552514 0.188701 0.575756 -0.130240
Cu1   Cu    Cu3+1 0.500000 0.499990 0.596430 0.928470
Cu2   Cu    Cu3+1 0.500000 0.500010 0.403570 0.934412
H1    H     H_    0.286999 0.692662 0.122278 0.104930
H2    H     H_    0.664201 0.575470 0.753103 0.130027
H3    H     H_    0.376135 0.387761 0.070595 0.080032
H4    H     H_    0.670462 0.574815 0.929293 0.079961
H5    H     H_    0.284894 0.763720 0.284083 0.107215
H6    H     H_    0.746070 0.247553 0.753711 0.092291
H7    H     H_    0.178552 0.691779 0.418682 0.089848
H8    H     H_    0.818075 0.315386 0.602809 0.096691
H9    H     H_    0.596048 0.226862 0.633119 0.122203
H10   H     H_    0.632601 0.773924 0.390645 0.111463
H11   H     H_    0.027982 0.415197 0.286898 0.143422
H12   H     H_    0.772441 0.325850 0.909638 0.108608
H13   H     H_    0.988884 0.453657 0.168022 0.120628
H14   H     H_    0.136070 0.402251 0.191202 0.113487
H15   H     H_    0.975496 0.601284 0.700771 0.143264
H16   H     H_    0.895290 0.615090 0.811885 0.112130
H17   H     H_    0.046945 0.566163 0.811930 0.124663
H18   H     H_    0.183684 0.549207 0.094721 0.104154
H19   H     H_    0.871957 0.472365 0.916802 0.101418
H20   H     H_    0.880401 0.557006 0.360372 0.130631
H21   H     H_    0.120809 0.446155 0.640030 0.130606
H22   H     H_    0.557331 0.010231 0.701540 0.132265
H23   H     H_    0.395735 0.050981 0.371166 0.111878
H24   H     H_    0.697270 0.008848 0.631365 0.139979
H25   H     H_    0.665701 0.099922 0.711619 0.110026
H26   H     H_    0.642504 0.931475 0.296016 0.122009
H27   H     H_    0.671605 0.020130 0.380793 0.144498
H28   H     H_    0.762813 0.922000 0.386358 0.124595
H29   H     H_    0.437976 0.254842 0.292047 0.143571
H30   H     H_    0.315539 0.175437 0.297692 0.106324
H31   H     H_    0.304099 0.275224 0.367779 0.138757
H32   H     H_    0.269813 0.721109 0.588579 0.129843
H33   H     H_    0.379044 0.732807 0.687953 0.160025
H34   H     H_    0.361807 0.944092 0.610615 0.110057
H35   H     H_    0.265846 0.816522 0.666544 0.107670
H36   H     H_    0.618324 0.616380 0.075602 0.080368
H37   H     H_    0.325063 0.429873 0.924717 0.081463
H38   H     H_    0.621110 0.609871 0.251682 0.113515
H39   H     H_    0.333794 0.426414 0.748934 0.119438
H40   H     H_    0.373412 0.393911 0.246563 0.111015
N1    N     N_R   0.500000 0.500020 0.258690 -0.213946
N2    N     N_R   0.500000 0.499980 0.741310 -0.221341
O1    O     O_R   0.500010 0.371450 0.581430 -0.502735
O2    O     O_R   0.499990 0.628550 0.418570 -0.509303
O3    O     O_R   0.500010 0.371460 0.418560 -0.505891
O4    O     O_R   0.499990 0.628540 0.581440 -0.504560
O5    O     O_R   0.319640 0.500000 0.581430 -0.522405
O6    O     O_R   0.680360 0.500000 0.418570 -0.510524
O7    O     O_R   0.319640 0.500010 0.418560 -0.489079
O8    O     O_R   0.680360 0.499990 0.581440 -0.497234

loop_
_geom_bond_atom_site_label_1
_geom_bond_atom_site_label_2
_ccdc_geom_bond_type
C23   C45   A    
C27   C29   A    
C30   C45   S    
C44   H31   S    
C15   N2    A    
C41   H15   S    
Cu1   O8    S    
C17   C23   S    
C40   H11   S    
C29   C47   S    
C35   C37   A    
C44   H30   S    
C11   C14   A    
C43   H27   S    
Cu2   O3    S    
C33   C36   A    
C31   C40   S    
C18   C20   A    
C14   H38   S    
C36   H1    S    
C16   C34   S    
C32   C41   S    
C31   C33   A    
C4    C12   S    
C9    C10   S    
C14   N1    A    
C12   O4    A    
C39   C45   A    
C46   H33   S    
Cu1   O4    S    
C48   C50   A    
C35   H19   S    
C40   H14   S    
C25   H5    S    
C20   H3    S    
C3    C50   A    
C41   H16   S    
C28   H8    S    
Cu1   O5    S    
C38   H20   S    
Cu2   O7    S    
C42   H22   S    
C43   H26   S    
C34   C39   A    
C32   C35   A    
C4    C6    A    
C44   H29   S    
C1    O3    A    
C5    C7    A    
C43   C49   S    
C6    C8    A    
Cu1   N2    S    
C43   H28   S    
Cu2   O6    S    
Cu1   Cu2   S    
C13   C24   A    
C1    C3    S    
C2    C4    A    
C17   O8    A    
C2    C49   A    
C11   H36   S    
C1    O1    A    
Cu2   N1    S    
C26   C37   A    
C42   C48   S    
C26   H6    S    
C38   C47   A    
C19   N2    A    
C33   H18   S    
C9    C48   A    
C46   H32   S    
C19   H2    S    
C5    C44   S    
C20   C22   A    
C40   H13   S    
C13   C15   A    
C22   C24   S    
C18   N1    A    
C37   H12   S    
C41   H17   S    
C46   H35   S    
C7    C9    A    
C6    C46   S    
C13   H37   S    
C42   H24   S    
C3    C5    A    
C21   H4    S    
C7    H23   S    
C16   O5    A    
C25   C27   A    
C23   C38   A    
C11   C22   A    
C26   C28   A    
C18   H40   S    
C28   C30   A    
C29   C31   A    
C27   H7    S    
C30   C32   A    
Cu2   O2    S    
C8    H34   S    
C39   H21   S    
C17   O6    A    
C25   C36   A    
C15   H39   S    
C16   O7    A    
C42   H25   S    
C8    C10   A    
C21   C24   A    
C50   H9    S    
C12   O2    A    
C34   C47   A    
C10   C49   A    
C2    H10   S    
Cu1   O1    S    
C19   C21   A    
