data_mof_unit_16464.cif
_audit_creation_date              2012-12-10T21:01:00-0500
_audit_creation_method            fapswitch 2.2
_symmetry_space_group_name_H-M    P1
_symmetry_Int_Tables_number       1
_space_group_crystal_system       triclinic
_cell_length_a                    15.83057
_cell_length_b                    15.082873
_cell_length_c                    10.526629
_cell_angle_alpha                 89.449817
_cell_angle_beta                  90.252751
_cell_angle_gamma                 90.043901
_cell_volume                      2513.30723339

loop_
_atom_site_label
_atom_site_type_symbol
_atom_type_description
_atom_site_fract_x
_atom_site_fract_y
_atom_site_fract_z
_atom_type_partial_charge
C1    C     C_R   0.338977 0.500012 0.499946 0.947724
C2    C     C_R   0.660977 0.500070 0.499746 0.934770
C3    C     C_1   0.823410 0.501742 0.483909 -0.008048
C4    C     C_1   0.176240 0.501440 0.486185 -0.017946
C5    C     C_R   0.955639 0.581823 0.506727 -0.060408
C6    C     C_R   0.043883 0.425556 0.441196 -0.060638
C7    C     C_R   0.044072 0.581550 0.508072 -0.051213
C8    C     C_R   0.955369 0.425773 0.440278 -0.052847
C9    C     C_R   0.912509 0.503374 0.475485 0.035069
C10   C     C_R   0.087043 0.503023 0.477510 0.035682
C11   C     C_R   0.500083 0.500419 0.256879 0.966929
C12   C     C_R   0.500471 0.499548 0.743146 0.970067
C13   C     C_1   0.250867 0.500357 0.493461 -0.101923
C14   C     C_1   0.748915 0.500560 0.492052 -0.094009
C15   C     C_R   0.423773 0.953059 0.501956 -0.154741
C16   C     C_R   0.576230 0.046936 0.497052 -0.154843
C17   C     C_R   0.576228 0.953211 0.497190 -0.172706
C18   C     C_R   0.423771 0.046786 0.501819 -0.173830
C19   C     C_R   0.500002 0.905034 0.499711 0.084581
C20   C     C_R   0.500005 0.094965 0.499489 0.085034
C21   C     C_3   0.495185 0.584893 0.039036 -0.253754
C22   C     C_3   0.506003 0.414873 0.961021 -0.255400
C23   C     C_3   0.567507 0.546869 0.957030 -0.301894
C24   C     C_3   0.433640 0.452897 0.043018 -0.302968
C25   C     C_3   0.429615 0.535976 0.957667 0.565019
C26   C     C_3   0.571585 0.463779 0.042482 0.552153
C27   C     C_3   0.500715 0.498683 0.877540 -0.183463
C28   C     C_3   0.500431 0.501124 0.122550 -0.184427
C29   C     C_1   0.500002 0.807148 0.499893 0.065985
C30   C     C_1   0.500011 0.192853 0.499751 0.062507
H1    H     H_    0.364006 0.081682 0.503568 0.129614
H2    H     H_    0.635974 0.918309 0.495311 0.122015
H3    H     H_    0.635984 0.081948 0.495057 0.124292
H4    H     H_    0.364020 0.918037 0.503812 0.132797
H5    H     H_    0.489797 0.653873 0.073960 0.195242
H6    H     H_    0.511382 0.345904 0.926056 0.194583
H7    H     H_    0.622346 0.583965 0.918075 0.186260
H8    H     H_    0.378760 0.415833 0.081942 0.180766
N1    N     N_1   0.500000 0.270550 0.500000 -0.078883
N2    N     N_1   0.500000 0.729450 0.500000 -0.077841
O1    O     O_R   0.378020 0.573650 0.500040 -0.588920
O2    O     O_R   0.621980 0.426350 0.499960 -0.591513
O3    O     O_R   0.621980 0.573650 0.499960 -0.626881
O4    O     O_R   0.378020 0.426350 0.500040 -0.625791
O5    O     O_R   0.499980 0.573650 0.313960 -0.628100
O6    O     O_R   0.500020 0.426350 0.686040 -0.628194
O7    O     O_R   0.500020 0.573650 0.686040 -0.586916
O8    O     O_R   0.499980 0.426350 0.313960 -0.590504
Zn1   Zn    Zn3+2 0.500000 0.598370 0.500000 1.027654
Zn2   Zn    Zn3+2 0.500000 0.401630 0.500000 1.024829
S1    S     S_3+6 0.334574 0.583849 0.897173 -0.014832
O9    O     O_2   0.355736 0.664544 0.818762 -0.316514
O10   O     O_2   0.289310 0.517301 0.816165 -0.352883
O11   O     O_3   0.272695 0.612859 0.019252 -0.574440
H9    H     H_    0.220498 0.636402 0.979180 0.364186
S2    S     S_3+6 0.667248 0.416460 0.102061 0.003361
O12   O     O_2   0.713014 0.483809 0.181050 -0.343228
O13   O     O_2   0.647448 0.336138 0.182108 -0.295590
O14   O     O_3   0.728094 0.386934 0.979066 -0.574764
H10   H     H_    0.781940 0.366941 0.018072 0.371073
C31   C     C_R   0.091525 0.663488 0.539894 0.113836
C32   C     C_R   0.133261 0.670717 0.657334 -0.132586
C33   C     C_R   0.176778 0.748471 0.687540 -0.068555
C34   C     C_R   0.179435 0.819001 0.600529 -0.129515
C35   C     C_R   0.138129 0.812105 0.483398 -0.138442
C36   C     C_R   0.094096 0.734677 0.453101 -0.118691
H11   H     H_    0.131441 0.616519 0.725520 0.159049
H12   H     H_    0.208153 0.754246 0.778585 0.170857
H13   H     H_    0.213275 0.879078 0.624013 0.124449
H14   H     H_    0.140078 0.866838 0.416221 0.129432
H15   H     H_    0.062059 0.730062 0.362273 0.127918
C37   C     C_R   0.907391 0.345840 0.400468 0.136692
C38   C     C_R   0.860483 0.296740 0.489662 -0.155231
C39   C     C_R   0.813495 0.223131 0.451174 -0.121994
C40   C     C_R   0.813253 0.197976 0.323730 -0.060500
C41   C     C_R   0.860139 0.246302 0.234613 -0.093856
C42   C     C_R   0.907081 0.320076 0.272666 -0.105076
H16   H     H_    0.860121 0.315789 0.588601 0.134064
H17   H     H_    0.777162 0.185688 0.520093 0.124382
H18   H     H_    0.776705 0.141082 0.294050 0.123230
H19   H     H_    0.859823 0.226804 0.135938 0.124437
H20   H     H_    0.942621 0.357499 0.202677 0.125235
C43   C     C_R   0.908077 0.663266 0.540460 0.125195
C44   C     C_R   0.859407 0.707846 0.448066 -0.141609
C45   C     C_R   0.813713 0.783648 0.480133 -0.132780
C46   C     C_R   0.816457 0.815469 0.604348 -0.114938
C47   C     C_R   0.864830 0.771467 0.696733 -0.127376
C48   C     C_R   0.910424 0.695494 0.665142 -0.132200
H21   H     H_    0.856876 0.683755 0.351521 0.141563
H22   H     H_    0.776149 0.817702 0.408727 0.127866
H23   H     H_    0.781052 0.874154 0.629031 0.121727
H24   H     H_    0.866793 0.796082 0.792938 0.130979
H25   H     H_    0.947159 0.661540 0.737705 0.127402
C49   C     C_R   0.091409 0.343981 0.408056 0.128112
C50   C     C_R   0.142313 0.342528 0.299117 -0.160255
C51   C     C_R   0.188436 0.266496 0.269578 -0.122139
C52   C     C_R   0.183859 0.191467 0.348248 -0.115416
C53   C     C_R   0.133089 0.192339 0.456537 -0.139415
C54   C     C_R   0.087047 0.268333 0.486615 -0.122519
H26   H     H_    0.146375 0.400316 0.237551 0.142738
H27   H     H_    0.227815 0.265793 0.185799 0.137250
H28   H     H_    0.219702 0.132696 0.325387 0.123188
H29   H     H_    0.129674 0.134230 0.517439 0.126416
H30   H     H_    0.048508 0.268533 0.571365 0.125738

loop_
_geom_bond_atom_site_label_1
_geom_bond_atom_site_label_2
_ccdc_geom_bond_type
C7    C10   A    
C47   C48   A    
C15   C18   A    
C38   C39   A    
O11   H9    S    
C50   C51   A    
C52   C53   A    
O7    Zn1   S    
C20   C30   S    
C45   C46   A    
C15   C19   A    
C37   C42   A    
C32   H11   S    
C11   C28   S    
C46   H23   S    
C5    C43   S    
N2    Zn1   S    
S2    O12   D    
C23   C26   S    
C4    C13   T    
C7    C31   S    
C33   H12   S    
C31   C36   A    
C43   C44   A    
C8    C9    A    
C6    C49   S    
C53   H29   S    
C24   H8    S    
C38   H16   S    
C23   C27   S    
C40   H18   S    
C15   H4    S    
C52   H28   S    
O8    Zn2   S    
C43   C48   A    
O14   H10   S    
C47   H24   S    
C11   O8    A    
C49   C50   A    
C12   O7    A    
O1    Zn1   S    
C41   C42   A    
C8    C37   S    
C39   C40   A    
C12   C27   S    
S1    O9    D    
C24   C25   S    
C12   O6    A    
C5    C7    A    
C46   C47   A    
O3    Zn1   S    
C6    C8    A    
C23   H7    S    
S1    O10   D    
C40   C41   A    
C25   S1    S    
C5    C9    A    
C32   C33   A    
C3    C9    S    
C16   H3    S    
C1    O4    A    
C36   H15   S    
O5    Zn1   S    
C2    O3    A    
C16   C20   A    
C51   C52   A    
C34   H13   S    
C44   C45   A    
C3    C14   T    
O2    Zn2   S    
C1    O1    A    
C21   C28   S    
C35   C36   A    
C22   C27   S    
C21   C23   S    
C22   C24   S    
C11   O5    A    
C1    C13   S    
C44   H21   S    
C4    C10   S    
C19   C29   S    
O4    Zn2   S    
C21   C25   S    
C48   H25   S    
C50   H26   S    
C24   C28   S    
C37   C38   A    
C26   S2    S    
C41   H19   S    
C6    C10   A    
C45   H22   S    
C21   H5    S    
C25   C27   S    
C22   H6    S    
O6    Zn2   S    
C26   C28   S    
S2    O14   S    
C39   H17   S    
S1    O11   S    
C49   C54   A    
C34   C35   A    
C16   C17   A    
C42   H20   S    
C2    O2    A    
C29   N2    T    
C17   C19   A    
S2    O13   D    
C30   N1    T    
C54   H30   S    
C18   C20   A    
C31   C32   A    
C2    C14   S    
C33   C34   A    
N1    Zn2   S    
C53   C54   A    
C22   C26   S    
C17   H2    S    
C18   H1    S    
C51   H27   S    
C35   H14   S    
