data_mof_unit_5271.cif
_audit_creation_date              2012-10-26T20:21:10-0400
_audit_creation_method            fapswitch 2.2
_symmetry_space_group_name_H-M    P1
_symmetry_Int_Tables_number       1
_space_group_crystal_system       triclinic
_cell_length_a                    9.601369
_cell_length_b                    10.828236
_cell_length_c                    15.947558
_cell_angle_alpha                 89.894251
_cell_angle_beta                  72.077969
_cell_angle_gamma                 90.010922
_cell_volume                      1577.54622218

loop_
_atom_site_label
_atom_site_type_symbol
_atom_type_description
_atom_site_fract_x
_atom_site_fract_y
_atom_site_fract_z
_atom_type_partial_charge
C1    C     C_R   0.999930 0.262332 0.500053 0.547386
C2    C     C_R   0.126322 0.063937 0.500424 -0.136538
C3    C     C_R   0.000060 0.871673 0.499934 0.021509
C4    C     C_R   0.999942 0.128348 0.500062 0.021996
C5    C     C_R   0.544081 0.429557 0.558745 0.008019
C6    C     C_R   0.455917 0.570429 0.441255 0.008513
C7    C     C_R   0.395867 0.429537 0.558696 0.012727
C8    C     C_R   0.604124 0.570448 0.441307 0.009820
C9    C     C_R   0.915720 0.496002 0.670703 0.555384
C10   C     C_R   0.084282 0.496135 0.329294 0.553848
C11   C     C_R   0.865885 0.473829 0.765218 -0.025076
C12   C     C_R   0.000070 0.737672 0.499946 0.551972
C13   C     C_R   0.134080 0.474084 0.234818 -0.025423
C14   C     C_R   0.905944 0.379502 0.893453 0.233421
C15   C     C_R   0.093845 0.379667 0.106877 0.232171
C16   C     C_R   0.956548 0.410187 0.804055 -0.139939
C17   C     C_R   0.043300 0.410436 0.196165 -0.142496
C18   C     C_R   0.720425 0.497675 0.814025 -0.153769
C19   C     C_R   0.279575 0.497983 0.185925 -0.150339
C20   C     C_R   0.669708 0.469070 0.904061 -0.007604
C21   C     C_R   0.330259 0.469274 0.095976 -0.006561
C22   C     C_R   0.770470 0.425814 0.945559 0.100634
C23   C     C_R   0.589050 0.455960 0.087721 -0.157307
C24   C     C_R   0.229419 0.425910 0.054624 0.100439
C25   C     C_R   0.520147 0.472620 0.953305 0.037173
C26   C     C_R   0.479842 0.472749 0.046716 0.036556
C27   C     C_R   0.410933 0.455670 0.912352 -0.155708
C28   C     C_R   0.730232 0.424227 0.037572 -0.097245
C29   C     C_R   0.269676 0.424086 0.962619 -0.097188
C30   C     C_R   0.873612 0.063866 0.499655 -0.136798
C31   C     C_R   0.126394 0.936162 0.500334 -0.136248
C32   C     C_R   0.873677 0.936091 0.499576 -0.136332
Cu1   Cu    Cu3+1 0.140660 0.500020 0.500000 0.940841
Cu2   Cu    Cu3+1 0.859340 0.499980 0.500000 0.937799
H1    H     H_    0.807702 0.400788 0.071272 0.179254
H2    H     H_    0.225255 0.888200 0.500602 0.130792
H3    H     H_    0.774873 0.888073 0.499227 0.130505
H4    H     H_    0.225121 0.111958 0.500781 0.129876
H5    H     H_    0.575220 0.372781 0.605928 0.107114
H6    H     H_    0.424772 0.627211 0.394080 0.105356
H7    H     H_    0.316530 0.372642 0.605812 0.102502
H8    H     H_    0.683449 0.627350 0.394200 0.111574
H9    H     H_    0.057087 0.254798 0.879404 0.318180
H10   H     H_    0.942419 0.254985 0.121331 0.319897
H11   H     H_    0.192177 0.400525 0.929003 0.178909
H12   H     H_    0.351541 0.540874 0.217926 0.124685
H13   H     H_    0.648517 0.540505 0.781895 0.131432
H14   H     H_    0.936666 0.378314 0.236341 0.114357
H15   H     H_    0.063117 0.378047 0.763970 0.103020
H16   H     H_    0.563550 0.450900 0.158566 0.108036
H17   H     H_    0.436451 0.450352 0.841526 0.103968
H18   H     H_    0.774757 0.111832 0.499378 0.129824
N1    N     N_R   0.352080 0.500030 0.499980 -0.225689
N2    N     N_R   0.647920 0.499970 0.500020 -0.227786
O1    O     O_R   0.118740 0.319660 0.500000 -0.510173
O2    O     O_3   0.023976 0.290930 0.073076 -0.658458
O3    O     O_R   0.881260 0.680340 0.500000 -0.507170
O4    O     O_R   0.881170 0.319630 0.500010 -0.510380
O5    O     O_R   0.118830 0.680370 0.499990 -0.506732
O6    O     O_R   0.055570 0.500030 0.629830 -0.505611
O7    O     O_R   0.944430 0.499970 0.370170 -0.509016
O8    O     O_R   0.818000 0.500000 0.629840 -0.507884
O9    O     O_R   0.182000 0.500000 0.370160 -0.507340
O10   O     O_3   0.975621 0.290794 0.927547 -0.658675

loop_
_geom_bond_atom_site_label_1
_geom_bond_atom_site_label_2
_ccdc_geom_bond_type
Cu1   O1    S    
Cu2   O3    S    
C2    C4    A    
C21   C26   A    
C11   C18   A    
C30   C32   A    
C27   C29   A    
C20   C22   A    
C5    C7    A    
C11   C16   A    
H10   O2    S    
C10   O9    A    
C17   H14   S    
C13   C17   A    
Cu1   O9    S    
C9    O6    A    
C14   O10   S    
C18   H13   S    
C14   C22   A    
C5    H5    S    
Cu1   Cu2   S    
C1    O1    A    
C19   H12   S    
C4    C30   A    
Cu1   O5    S    
C22   C28   A    
C23   C28   A    
C15   O2    S    
C3    C31   A    
C9    C11   S    
C6    C8    A    
C12   O3    A    
C15   C24   A    
C19   C21   A    
C8    H8    S    
H9    O10   S    
Cu2   N2    S    
Cu1   O6    S    
C18   C20   A    
C7    H7    S    
Cu1   N1    S    
C3    C32   A    
C14   C16   A    
C21   C24   A    
C1    C4    S    
C25   C27   A    
C20   C25   A    
C7    N1    A    
C6    N1    A    
C9    O8    A    
C10   O7    A    
C24   C29   A    
C5    N2    A    
Cu2   O8    S    
C6    H6    S    
C16   H15   S    
C15   C17   A    
C23   C26   A    
C8    N2    A    
Cu2   O4    S    
C2    H4    S    
C31   H2    S    
C13   C19   A    
C30   H18   S    
C3    C12   S    
C25   C26   A    
C1    O4    A    
C12   O5    A    
C32   H3    S    
Cu2   O7    S    
C29   H11   S    
C28   H1    S    
C27   H17   S    
C2    C31   A    
C23   H16   S    
C10   C13   S    
