data_mof_unit_28074.cif
_audit_creation_date              2012-10-26T20:21:11-0400
_audit_creation_method            fapswitch 2.2
_symmetry_space_group_name_H-M    P1
_symmetry_Int_Tables_number       1
_space_group_crystal_system       triclinic
_cell_length_a                    9.520066
_cell_length_b                    10.832905
_cell_length_c                    15.423238
_cell_angle_alpha                 89.87527
_cell_angle_beta                  74.784152
_cell_angle_gamma                 90.020493
_cell_volume                      1534.83362484

loop_
_atom_site_label
_atom_site_type_symbol
_atom_type_description
_atom_site_fract_x
_atom_site_fract_y
_atom_site_fract_z
_atom_type_partial_charge
C1    C     C_R   0.999910 0.262075 0.500097 0.549526
C2    C     C_R   0.127098 0.063912 0.501239 -0.140791
C3    C     C_R   0.000090 0.871775 0.499868 0.021352
C4    C     C_R   0.999910 0.128224 0.500130 0.021350
C5    C     C_R   0.553925 0.413617 0.547835 0.002843
C6    C     C_R   0.446074 0.586384 0.452166 0.002852
C7    C     C_R   0.405220 0.413513 0.547648 0.004399
C8    C     C_R   0.594778 0.586490 0.452355 0.004387
C9    C     C_R   0.918831 0.496244 0.672278 0.563391
C10   C     C_R   0.081169 0.503763 0.327723 0.563401
C11   C     C_R   0.874806 0.479997 0.770480 0.019607
C12   C     C_R   0.000090 0.737925 0.499902 0.549541
C13   C     C_R   0.125205 0.520082 0.229530 0.019610
C14   C     C_R   0.902629 0.383424 0.906748 -0.124428
C15   C     C_R   0.097518 0.616911 0.093319 -0.124437
C16   C     C_R   0.961036 0.414317 0.816427 0.124096
C17   C     C_R   0.039058 0.585925 0.183617 0.124087
C18   C     C_R   0.735035 0.518555 0.816770 -0.172635
C19   C     C_R   0.264949 0.481473 0.183230 -0.172599
C20   C     C_R   0.674048 0.487666 0.907614 0.021458
C21   C     C_R   0.326037 0.512542 0.092430 0.021464
C22   C     C_R   0.760078 0.417083 0.951650 0.022511
C23   C     C_R   0.560609 0.406444 0.085193 -0.146457
C24   C     C_R   0.240062 0.583233 0.048417 0.022496
C25   C     C_R   0.528929 0.520865 0.954870 0.040207
C26   C     C_R   0.471188 0.479399 0.045192 0.040223
C27   C     C_3   0.780542 0.558376 0.212473 -0.294903
C28   C     C_3   0.219528 0.442079 0.787528 -0.294880
C29   C     C_R   0.439572 0.593934 0.914900 -0.146474
C30   C     C_R   0.702249 0.377268 0.039472 -0.149039
C31   C     C_R   0.297946 0.623144 0.960624 -0.149038
C32   C     C_R   0.872796 0.063800 0.498929 -0.141911
C33   C     C_R   0.127204 0.936200 0.501068 -0.141909
C34   C     C_R   0.872903 0.936088 0.498758 -0.140793
Cu1   Cu    Cu3+1 0.140660 0.500020 0.500000 0.940707
Cu2   Cu    Cu3+1 0.859340 0.499980 0.500000 0.940697
H1    H     H_    0.766844 0.321810 0.073190 0.104884
H2    H     H_    0.226449 0.111988 0.502257 0.123662
H3    H     H_    0.593394 0.344539 0.586373 0.107940
H4    H     H_    0.406606 0.655463 0.413629 0.107941
H5    H     H_    0.332890 0.344133 0.585741 0.121514
H6    H     H_    0.667106 0.655875 0.414268 0.121522
H7    H     H_    0.885796 0.723125 0.219320 0.238566
H8    H     H_    0.780985 0.565920 0.140595 0.144435
H9    H     H_    0.675041 0.594267 0.253766 0.127983
H10   H     H_    0.790465 0.459952 0.230466 0.165885
H11   H     H_    0.114436 0.277211 0.780804 0.238551
H12   H     H_    0.233404 0.678703 0.926933 0.104885
H13   H     H_    0.219124 0.434645 0.859405 0.144421
H14   H     H_    0.209489 0.540466 0.769484 0.165892
H15   H     H_    0.325057 0.406237 0.746239 0.128028
H16   H     H_    0.525259 0.369129 0.152046 0.102343
H17   H     H_    0.475002 0.631377 0.848087 0.102349
H18   H     H_    0.325401 0.431154 0.221548 0.119260
H19   H     H_    0.674458 0.568661 0.778417 0.119307
H20   H     H_    0.967801 0.329690 0.941128 0.106540
H21   H     H_    0.032402 0.670749 0.058963 0.106532
H22   H     H_    0.773363 0.111790 0.498056 0.123657
H23   H     H_    0.226638 0.888210 0.501941 0.123654
H24   H     H_    0.773552 0.888011 0.497741 0.123662
N1    N     N_R   0.352080 0.500030 0.499980 -0.222680
N2    N     N_R   0.647920 0.499970 0.500020 -0.222682
N3    N     N_2   0.898614 0.630076 0.229385 -0.502244
N4    N     N_2   0.101519 0.370230 0.770678 -0.502237
O1    O     O_R   0.118740 0.319660 0.500000 -0.509339
O2    O     O_R   0.881260 0.680340 0.500000 -0.509325
O3    O     O_R   0.881170 0.319630 0.500010 -0.514393
O4    O     O_R   0.118830 0.680370 0.499990 -0.514398
O5    O     O_R   0.055570 0.500030 0.629830 -0.463113
O6    O     O_R   0.944430 0.499970 0.370170 -0.463135
O7    O     O_R   0.818000 0.500000 0.629840 -0.514904
O8    O     O_R   0.182000 0.500000 0.370160 -0.514876

loop_
_geom_bond_atom_site_label_1
_geom_bond_atom_site_label_2
_ccdc_geom_bond_type
Cu1   O8    S    
C2    C4    A    
C21   C26   A    
C11   C18   A    
C15   C17   A    
C6    N1    A    
C32   H22   S    
C9    C11   S    
C11   C16   A    
C2    H2    S    
C14   H20   S    
Cu1   Cu2   S    
Cu2   O7    S    
C13   C17   A    
C27   H10   S    
C1    C4    S    
C27   H9    S    
C7    H5    S    
Cu2   O3    S    
H7    N3    S    
C33   H23   S    
C22   C30   A    
C17   N3    S    
C34   H24   S    
C15   H21   S    
C32   C34   A    
C14   C22   A    
C23   H16   S    
C4    C32   A    
C27   N3    S    
C18   H19   S    
Cu1   N1    S    
Cu2   N2    S    
C10   O6    A    
C2    C33   A    
C15   C24   A    
C1    O3    A    
C8    H6    S    
C5    N2    A    
Cu2   O2    S    
C31   H12   S    
C5    H3    S    
C25   C29   A    
Cu2   O6    S    
C9    O5    A    
C28   H15   S    
C14   C16   A    
C21   C24   A    
C24   C31   A    
C20   C25   A    
Cu1   O1    S    
C28   H14   S    
C23   C30   A    
C28   N4    S    
Cu1   O5    S    
C6    H4    S    
Cu1   O4    S    
C19   H18   S    
C18   C20   A    
C29   C31   A    
C28   H13   S    
C23   C26   A    
C8    N2    A    
H11   N4    S    
C5    C7    A    
C3    C33   A    
C7    N1    A    
C13   C19   A    
C6    C8    A    
C3    C12   S    
C16   N4    S    
C3    C34   A    
C19   C21   A    
C25   C26   A    
C27   H8    S    
C12   O2    A    
C1    O1    A    
C12   O4    A    
C9    O7    A    
C30   H1    S    
C20   C22   A    
C29   H17   S    
C10   C13   S    
C10   O8    A    
