data_mof_unit_60043.cif
_audit_creation_date              2012-12-11T15:51:25-0500
_audit_creation_method            fapswitch 2.2
_symmetry_space_group_name_H-M    P1
_symmetry_Int_Tables_number       1
_space_group_crystal_system       triclinic
_cell_length_a                    6.948229
_cell_length_b                    17.361983
_cell_length_c                    18.756259
_cell_angle_alpha                 106.246141
_cell_angle_beta                  89.754809
_cell_angle_gamma                 90.51188
_cell_volume                      2172.22047787

loop_
_atom_site_label
_atom_site_type_symbol
_atom_type_description
_atom_site_fract_x
_atom_site_fract_y
_atom_site_fract_z
_atom_type_partial_charge
O1    O     O_R   0.494360 0.415660 0.413760 -0.532113
O2    O     O_R   0.818840 0.432910 0.557230 -0.520720
O3    O     O_R   0.994290 0.584340 0.586240 -0.540486
C1    C     C_R   0.649865 0.415942 0.580623 0.724389
O4    O     O_R   0.823740 0.406430 0.412520 -0.511348
O5    O     O_R   0.999220 0.557660 0.440500 -0.524419
C2    C     C_R   0.654982 0.382020 0.385454 0.738447
O6    O     O_R   0.489430 0.442340 0.559500 -0.521575
O7    O     O_3   0.662490 0.549650 0.509350 -0.370978
V1    V     V_3+5 0.935340 0.490790 0.498270 1.480699
O8    O     O_R   0.329240 0.567090 0.442770 -0.528614
C3    C     C_R   0.161094 0.584056 0.419374 0.711658
O9    O     O_R   0.324340 0.593570 0.587480 -0.544409
C4    C     C_R   0.155526 0.616329 0.615486 0.682509
V2    V     V_3+5 0.435970 0.509210 0.501730 1.439417
O10   O     O_3   0.158950 0.450350 0.490650 -0.335303
C5    C     C_R   0.291118 0.741757 0.704104 -0.149799
H1    H     H_    0.415711 0.738675 0.668543 0.126833
C6    C     C_R   0.276381 0.805723 0.768794 -0.111367
H2    H     H_    0.390111 0.850513 0.780959 0.156493
C7    C     C_R   0.116504 0.812854 0.816643 -0.097141
C8    C     C_R   0.969736 0.752758 0.797621 0.008260
C9    C     C_R   0.985989 0.689422 0.732302 -0.208485
H3    H     H_    0.873755 0.643850 0.718785 0.112476
C10   C     C_R   0.144737 0.683537 0.684713 -0.058679
C11   C     C_1   0.111643 0.863871 0.132602 -0.203448
C12   C     C_1   0.119102 0.821299 0.176160 0.007675
C13   C     C_1   0.128448 0.771088 0.228051 0.004724
C14   C     C_1   0.136432 0.728809 0.271856 0.003167
C15   C     C_1   0.145778 0.678603 0.323752 0.002932
C16   C     C_1   0.153236 0.636041 0.367320 -0.214769
C17   C     C_1   0.641298 0.364008 0.632652 -0.195055
C18   C     C_1   0.637104 0.321422 0.676222 0.010016
C19   C     C_1   0.633697 0.271185 0.728112 0.005340
C20   C     C_1   0.631154 0.228868 0.771926 0.003277
C21   C     C_1   0.627746 0.178632 0.823817 0.002686
C22   C     C_1   0.623549 0.136047 0.867389 -0.216278
C23   C     C_R   0.797682 0.256321 0.295996 0.262737
C24   C     C_R   0.784976 0.194098 0.229857 -0.169495
H4    H     H_    0.902741 0.152133 0.214726 0.150589
C25   C     C_R   0.621122 0.184035 0.184596 -0.100541
C26   C     C_R   0.468275 0.237882 0.206793 -0.130228
H5    H     H_    0.339509 0.231644 0.173245 0.132501
C27   C     C_R   0.481106 0.301432 0.271906 -0.146397
H6    H     H_    0.362004 0.342768 0.286246 0.153906
C28   C     C_R   0.645566 0.312279 0.317447 -0.109195
O11   O     O_R   0.775430 0.057750 0.940570 -0.522412
O12   O     O_R   0.440960 0.093590 0.087490 -0.541081
O13   O     O_R   0.265640 0.942320 0.059480 -0.521809
C29   C     C_R   0.609918 0.116550 0.115467 0.693823
O14   O     O_R   0.446010 0.067110 0.942790 -0.529359
O15   O     O_R   0.270710 0.915650 0.913740 -0.525826
C30   C     C_R   0.614985 0.084105 0.919414 0.717449
O16   O     O_R   0.770350 0.084410 0.086310 -0.543030
O17   O     O_3   0.602410 0.950400 0.990690 -0.335479
V3    V     V_3+5 0.329510 0.009200 0.001730 1.446666
O18   O     O_R   0.940670 0.906340 0.912450 -0.509645
C31   C     C_R   0.108965 0.882249 0.885146 0.698931
O19   O     O_R   0.935630 0.932820 0.057160 -0.526510
C32   C     C_R   0.103777 0.915872 0.080565 0.710414
V4    V     V_3+5 0.828890 0.990680 0.998180 1.476685
O20   O     O_3   0.105860 0.049600 0.009310 -0.370117
C33   C     C_2   0.801776 0.749971 0.845338 0.351536
H7    H     H_    0.783407 0.699484 0.868231 0.027712
O21   O     O_2   0.676091 0.800456 0.854909 -0.518597
Br1   Br    Br    0.022550 0.256372 0.355473 -0.559240

loop_
_geom_bond_atom_site_label_1
_geom_bond_atom_site_label_2
_ccdc_geom_bond_type
O5    V1    S    
O2    C1    A    
O8    C3    A    
C33   O21   D    
O18   V4    S    
C14   C15   S    
O1    V2    S    
O16   V4    S    
C1    C17   S    
O13   V3    S    
C25   C26   A    
O14   C30   A    
C6    H2    S    
C1    O6    A    
O11   C30   A    
C5    C10   A    
C17   C18   T    
C3    C16   S    
O12   C29   A    
C5    H1    S    
O7    V2    S    
C22   C30   S    
O19   C32   A    
C24   C25   A    
O3    V1    S    
C29   O16   A    
O9    C4    A    
O13   C32   A    
O18   C31   A    
C15   C16   T    
O3    C4    A    
C26   C27   A    
O1    C2    A    
O17   V4    S    
O4    V1    S    
C13   C14   T    
C5    C6    A    
C27   C28   A    
C18   C19   S    
O6    V2    S    
O8    V2    S    
O9    V2    S    
C4    C10   S    
O5    C3    A    
V4    O20   S    
O15   C31   A    
V3    O20   S    
O17   V3    S    
C23   C28   A    
O19   V4    S    
C26   H5    S    
C9    H3    S    
V2    O10   S    
O2    V1    S    
C2    C28   S    
O15   V3    S    
C25   C29   S    
C7    C31   S    
C9    C10   A    
C23   C24   A    
C27   H6    S    
O11   V4    S    
O4    C2    A    
C19   C20   T    
O7    V1    S    
C24   H4    S    
O12   V3    S    
C8    C9    A    
C21   C22   T    
C11   C12   T    
V1    O10   S    
C6    C7    A    
C8    C33   S    
C7    C8    A    
C11   C32   S    
C23   Br1   S    
C33   H7    S    
C12   C13   S    
C20   C21   S    
O14   V3    S    
