data_mof_unit_34207.cif
_audit_creation_date              2012-12-10T17:44:38-0500
_audit_creation_method            fapswitch 2.2
_symmetry_space_group_name_H-M    P1
_symmetry_Int_Tables_number       1
_space_group_crystal_system       triclinic
_cell_length_a                    10.11276
_cell_length_b                    10.759675
_cell_length_c                    15.207972
_cell_angle_alpha                 92.752857
_cell_angle_beta                  67.900532
_cell_angle_gamma                 91.061464
_cell_volume                      1531.43694046

loop_
_atom_site_label
_atom_site_type_symbol
_atom_type_description
_atom_site_fract_x
_atom_site_fract_y
_atom_site_fract_z
_atom_type_partial_charge
C1    C     C_R   0.506595 0.738694 0.490425 0.980807
C2    C     C_R   0.757353 0.451504 0.015532 -0.134149
C3    C     C_R   0.616986 0.412066 0.069906 -0.196041
C4    C     C_R   0.409750 0.490040 0.676089 0.930862
C5    C     C_R   0.849910 0.487846 0.062515 0.469861
C6    C     C_R   0.796732 0.497086 0.162938 0.335525
C7    C     C_R   0.559580 0.441668 0.168623 0.425904
C8    C     C_R   0.349420 0.883363 0.396224 0.346114
C9    C     C_R   0.223744 0.935588 0.394818 0.322140
C10   C     C_R   0.162771 0.040338 0.455200 0.325013
C11   C     C_R   0.237992 0.100594 0.506952 0.494755
C12   C     C_R   0.445219 0.393227 0.897434 -0.168868
C13   C     C_R   0.374307 0.055681 0.496825 -0.128416
C14   C     C_R   0.409128 0.934158 0.459390 -0.123373
C15   C     C_R   0.516577 0.872129 0.475848 -0.222706
C16   C     C_R   0.492672 0.260460 0.508911 0.840356
C17   C     C_R   0.624960 0.941027 0.489476 0.478733
C18   C     C_R   0.598493 0.062843 0.524865 0.287283
C19   C     C_R   0.479527 0.125288 0.520315 -0.235617
C20   C     C_R   0.811359 0.694738 0.603851 0.402721
C21   C     C_R   0.873949 0.806910 0.620931 0.164642
C22   C     C_R   0.008228 0.802436 0.624652 0.332961
C23   C     C_R   0.322549 0.320521 0.942248 -0.362938
C24   C     C_R   0.077052 0.687619 0.610604 0.444253
C25   C     C_R   0.042249 0.589247 0.556030 -0.189346
C26   C     C_R   0.899501 0.590633 0.554836 -0.078674
C27   C     C_R   0.961876 0.429653 0.436108 0.497443
C28   C     C_R   0.590861 0.495822 0.322640 0.950157
C29   C     C_R   0.101863 0.424136 0.439470 0.361112
C30   C     C_R   0.358977 0.446432 0.775025 -0.431437
C31   C     C_R   0.649977 0.478789 0.216707 -0.345048
C32   C     C_R   0.216214 0.311687 0.902681 0.611671
C33   C     C_R   0.242161 0.363667 0.813695 0.299037
C34   C     C_R   0.558601 0.395037 0.930316 -0.090512
C35   C     C_R   0.445211 0.473030 0.826960 0.602229
C36   C     C_3   0.243530 0.053846 0.038402 -0.275394
C37   C     C_3   0.810450 0.930770 0.349910 -0.368128
C38   C     C_3   0.098274 0.771212 0.367421 -0.383705
C39   C     C_3   0.932043 0.259718 0.348173 -0.081077
C40   C     C_3   0.348192 0.539152 0.193221 -0.094738
C41   C     C_3   0.000162 0.978356 0.721554 -0.166552
C42   C     C_3   0.131244 0.712366 0.746360 -0.211188
C43   C     C_3   0.892751 0.661012 0.218556 -0.310891
C44   C     C_3   0.056212 0.152591 0.910991 -0.201606
C45   C     C_R   0.530292 0.359855 0.022995 -0.170556
C46   C     C_3   0.453591 0.671523 0.881439 -0.375562
C47   C     C_3   0.784267 0.312395 0.735108 -0.298210
C48   C     C_R   0.413347 0.278351 0.065817 0.416867
C49   C     C_R   0.311817 0.256721 0.024062 0.552903
C50   C     C_R   0.699866 0.428833 0.873221 0.443258
C51   C     C_R   0.800224 0.455842 0.915683 0.414129
H1    H     H_    0.317791 0.023655 0.071672 0.194885
H2    H     H_    0.077651 0.719953 0.309454 0.183478
H3    H     H_    0.995065 0.787058 0.426992 0.223026
H4    H     H_    0.987366 0.028848 0.431227 0.407887
H5    H     H_    0.080050 0.215226 0.575176 0.365632
H6    H     H_    0.641336 0.179279 0.610468 0.326802
H7    H     H_    0.867880 0.220934 0.417531 0.202108
H8    H     H_    0.039445 0.216551 0.317384 0.237982
H9    H     H_    0.877263 0.235243 0.298768 0.152954
H10   H     H_    0.625571 0.747515 0.695261 0.330590
H11   H     H_    0.714665 0.911109 0.627430 0.368691
H12   H     H_    0.294427 0.040429 0.959649 0.109561
H13   H     H_    0.314587 0.510901 0.133650 0.141571
H14   H     H_    0.417081 0.623356 0.174147 0.092370
H15   H     H_    0.250146 0.564389 0.254744 0.184161
H16   H     H_    0.923615 0.922199 0.778434 0.113194
H17   H     H_    0.944232 0.055295 0.703992 0.233356
H18   H     H_    0.076831 0.021441 0.749578 0.149098
H19   H     H_    0.012969 0.714597 0.783186 0.137570
H20   H     H_    0.177328 0.804543 0.754393 0.161256
H21   H     H_    0.171816 0.646183 0.783798 0.207207
H22   H     H_    0.282489 0.339036 0.390155 0.397550
H23   H     H_    0.148553 0.992215 0.062926 0.176362
H24   H     H_    0.861480 0.685403 0.295199 0.220792
H25   H     H_    0.821093 0.712888 0.192327 0.128487
H26   H     H_    0.003531 0.693465 0.180184 0.159205
H27   H     H_    0.949438 0.497085 0.794327 0.376676
H28   H     H_    0.154825 0.101762 0.864773 0.100848
H29   H     H_    0.988872 0.174814 0.870695 0.185921
H30   H     H_    0.993278 0.088862 0.966870 0.160437
H31   H     H_    0.211819 0.316978 0.699883 0.376860
H32   H     H_    0.439107 0.642212 0.953716 0.162261
H33   H     H_    0.348541 0.694297 0.878274 0.153854
H34   H     H_    0.046957 0.524970 0.050263 0.353070
H35   H     H_    0.518402 0.757903 0.868825 0.179418
H36   H     H_    0.493163 0.207008 0.149904 0.332165
H37   H     H_    0.875786 0.278953 0.751298 0.177425
H38   H     H_    0.693942 0.245300 0.759335 0.154241
H39   H     H_    0.820228 0.316135 0.656787 0.211666
H40   H     H_    0.804253 0.032255 0.342479 0.158171
H41   H     H_    0.746624 0.881658 0.313239 0.165062
H42   H     H_    0.923029 0.903592 0.312034 0.222758
H43   H     H_    0.391824 0.787730 0.277302 0.352478
H44   H     H_    0.166561 0.710046 0.389354 0.188386
N1    N     N_R   0.856800 0.501200 0.500850 -0.139855
N2    N     N_R   0.142390 0.501280 0.500880 -0.148720
O1    O     O_R   0.385310 0.683220 0.500000 -0.535569
O2    O     O_3   0.990703 0.516427 0.009347 -0.695334
O3    O     O_3   0.763953 0.900245 0.446609 -0.581145
O4    O     O_3   0.422468 0.789524 0.331888 -0.788621
O5    O     O_3   0.162169 0.886068 0.333796 -0.632388
O6    O     O_3   0.029633 0.084083 0.467201 -0.747740
O7    O     O_3   0.172658 0.190660 0.577099 -0.758363
O8    O     O_3   0.695078 0.119599 0.557931 -0.719216
O9    O     O_3   0.941980 0.389802 0.354129 -0.550088
O10   O     O_3   0.666559 0.685632 0.641856 -0.655726
O11   O     O_3   0.802996 0.919389 0.640218 -0.717198
O12   O     O_R   0.614640 0.683250 0.500010 -0.562786
O13   O     O_3   0.413368 0.438803 0.218232 -0.524587
O14   O     O_3   0.080406 0.907778 0.638587 -0.587905
O15   O     O_3   0.179239 0.674594 0.648664 -0.530095
O16   O     O_3   0.197179 0.343633 0.374652 -0.702842
O17   O     O_3   0.888676 0.530153 0.207934 -0.545166
O18   O     O_3   0.936391 0.495014 0.862040 -0.679723
O19   O     O_3   0.083744 0.262311 0.955514 -0.516700
O20   O     O_3   0.152104 0.331988 0.767541 -0.732266
O21   O     O_3   0.526466 0.580342 0.810621 -0.526758
O22   O     O_3   0.398432 0.213433 0.145238 -0.697552
O23   O     O_R   0.319840 0.499980 0.632240 -0.544604
O24   O     O_3   0.741532 0.432745 0.775572 -0.576891
O25   O     O_R   0.549160 0.500000 0.632250 -0.497821
O26   O     O_R   0.385360 0.316750 0.499990 -0.612504
O27   O     O_R   0.614690 0.316780 0.500000 -0.618459
O28   O     O_R   0.450840 0.500000 0.367750 -0.576046
O29   O     O_R   0.680160 0.500020 0.367760 -0.544539
O30   O     O_3   0.198329 0.177838 0.066783 -0.527831
Zn1   Zn    Zn3+2 0.346880 0.499980 0.499990 1.025469
Zn2   Zn    Zn3+2 0.653120 0.500020 0.500010 1.046093

loop_
_geom_bond_atom_site_label_1
_geom_bond_atom_site_label_2
_ccdc_geom_bond_type
C39   O9    S    
H6    O8    S    
C33   O20   S    
C27   C29   A    
H27   O18   S    
C24   O15   S    
C41   H16   S    
C12   C23   A    
C30   C35   A    
C10   O6    S    
C16   O26   A    
C3    C7    A    
C43   O17   S    
C5    C6    A    
C47   O24   S    
H11   O11   S    
C39   H9    S    
H4    O6    S    
C42   H19   S    
H22   O16   S    
C46   O21   S    
C18   C19   A    
C42   O15   S    
C6    O17   S    
C1    O12   A    
C5    O2    S    
H43   O4    S    
C8    C9    A    
C38   H44   S    
O28   Zn1   S    
C11   O7    S    
C1    C15   S    
C48   O22   S    
C36   H12   S    
C8    O4    S    
O25   Zn2   S    
C37   H41   S    
C20   O10   S    
O1    Zn1   S    
C6    C31   A    
C40   H15   S    
C13   C14   A    
C43   H24   S    
C47   H38   S    
C27   N1    A    
C50   O24   S    
N2    Zn1   S    
C28   O29   A    
C50   C51   A    
C41   H17   S    
C28   C31   S    
C26   N1    A    
C49   O30   S    
C34   C50   A    
C7    C31   A    
C37   H40   S    
C4    O25   A    
C44   H29   S    
C24   C25   A    
H5    O7    S    
C44   H30   S    
C10   C11   A    
C13   C19   A    
C9    O5    S    
C40   O13   S    
C27   O9    S    
C25   C26   A    
C39   H7    S    
C3    C45   A    
C51   O18   S    
C32   C33   A    
H36   O22   S    
H34   O2    S    
C38   H3    S    
C39   H8    S    
C42   H21   S    
C17   C18   A    
C37   H42   S    
C34   C45   A    
C32   O19   S    
C12   C35   A    
C36   H23   S    
C46   H33   S    
C25   N2    A    
C48   C49   A    
C40   H14   S    
O12   Zn2   S    
C47   H39   S    
C22   C24   A    
C36   O30   S    
C12   C34   A    
C28   O28   A    
C41   H18   S    
C9    C10   A    
C45   C48   A    
C43   H25   S    
C15   C17   A    
C29   O16   S    
C8    C14   A    
C30   C33   A    
C44   H28   S    
C36   H1    S    
C1    O1    A    
O23   Zn1   S    
C43   H26   S    
O29   Zn2   S    
C7    O13   S    
C29   N2    A    
C47   H37   S    
C2    C3    A    
C16   O27   A    
C18   O8    S    
C38   O5    S    
C23   C32   A    
C11   C13   A    
O26   Zn1   S    
C38   H2    S    
C20   C26   A    
C16   C19   S    
C40   H13   S    
C42   H20   S    
O27   Zn2   S    
H10   O10   S    
C17   O3    S    
C21   O11   S    
C23   C49   A    
C2    C51   A    
C46   H32   S    
C2    C5    A    
C20   C21   A    
C44   O19   S    
C22   O14   S    
C41   O14   S    
C14   C15   A    
C4    O23   A    
C35   O21   S    
H31   O20   S    
C21   C22   A    
C37   O3    S    
C4    C30   S    
N1    Zn2   S    
C46   H35   S    
