data_mof_unit_33373.cif
_audit_creation_date              2013-03-05T16:04:00-0500
_audit_creation_method            fapswitch 2.2
_symmetry_space_group_name_H-M    P1
_symmetry_Int_Tables_number       1
_space_group_crystal_system       triclinic
_cell_length_a                    13.026638
_cell_length_b                    10.808869
_cell_length_c                    9.502995
_cell_angle_alpha                 89.981585
_cell_angle_beta                  96.955083
_cell_angle_gamma                 89.962705
_cell_volume                      1328.20573047

loop_
_atom_site_label
_atom_site_type_symbol
_atom_site_description
_atom_site_fract_x
_atom_site_fract_y
_atom_site_fract_z
_atom_type_partial_charge
O1    O     O_R   0.499990 0.319660 0.618740 -0.552181
O2    O     O_R   0.500010 0.680340 0.381260 -0.552171
O3    O     O_R   0.499990 0.319630 0.381170 -0.595539
O4    O     O_R   0.500010 0.680370 0.618830 -0.595532
C1    C     C_R   0.502927 0.262238 0.500436 0.861317
C2    C     C_R   0.497077 0.737762 0.499565 0.861284
O5    O     O_R   0.349000 0.499990 0.599490 -0.603803
O6    O     O_R   0.651000 0.500010 0.400510 -0.603810
O7    O     O_R   0.348990 0.499960 0.361920 -0.529480
O8    O     O_R   0.651010 0.500040 0.638080 -0.529471
C3    C     C_R   0.300069 0.500925 0.472133 0.847328
C4    C     C_R   0.699931 0.499077 0.527867 0.847354
Cu1   Cu    Cu3+1 0.500000 0.500020 0.640660 1.037219
Cu2   Cu    Cu3+1 0.500000 0.499980 0.359340 1.037219
C5    C     C_R   0.813456 0.498195 0.546541 -0.166925
C6    C     C_R   0.186543 0.501809 0.453457 -0.166938
C7    C     C_R   0.019316 0.482644 0.310968 -0.184460
C8    C     C_R   0.980683 0.517362 0.689031 -0.184462
C9    C     C_R   0.126833 0.488483 0.318993 0.357283
C10   C     C_R   0.873166 0.511528 0.681003 0.357303
C11   C     C_R   0.136517 0.512168 0.575581 -0.236724
C12   C     C_R   0.863483 0.487832 0.424417 -0.236728
C13   C     C_R   0.029443 0.507684 0.566477 0.089397
C14   C     C_R   0.970557 0.492317 0.433522 0.089392
H1    H     H_    0.819132 0.476860 0.320991 0.192609
H2    H     H_    0.180867 0.523137 0.679008 0.192612
H3    H     H_    0.973829 0.472046 0.208275 0.199964
H4    H     H_    0.026167 0.527965 0.791724 0.199961
C15   C     C_R   0.447505 0.066845 0.387779 -0.257649
C16   C     C_R   0.552514 0.933154 0.612219 -0.257628
H5    H     H_    0.404008 0.119224 0.303228 0.197688
H6    H     H_    0.596012 0.880771 0.696762 0.197721
C17   C     C_R   0.440241 0.938588 0.387075 0.343666
C18   C     C_R   0.559786 0.061413 0.612917 0.343658
C19   C     C_R   0.494674 0.871638 0.499756 -0.196109
C20   C     C_R   0.505340 0.128363 0.500245 -0.196097
C21   C     C_R   0.434536 0.424654 0.063651 0.073042
C22   C     C_R   0.565464 0.575346 0.936349 0.073055
H7    H     H_    0.382263 0.364233 0.111275 0.154101
H8    H     H_    0.617736 0.635768 0.888724 0.154129
C23   C     C_R   0.434556 0.424685 0.914722 0.034975
C24   C     C_R   0.565443 0.575315 0.085278 0.035013
H9    H     H_    0.382230 0.364270 0.849863 0.138127
H10   H     H_    0.617770 0.635730 0.150137 0.138133
N1    N     N_R   0.500030 0.500030 0.852080 -0.181151
N2    N     N_R   0.499970 0.499970 0.147920 -0.181148
N3    N     N_R   0.827143 0.519175 0.810237 0.115265
O9    O     O_R   0.849110 0.612449 0.895018 -0.367411
O10   O     O_R   0.785270 0.421102 0.858454 -0.282280
N4    N     N_R   0.172852 0.480858 0.189753 0.115273
O11   O     O_R   0.150838 0.387642 0.104920 -0.367422
O12   O     O_R   0.214758 0.578925 0.141584 -0.282253
N5    N     N_R   0.373360 0.878842 0.276124 0.141750
O13   O     O_R   0.309312 0.793545 0.307186 -0.313821
O14   O     O_R   0.364658 0.922556 0.147539 -0.316289
N6    N     N_R   0.626695 0.121158 0.723836 0.141766
O15   O     O_R   0.690674 0.206517 0.692757 -0.313852
O16   O     O_R   0.635524 0.077364 0.852375 -0.316268

loop_
_geom_bond_atom_site_label_1
_geom_bond_atom_site_label_2
_geom_bond_distance
_ccdc_geom_bond_type
O5    Cu1   1.958538 S    
N4    O12   1.300796 A    
O7    Cu2   1.970272 S    
C18   N6    1.437512 S    
C6    C11   1.402580 A    
C16   H6    1.084522 S    
C23   H9    1.081685 S    
C3    C6    1.468010 S    
C8    C10   1.394875 A    
N3    O9    1.300959 A    
C15   C20   1.399323 A    
C4    C5    1.468004 S    
O6    C4    1.297805 A    
C13   C14   1.406398 A    
O3    C1    1.288354 A    
N5    O14   1.302027 A    
N4    O11   1.300864 A    
C15   H5    1.084530 S    
Cu1   Cu2   2.673383 S    
C2    C19   1.447372 S    
O5    C3    1.297810 A    
O7    C3    1.290276 A    
C9    N4    1.432783 S    
O2    C2    1.288969 A    
O3    Cu2   1.960322 S    
C24   H10   1.081687 S    
C16   C19   1.399323 A    
C6    C9    1.420601 A    
O1    C1    1.288970 A    
O8    C4    1.290278 A    
O4    C2    1.288356 A    
C22   H8    1.081684 S    
C11   H2    1.084666 S    
N6    O16   1.301885 A    
C22   C24   1.415301 A    
C18   C20   1.409988 A    
C11   C13   1.387878 A    
C17   N5    1.437524 S    
C5    C10   1.420591 A    
O2    Cu2   1.960650 S    
C12   C14   1.387877 A    
C7    C14   1.396381 A    
O1    Cu1   1.960649 S    
C16   C18   1.389590 A    
C8    C13   1.396385 A    
C7    H3    1.084760 S    
C1    C20   1.447370 S    
C15   C17   1.389564 A    
C21   H7    1.081685 S    
C8    H4    1.084761 S    
N6    O15   1.301351 A    
Cu1   N1    2.009076 S    
N3    O10   1.300833 A    
C24   N2    1.366966 A    
O4    Cu1   1.960323 S    
C23   N1    1.366967 A    
C7    C9    1.394878 A    
C22   N1    1.366232 A    
O6    Cu2   1.958537 S    
C17   C19   1.409978 A    
C21   N2    1.366231 A    
N5    O13   1.301433 A    
C21   C23   1.415302 A    
C12   H1    1.084667 S    
C5    C12   1.402577 A    
C10   N3    1.432775 S    
Cu2   N2    2.009076 S    
O8    Cu1   1.970272 S    
