data_mof_unit_24155.cif
_audit_creation_date              2013-03-05T15:44:59-0500
_audit_creation_method            fapswitch 2.2
_symmetry_space_group_name_H-M    P1
_symmetry_Int_Tables_number       1
_space_group_crystal_system       triclinic
_cell_length_a                    10.906669
_cell_length_b                    11.013317
_cell_length_c                    18.852799
_cell_angle_alpha                 90.500794
_cell_angle_beta                  90.274137
_cell_angle_gamma                 119.999638
_cell_volume                      1960.99943495

loop_
_atom_site_label
_atom_site_type_symbol
_atom_site_description
_atom_site_fract_x
_atom_site_fract_y
_atom_site_fract_z
_atom_type_partial_charge
O1    O     O_R   0.766500 0.250040 0.579790 -0.493468
O2    O     O_R   0.798570 0.516780 0.574780 -0.541928
C1    C     C_R   0.867007 0.637441 0.604171 0.535891
O3    O     O_R   0.984000 0.732950 0.581090 -0.489972
O4    O     O_R   0.218600 0.700890 0.574760 -0.492729
C2    C     C_R   0.270785 0.633300 0.603653 0.546073
O5    O     O_R   0.249390 0.515350 0.579940 -0.546313
O6    O     O_R   0.982790 0.280900 0.573700 -0.507877
C3    C     C_R   0.889496 0.293846 0.610397 0.546259
O7    O     O_R   0.766600 0.251130 0.419260 -0.465517
O8    O     O_R   0.798660 0.517790 0.425980 -0.506776
C4    C     C_R   0.902419 0.614100 0.389757 0.539752
O9    O     O_R   0.984100 0.734040 0.420570 -0.487884
O10   O     O_R   0.218690 0.701900 0.425960 -0.475432
C5    C     C_R   0.268339 0.631811 0.395678 0.585120
O11   O     O_R   0.249490 0.516440 0.419420 -0.521097
O12   O     O_R   0.982880 0.281910 0.424890 -0.512628
C6    C     C_R   0.864000 0.234642 0.394053 0.579392
Cr1   Cr    Cr6+3 0.791660 0.390250 0.499930 1.045117
Cr2   Cr    Cr6+3 0.098520 0.708290 0.500540 1.076527
Cr3   Cr    Cr6+3 0.109770 0.401430 0.499480 1.013982
O13   O     O_3   0.999980 0.499990 0.499980 -0.314656
C7    C     C_R   0.252931 0.724163 0.720120 -0.119000
H1    H     H_    0.178622 0.752660 0.698767 0.175235
C8    C     C_R   0.271503 0.728180 0.793147 -0.116968
H2    H     H_    0.212765 0.759437 0.827422 0.194283
C9    C     C_R   0.362399 0.686781 0.821397 0.013504
C10   C     C_R   0.433645 0.640431 0.776779 -0.150257
H3    H     H_    0.500474 0.603272 0.798605 0.133812
C11   C     C_R   0.414894 0.635462 0.704134 -0.145372
H4    H     H_    0.466329 0.594087 0.670679 0.122472
C12   C     C_R   0.321504 0.673591 0.675717 0.028179
C13   C     C_R   0.836253 0.159426 0.824304 -0.002940
C14   C     C_R   0.098743 0.274700 0.844645 0.028497
C15   C     C_R   0.228241 0.310565 0.814358 -0.058305
C16   C     C_R   0.241049 0.314552 0.741517 -0.090704
C17   C     C_R   0.128858 0.293686 0.698158 -0.082313
C18   C     C_R   0.996761 0.263659 0.726705 -0.012476
C19   C     C_R   0.977204 0.233694 0.800099 0.007167
H5    H     H_    0.321080 0.339759 0.847144 0.142367
H6    H     H_    0.342544 0.346299 0.718390 0.100293
C20   C     C_R   0.756999 0.232835 0.722163 -0.002198
C21   C     C_R   0.722928 0.150129 0.781488 -0.024363
C22   C     C_R   0.656443 0.268703 0.696830 -0.126542
C23   C     C_R   0.518090 0.201116 0.719789 -0.108167
C24   C     C_R   0.475982 0.098416 0.770415 0.227127
C25   C     C_R   0.576190 0.066750 0.797203 -0.066484
C26   C     C_R   0.884213 0.265319 0.687029 -0.029615
H7    H     H_    0.152520 0.301466 0.643137 0.185728
H8    H     H_    0.537495 0.976903 0.830034 0.173806
H9    H     H_    0.443766 0.226478 0.696380 0.130988
H10   H     H_    0.681694 0.347970 0.658448 0.168697
C27   C     C_R   0.786251 0.730571 0.701722 -0.131902
H11   H     H_    0.758040 0.787320 0.664577 0.128200
C28   C     C_R   0.771078 0.742581 0.774071 -0.123483
H12   H     H_    0.733643 0.811666 0.792665 0.110024
C29   C     C_R   0.804757 0.666972 0.822460 0.034504
C30   C     C_R   0.866236 0.589298 0.799187 -0.020685
C31   C     C_R   0.886616 0.582262 0.726927 -0.138969
H13   H     H_    0.940295 0.528180 0.708249 0.089121
C32   C     C_R   0.840882 0.647370 0.678270 0.017956
C33   C     C_R   0.244600 0.542723 0.275319 -0.182795
H14   H     H_    0.181194 0.437359 0.295261 0.153184
C34   C     C_R   0.260663 0.559103 0.202970 -0.148351
H15   H     H_    0.216006 0.466531 0.169027 0.158924
C35   C     C_R   0.341160 0.692823 0.175041 -0.022969
C36   C     C_R   0.397188 0.811455 0.220062 -0.126660
H16   H     H_    0.462353 0.915227 0.198547 0.173534
C37   C     C_R   0.381841 0.796315 0.293718 0.181918
C38   C     C_R   0.307076 0.659637 0.321418 0.006715
C39   C     C_R   0.789809 0.257774 0.275483 -0.098769
H17   H     H_    0.737310 0.310038 0.298486 0.155533
C40   C     C_R   0.789856 0.244437 0.202632 -0.026035
C41   C     C_R   0.853826 0.172482 0.172329 0.003137
C42   C     C_R   0.931213 0.130457 0.215564 -0.153103
H18   H     H_    0.981933 0.075750 0.193476 0.154914
C43   C     C_R   0.932915 0.147153 0.288743 -0.147582
H19   H     H_    0.990373 0.112044 0.321808 0.145867
C44   C     C_R   0.856543 0.204912 0.318823 0.034410
C45   C     C_R   0.985511 0.687239 0.268796 -0.139449
H20   H     H_    0.093247 0.729321 0.287533 0.136178
C46   C     C_R   0.960657 0.701044 0.197970 -0.125683
H21   H     H_    0.050074 0.755047 0.162932 0.144361
C47   C     C_R   0.821919 0.652314 0.173638 0.037839
C48   C     C_R   0.707844 0.584051 0.220124 -0.116232
H22   H     H_    0.600215 0.548413 0.202624 0.153381
C49   C     C_R   0.732744 0.568001 0.290739 -0.130104
H23   H     H_    0.643753 0.517670 0.326282 0.153027
C50   C     C_R   0.872164 0.622727 0.315534 0.014007
O14   O     O_R   0.895110 0.806860 0.920430 -0.478439
O15   O     O_R   0.872260 0.046970 0.925000 -0.494960
C51   C     C_R   0.801533 0.095839 0.893764 0.542269
O16   O     O_R   0.691430 0.085060 0.918550 -0.510342
O17   O     O_R   0.451490 0.822460 0.925250 -0.496113
C52   C     C_R   0.396942 0.700602 0.896078 0.546450
O18   O     O_R   0.413330 0.603360 0.920440 -0.521805
O19   O     O_R   0.676110 0.626250 0.926750 -0.510587
C53   C     C_R   0.795917 0.692661 0.896813 0.551221
O20   O     O_R   0.895350 0.809870 0.080950 -0.521533
O21   O     O_R   0.872490 0.049760 0.073800 -0.498432
C54   C     C_R   0.810123 0.109456 0.101840 0.560432
O22   O     O_R   0.691680 0.088070 0.079070 -0.496378
O23   O     O_R   0.451720 0.825250 0.074050 -0.500657
C55   C     C_R   0.395879 0.705696 0.103647 0.553911
O24   O     O_R   0.413580 0.606370 0.080960 -0.502100
O25   O     O_R   0.676340 0.629040 0.075550 -0.485661
C56   C     C_R   0.798673 0.694707 0.104365 0.557830
Cr4   Cr    Cr6+3 0.874790 0.925890 0.000070 1.075645
Cr5   Cr    Cr6+3 0.574120 0.948670 0.999300 1.082958
Cr6   Cr    Cr6+3 0.551420 0.625320 0.000920 1.056101
O26   O     O_3   0.666780 0.833290 0.000090 -0.282973
N1    N     N_R   0.336013 0.035198 0.798895 0.048932
O27   O     O_R   0.317187 0.009980 0.866465 -0.350006
O28   O     O_R   0.230342 0.019966 0.759885 -0.356808
C57   C     C_1   0.915242 0.524073 0.849041 0.188287
N2    N     N_1   0.954540 0.473262 0.889941 -0.292926
N3    N     N_R   0.446759 0.918884 0.338984 0.081090
O29   O     O_R   0.501319 0.916142 0.400074 -0.315991
O30   O     O_R   0.464433 0.037756 0.316228 -0.353844
C58   C     C_1   0.714146 0.295647 0.160694 0.236175
N4    N     N_1   0.652270 0.334005 0.126351 -0.272126
C59   C     C_1   0.101839 0.302607 0.919946 0.261103
N5    N     N_1   0.105396 0.325891 0.980159 -0.262976

loop_
_geom_bond_atom_site_label_1
_geom_bond_atom_site_label_2
_geom_bond_distance
_ccdc_geom_bond_type
C2    C12   1.444123 S    
C49   H23   1.083063 S    
C54   O22   1.263814 A    
C24   N1    1.433548 S    
C40   C41   1.410661 A    
C9    C52   1.442653 S    
C15   C16   1.379871 A    
O24   Cr6   2.072238 S    
N1    O28   1.301440 A    
O19   C53   1.272604 A    
O4    Cr2   1.941904 S    
C43   H19   1.083334 S    
C58   N4    1.157056 T    
O20   Cr4   2.079745 S    
O8    Cr1   1.962281 S    
C13   C19   1.412942 A    
C10   H3    1.080004 S    
N3    O30   1.301313 A    
O4    C2    1.265931 A    
O25   C56   1.272641 A    
C23   H9    1.074735 S    
C1    C32   1.441175 S    
C5    O11   1.267548 A    
C47   C56   1.453870 S    
C33   C38   1.405337 A    
C14   C15   1.389491 A    
C45   C50   1.397335 A    
Cr6   O26   1.987068 S    
C51   O16   1.240278 A    
C33   C34   1.377923 A    
C27   C32   1.389822 A    
C33   H14   1.083400 S    
C52   O18   1.260591 A    
C6    C44   1.445508 S    
C7    H1    1.082059 S    
C18   C26   1.442416 A    
C22   H10   1.064943 S    
C27   C28   1.387885 A    
C35   C36   1.406456 A    
C31   H13   1.080982 S    
C14   C59   1.446550 S    
C40   C58   1.446483 S    
Cr3   O13   1.977856 S    
C16   H6    1.076092 S    
O17   C52   1.281826 A    
C20   C22   1.420730 A    
C39   C44   1.400958 A    
C55   O24   1.273049 A    
O12   C6    1.265966 A    
C25   H8    1.065818 S    
C43   C44   1.395771 A    
C31   C32   1.403295 A    
O21   Cr4   1.948148 S    
C41   C42   1.407708 A    
C48   C49   1.387810 A    
C36   H16   1.083708 S    
C13   C21   1.432551 A    
C35   C55   1.454077 S    
C4    C50   1.450952 S    
Cr1   O13   1.969013 S    
O1    C3    1.306068 A    
C47   C48   1.402797 A    
C45   C46   1.385933 A    
C13   C51   1.450595 S    
O15   C51   1.283695 A    
C39   C40   1.380039 A    
O6    C3    1.297848 A    
C30   C31   1.389094 A    
C48   H22   1.083599 S    
O1    Cr1   2.085049 S    
O18   Cr6   2.058259 S    
O12   Cr3   1.937215 S    
C14   C19   1.431952 A    
C36   C37   1.400872 A    
C34   C35   1.393535 A    
C42   H18   1.083310 S    
C17   C18   1.417331 A    
O10   Cr2   1.951375 S    
C17   H7    1.063937 S    
O7    Cr1   2.066827 S    
C28   H12   1.084357 S    
O6    Cr3   1.962309 S    
C20   C26   1.417179 A    
C42   C43   1.389032 A    
C41   C54   1.456706 S    
Cr2   O13   1.987943 S    
C46   C47   1.401830 A    
C28   C29   1.405885 A    
C30   C57   1.440836 S    
C20   C21   1.379133 A    
C1    O3    1.262972 A    
O23   C55   1.276764 A    
C22   C23   1.380972 A    
O25   Cr6   1.939694 S    
C5    C38   1.454700 S    
C24   C25   1.396471 A    
C16   C17   1.387163 A    
O9    Cr2   2.062570 S    
O2    Cr1   1.948960 S    
O15   Cr4   1.962495 S    
C45   H20   1.081143 S    
O8    C4    1.300697 A    
O11   Cr3   2.080863 S    
C27   H11   1.083317 S    
C2    O5    1.275735 A    
C8    C9    1.387638 A    
O20   C56   1.261836 A    
O17   Cr5   1.938822 S    
Cr4   O26   1.968093 S    
O23   Cr5   1.962819 S    
C34   H15   1.084063 S    
Cr5   O26   1.980064 S    
C15   H5    1.084294 S    
C8    H2    1.080314 S    
O14   Cr4   2.069113 S    
C39   H17   1.083907 S    
O5    Cr3   2.056228 S    
N3    O29   1.301339 A    
C7    C12   1.408811 A    
C11   C12   1.388272 A    
O19   Cr6   1.951760 S    
C11   H4    1.083568 S    
C29   C30   1.394189 A    
C18   C19   1.417536 A    
O7    C6    1.258382 A    
C29   C53   1.440795 S    
C37   N3    1.438783 S    
O21   C54   1.272378 A    
C10   C11   1.380345 A    
O2    C1    1.273327 A    
N1    O27   1.301439 A    
C7    C8    1.387725 A    
C37   C38   1.412047 A    
O3    Cr2   2.071262 S    
C23   C24   1.380156 A    
C4    O9    1.296469 A    
C3    C26   1.476445 S    
C46   H21   1.083601 S    
C9    C10   1.402633 A    
C49   C50   1.402074 A    
O10   C5    1.276023 A    
O22   Cr5   2.058014 S    
C59   N5    1.157783 T    
C21   C25   1.425497 A    
O14   C53   1.255172 A    
C57   N2    1.155707 T    
O16   Cr5   2.085108 S    
