data_mof_unit_10145.cif
_audit_creation_date              2012-12-10T20:52:46-0500
_audit_creation_method            fapswitch 2.2
_symmetry_space_group_name_H-M    P1
_symmetry_Int_Tables_number       1
_space_group_crystal_system       triclinic
_cell_length_a                    8.506236
_cell_length_b                    15.653417
_cell_length_c                    15.06691
_cell_angle_alpha                 90.269565
_cell_angle_beta                  99.441317
_cell_angle_gamma                 89.682197
_cell_volume                      1978.96346525

loop_
_atom_site_label
_atom_site_type_symbol
_atom_type_description
_atom_site_fract_x
_atom_site_fract_y
_atom_site_fract_z
_atom_type_partial_charge
C1    C     C_R   0.500491 0.338322 0.499886 0.907208
C2    C     C_R   0.798300 0.510237 0.523907 0.867984
C3    C     C_2   0.033910 0.535892 0.466137 0.133933
C4    C     C_2   0.963078 0.529549 0.539319 0.235298
C5    C     C_R   0.547684 0.955437 0.595150 0.349331
C6    C     C_R   0.645049 0.042783 0.450259 0.341161
C7    C     C_R   0.594912 0.911229 0.522453 -0.265204
C8    C     C_R   0.584174 0.086951 0.518480 -0.241364
C9    C     C_R   0.657849 0.953980 0.454566 0.338187
C10   C     C_R   0.543367 0.044460 0.593487 0.347451
C11   C     C_1   0.560320 0.823318 0.511912 0.099684
C12   C     C_R   0.501168 0.661629 0.500401 0.850459
C13   C     C_1   0.551902 0.175358 0.508513 0.112240
C14   C     C_1   0.524805 0.249720 0.502556 -0.197312
C15   C     C_1   0.529640 0.749596 0.504598 -0.187305
C16   C     C_R   0.398212 0.442326 0.942900 0.317417
C17   C     C_R   0.585117 0.560600 0.055288 0.307818
C18   C     C_3   0.989827 0.564375 0.308478 0.135483
C19   C     C_3   0.092563 0.636468 0.280770 -0.323775
C20   C     C_3   0.121600 0.625058 0.184484 -0.981897
C21   C     C_3   0.003611 0.601350 0.675179 0.115296
C22   C     C_3   0.142984 0.664197 0.692855 -0.372674
C23   C     C_R   0.494687 0.500795 0.904443 -0.277932
C24   C     C_3   0.153688 0.719785 0.611077 -0.812265
C25   C     C_3   0.598665 0.129186 0.718626 0.068559
C26   C     C_3   0.523488 0.196569 0.772659 -0.262101
C27   C     C_3   0.650116 0.245920 0.835927 -0.948244
C28   C     C_3   0.862990 0.872731 0.417093 0.109325
C29   C     C_3   0.995087 0.930652 0.394232 -0.334641
C30   C     C_3   0.159721 0.891266 0.424328 -0.949469
C31   C     C_3   0.612561 0.877651 0.723413 0.104963
C32   C     C_3   0.545258 0.824311 0.792461 -0.795188
C33   C     C_3   0.569810 0.088991 0.306591 0.133645
C34   C     C_R   0.495853 0.499856 0.094431 -0.266296
C35   C     C_3   0.616852 0.146486 0.234261 -0.798405
C36   C     C_3   0.159593 0.393456 0.065426 0.109137
C37   C     C_3   0.095806 0.365724 0.149808 -0.346032
C38   C     C_3   0.917486 0.384246 0.141710 -0.983131
C39   C     C_3   0.839356 0.590052 0.933927 0.120285
C40   C     C_3   0.946753 0.667119 0.927420 -0.318234
C41   C     C_3   0.122745 0.642024 0.938242 -1.053531
C42   C     C_3   0.173428 0.415618 0.840661 0.101247
C43   C     C_3   0.074777 0.345083 0.789331 -0.790881
C44   C     C_3   0.592887 0.694354 0.114517 0.123582
C45   C     C_R   0.589642 0.558927 0.961526 0.341208
C46   C     C_3   0.688501 0.753740 0.182964 -0.817360
C47   C     C_R   0.402373 0.440670 0.037861 0.361416
C48   C     C_1   0.498875 0.500287 0.806970 0.178224
C49   C     C_1   0.498522 0.499536 0.192716 0.214825
C50   C     C_R   0.200719 0.512391 0.476573 0.838812
H1    H     H_    0.875877 0.563879 0.260490 0.207317
H2    H     H_    0.125668 0.707024 0.749508 0.184985
H3    H     H_    0.256758 0.628865 0.712878 0.243196
H4    H     H_    0.177041 0.680304 0.553451 0.260026
H5    H     H_    0.252692 0.765997 0.627813 0.270206
H6    H     H_    0.041083 0.756103 0.591275 0.226448
H7    H     H_    0.687166 0.161615 0.683402 0.134860
H8    H     H_    0.662516 0.081290 0.765784 0.132701
H9    H     H_    0.452681 0.242334 0.725702 0.239145
H10   H     H_    0.441859 0.164951 0.812726 0.232831
H11   H     H_    0.724064 0.201564 0.882979 0.254685
H12   H     H_    0.041168 0.499755 0.302448 0.144951
H13   H     H_    0.591796 0.292588 0.875845 0.299819
H14   H     H_    0.727931 0.281428 0.796651 0.256803
H15   H     H_    0.869438 0.810523 0.382050 0.167112
H16   H     H_    0.884197 0.858420 0.490604 0.113471
H17   H     H_    0.977032 0.941326 0.320361 0.232362
H18   H     H_    0.989402 0.993477 0.428231 0.245942
H19   H     H_    0.182703 0.883293 0.498542 0.286741
H20   H     H_    0.252338 0.933987 0.405168 0.266099
H21   H     H_    0.168802 0.828076 0.391618 0.258056
H22   H     H_    0.686278 0.929510 0.759492 0.123771
H23   H     H_    0.030952 0.698616 0.286240 0.217189
H24   H     H_    0.690597 0.835338 0.689646 0.128473
H25   H     H_    0.477024 0.769562 0.758831 0.258940
H26   H     H_    0.644081 0.799150 0.843144 0.218954
H27   H     H_    0.465370 0.864062 0.827280 0.253806
H28   H     H_    0.458134 0.115222 0.326103 0.128294
H29   H     H_    0.546230 0.023895 0.277553 0.170387
H30   H     H_    0.726632 0.121510 0.212071 0.252199
H31   H     H_    0.519309 0.148579 0.175455 0.214902
H32   H     H_    0.639142 0.212329 0.261060 0.264442
H33   H     H_    0.099104 0.354973 0.007821 0.178107
H34   H     H_    0.208653 0.639091 0.326470 0.238693
H35   H     H_    0.128381 0.462198 0.052900 0.094925
H36   H     H_    0.117053 0.296116 0.160481 0.233741
H37   H     H_    0.160797 0.400304 0.209124 0.225073
H38   H     H_    0.893789 0.453739 0.132548 0.267368
H39   H     H_    0.874743 0.363597 0.203981 0.273588
H40   H     H_    0.850071 0.349027 0.083571 0.272273
H41   H     H_    0.850734 0.544354 0.878558 0.118939
H42   H     H_    0.880811 0.557710 0.999448 0.142169
H43   H     H_    0.910966 0.698574 0.861135 0.207843
H44   H     H_    0.930727 0.713904 0.981006 0.236693
H45   H     H_    0.183643 0.563630 0.177275 0.259893
H46   H     H_    0.161673 0.609243 0.003204 0.267779
H47   H     H_    0.196194 0.700218 0.936529 0.273979
H48   H     H_    0.144509 0.599156 0.882847 0.250219
H49   H     H_    0.200994 0.462810 0.790807 0.178991
H50   H     H_    0.099475 0.447550 0.885522 0.096995
H51   H     H_    0.041745 0.297135 0.837072 0.239490
H52   H     H_    0.964347 0.372690 0.750109 0.220565
H53   H     H_    0.144221 0.313097 0.742239 0.260990
H54   H     H_    0.476202 0.682316 0.136588 0.131347
H55   H     H_    0.572055 0.726804 0.047968 0.169512
H56   H     H_    0.196648 0.678069 0.166751 0.258273
H57   H     H_    0.805112 0.768187 0.162484 0.249094
H58   H     H_    0.621940 0.814423 0.187404 0.223813
H59   H     H_    0.709392 0.723029 0.250221 0.268868
H60   H     H_    0.006719 0.626095 0.137516 0.299376
H61   H     H_    0.978223 0.578635 0.740931 0.120756
H62   H     H_    0.893532 0.635884 0.643352 0.119330
N1    N     N_1   0.499960 0.500020 0.270540 -0.100205
N2    N     N_1   0.500040 0.499980 0.729460 -0.100528
O1    O     O_R   0.500000 0.378020 0.573650 -0.602869
O2    O     O_3   0.044968 0.528579 0.627181 -0.632536
O3    O     O_3   0.476724 0.088465 0.658289 -0.591847
O4    O     O_3   0.711579 0.909462 0.385542 -0.625421
O5    O     O_3   0.485569 0.912438 0.661616 -0.567420
O6    O     O_3   0.695320 0.086816 0.380637 -0.584056
O7    O     O_3   0.325304 0.376646 0.076947 -0.605241
O8    O     O_3   0.679606 0.618828 0.925152 -0.633923
O9    O     O_3   0.313733 0.379712 0.890191 -0.585106
O10   O     O_3   0.679579 0.617838 0.109887 -0.618279
O11   O     O_R   0.500000 0.621980 0.426350 -0.608976
O12   O     O_R   0.500070 0.378020 0.426320 -0.601773
O13   O     O_R   0.499930 0.621980 0.573680 -0.618511
O14   O     O_R   0.271720 0.500000 0.556430 -0.549333
O15   O     O_R   0.728280 0.500000 0.443570 -0.582315
O16   O     O_R   0.271790 0.500000 0.409110 -0.643973
O17   O     O_R   0.728210 0.500000 0.590890 -0.623165
O18   O     O_3   0.951198 0.582726 0.393877 -0.673647
Zn1   Zn    Zn3+2 0.499950 0.500000 0.598370 0.972718
Zn2   Zn    Zn3+2 0.500050 0.500000 0.401630 0.967676

loop_
_geom_bond_atom_site_label_1
_geom_bond_atom_site_label_2
_ccdc_geom_bond_type
O11   Zn2   S    
C49   N1    T    
C8    C13   S    
C23   C45   A    
C18   O18   S    
C19   C20   S    
C40   H43   S    
C21   H62   S    
C32   H25   S    
C30   H21   S    
C35   H31   S    
C12   O13   A    
C44   H55   S    
C24   H5    S    
C7    C11   S    
C38   H39   S    
C26   C27   S    
C29   C30   S    
C39   O8    S    
C5    O5    S    
C22   H2    S    
C28   C29   S    
C16   O9    S    
C17   C45   A    
C33   H28   S    
C47   O7    S    
C41   H46   S    
C36   H33   S    
C24   H4    S    
C35   H30   S    
C2    O15   A    
C18   C19   S    
C6    O6    S    
C50   O16   A    
C30   H20   S    
C32   H27   S    
C29   H17   S    
C11   C15   T    
C35   H32   S    
C42   C43   S    
C46   H58   S    
C42   O9    S    
C31   H22   S    
C27   H11   S    
C26   H9    S    
C13   C14   T    
C9    O4    S    
O16   Zn2   S    
C25   H7    S    
C6    C9    A    
C21   O2    S    
C16   C47   A    
C39   H41   S    
C21   H61   S    
C3    C50   S    
C44   C46   S    
C18   H1    S    
C22   H3    S    
C20   H56   S    
C44   H54   S    
C3    O18   S    
C37   H36   S    
C19   H23   S    
C1    O12   A    
C40   H44   S    
C39   C40   S    
C5    C7    A    
C18   H12   S    
C31   H24   S    
C6    C8    A    
C12   O11   A    
O1    Zn1   S    
C25   C26   S    
C44   O10   S    
C38   H38   S    
C28   H16   S    
C43   H51   S    
C37   C38   S    
C42   H50   S    
C29   H18   S    
C17   O10   S    
C31   C32   S    
C12   C15   S    
C46   H57   S    
C2    O17   A    
C31   O5    S    
C27   H13   S    
C20   H60   S    
C40   C41   S    
C20   H45   S    
C16   C23   A    
N1    Zn2   S    
C36   H35   S    
C41   H47   S    
C50   O14   A    
C17   C34   A    
C3    C4    D    
C39   H42   S    
C30   H19   S    
C48   N2    T    
C7    C9    A    
C36   C37   S    
C34   C49   S    
C23   C48   S    
C4    O2    S    
C37   H37   S    
O13   Zn1   S    
C33   H29   S    
O17   Zn1   S    
C25   O3    S    
C32   H26   S    
C1    C14   S    
C45   O8    S    
C24   H6    S    
C38   H40   S    
C21   C22   S    
C28   H15   S    
C43   H52   S    
C5    C10   A    
C10   O3    S    
C28   O4    S    
O14   Zn1   S    
C2    C4    S    
C33   C35   S    
N2    Zn1   S    
C36   O7    S    
C22   C24   S    
C43   H53   S    
C27   H14   S    
O15   Zn2   S    
O12   Zn2   S    
C33   O6    S    
C8    C10   A    
C25   H8    S    
C46   H59   S    
C41   H48   S    
C34   C47   A    
C1    O1    A    
C42   H49   S    
C26   H10   S    
C19   H34   S    
