data_mof_unit_37737.cif
_audit_creation_date              2012-12-10T19:09:31-0500
_audit_creation_method            fapswitch 2.2
_symmetry_space_group_name_H-M    P1
_symmetry_Int_Tables_number       1
_space_group_crystal_system       triclinic
_cell_length_a                    15.000507
_cell_length_b                    15.235195
_cell_length_c                    9.841629
_cell_angle_alpha                 90.430238
_cell_angle_beta                  91.063226
_cell_angle_gamma                 89.979315
_cell_volume                      2248.71237454

loop_
_atom_site_label
_atom_site_type_symbol
_atom_type_description
_atom_site_fract_x
_atom_site_fract_y
_atom_site_fract_z
_atom_type_partial_charge
C1    C     C_R   0.117941 0.376244 0.499852 0.968634
C2    C     C_R   0.875776 0.617771 0.499114 1.037016
C3    C     C_R   0.377239 0.880664 0.499053 0.994244
C4    C     C_R   0.376821 0.118763 0.499723 0.968881
C5    C     C_3   0.773990 0.299995 0.645687 0.252517
C6    C     C_3   0.848592 0.225773 0.450028 0.360603
C7    C     C_3   0.851564 0.776078 0.495518 0.335911
C8    C     C_3   0.751167 0.679356 0.630059 0.287862
C9    C     C_3   0.269742 0.803808 0.644039 0.245524
C10   C     C_3   0.350151 0.723792 0.459573 0.359679
C11   C     C_3   0.258449 0.187164 0.358173 0.330558
C12   C     C_R   0.119716 0.622093 0.500904 0.988410
C13   C     C_3   0.350084 0.276049 0.523903 0.325167
C14   C     C_3   0.193845 0.736732 0.643351 0.134537
C15   C     C_3   0.278819 0.650706 0.464616 0.120424
C16   C     C_3   0.186039 0.258788 0.357262 0.122544
C17   C     C_3   0.277188 0.347075 0.532311 0.087108
C18   C     C_3   0.698391 0.232752 0.645195 0.136972
C19   C     C_3   0.777424 0.152516 0.453143 0.120828
C20   C     C_3   0.780148 0.849218 0.496358 0.116862
C21   C     C_3   0.678191 0.750090 0.629607 0.095503
C22   C     C_3   0.726664 0.340284 0.401660 0.824233
C23   C     C_R   0.619089 0.877374 0.500347 0.996850
C24   C     C_3   0.741095 0.674157 0.369399 0.819489
C25   C     C_3   0.230283 0.836624 0.393369 0.804605
C26   C     C_3   0.234458 0.164649 0.612092 0.809225
C27   C     C_3   0.807220 0.313998 0.497923 -0.243339
C28   C     C_3   0.805700 0.684609 0.497045 -0.257175
C29   C     C_3   0.307516 0.813554 0.497795 -0.249418
C30   C     C_3   0.306147 0.184750 0.500205 -0.301385
C31   C     C_3   0.186841 0.691592 0.501140 -0.163432
C32   C     C_3   0.184233 0.305715 0.498988 -0.161239
C33   C     C_3   0.686872 0.191723 0.500479 -0.154305
C34   C     C_R   0.619924 0.121960 0.500786 0.990904
C35   C     C_3   0.685579 0.807284 0.500058 -0.128224
C36   C     C_3   0.160070 0.762051 0.394606 -0.415536
C37   C     C_3   0.160562 0.235117 0.604767 -0.351005
C38   C     C_3   0.656747 0.265097 0.400931 -0.459814
C39   C     C_3   0.670165 0.747568 0.373644 -0.456081
C40   C     C_3   0.072070 0.443454 0.085077 0.731683
C41   C     C_3   0.079140 0.453367 0.922512 0.579609
C42   C     C_3   0.991449 0.592009 0.919632 0.682922
C43   C     C_3   0.007553 0.591820 0.082515 0.657335
C44   C     C_3   0.560661 0.931292 0.084245 0.706336
C45   C     C_3   0.914103 0.463377 0.077051 -0.392669
C46   C     C_3   0.568436 0.938866 0.921567 0.588714
C47   C     C_3   0.509229 0.091787 0.921222 0.691454
C48   C     C_3   0.521929 0.089304 0.084436 0.665274
C49   C     C_3   0.920239 0.451767 0.916835 -0.335301
C50   C     C_3   0.408857 0.978267 0.077113 -0.390187
C51   C     C_3   0.412293 0.967315 0.916477 -0.341531
C52   C     C_R   0.877000 0.380973 0.499082 1.015646
F1    F     F_    0.747766 0.378511 0.705704 -0.593554
F2    F     F_    0.884033 0.233479 0.321236 -0.537569
F3    F     F_    0.906641 0.783760 0.384345 -0.583170
F4    F     F_    0.716411 0.596003 0.649101 -0.564857
F5    F     F_    0.242299 0.883726 0.697412 -0.642643
F6    F     F_    0.388975 0.726902 0.332670 -0.551396
F7    F     F_    0.223207 0.105422 0.324168 -0.555442
F8    F     F_    0.405456 0.277167 0.638530 -0.582922
H1    H     H_    0.829823 0.273883 0.709923 0.078641
H2    H     H_    0.297999 0.603388 0.546348 0.026950
H3    H     H_    0.203711 0.307690 0.278782 0.079543
H4    H     H_    0.290771 0.398317 0.454625 0.068669
H5    H     H_    0.717629 0.180202 0.718054 0.101086
H6    H     H_    0.799160 0.101549 0.527691 0.031869
H7    H     H_    0.789989 0.890261 0.590009 0.042737
H8    H     H_    0.690752 0.793070 0.719675 0.105622
H9    H     H_    0.092156 0.787902 0.414687 0.227647
H10   H     H_    0.155556 0.731503 0.292177 0.281765
H11   H     H_    0.094838 0.204952 0.578201 0.228436
H12   H     H_    0.904779 0.207483 0.519839 0.041245
H13   H     H_    0.151492 0.264674 0.705687 0.211890
H14   H     H_    0.589327 0.289714 0.427339 0.187705
H15   H     H_    0.649179 0.237781 0.296415 0.272517
H16   H     H_    0.675337 0.787474 0.280530 0.230949
H17   H     H_    0.601146 0.720704 0.371952 0.217928
H18   H     H_    0.897863 0.399138 0.122847 0.295169
H19   H     H_    0.923725 0.380658 0.891075 0.239291
H20   H     H_    0.857251 0.474127 0.866977 0.292359
H21   H     H_    0.856600 0.506390 0.101686 0.250054
H22   H     H_    0.382296 0.917231 0.121390 0.288873
H23   H     H_    0.894932 0.783823 0.587977 0.076687
H24   H     H_    0.401543 0.897135 0.889043 0.249694
H25   H     H_    0.354814 0.001598 0.867614 0.279129
H26   H     H_    0.359105 0.029441 0.103629 0.258307
H27   H     H_    0.115852 0.794398 0.772265 0.405176
H28   H     H_    0.324128 0.563936 0.337592 0.358638
H29   H     H_    0.104064 0.198596 0.231836 0.396970
H30   H     H_    0.326096 0.430723 0.663904 0.370363
H31   H     H_    0.624748 0.287495 0.783085 0.411876
H32   H     H_    0.823010 0.079521 0.307180 0.384773
H33   H     H_    0.842456 0.939040 0.397388 0.365146
H34   H     H_    0.795895 0.693079 0.718809 0.115257
H35   H     H_    0.585580 0.692049 0.731240 0.385731
H36   H     H_    0.648071 0.409755 0.520927 0.401210
H37   H     H_    0.706778 0.376788 0.213778 0.352143
H38   H     H_    0.749097 0.666858 0.171809 0.344428
H39   H     H_    0.650128 0.589541 0.428341 0.397432
H40   H     H_    0.149657 0.911408 0.500548 0.397372
H41   H     H_    0.216707 0.865274 0.201009 0.358967
H42   H     H_    0.237989 0.036963 0.613386 0.398583
H43   H     H_    0.287290 0.223771 0.773888 0.390001
H44   H     H_    0.104776 0.318654 0.097715 0.317892
H45   H     H_    0.323589 0.779280 0.713549 0.103156
H46   H     H_    0.144786 0.345832 0.887847 0.342227
H47   H     H_    0.903634 0.687922 0.901558 0.351304
H48   H     H_    0.956469 0.706784 0.123695 0.384501
H49   H     H_    0.572609 0.802643 0.108940 0.317047
H50   H     H_    0.606575 0.817919 0.894205 0.319639
H51   H     H_    0.443253 0.203092 0.899328 0.390504
H52   H     H_    0.487536 0.210321 0.128224 0.336284
H53   H     H_    0.201202 0.429114 0.113545 0.324365
H54   H     H_    0.165341 0.496811 0.792440 0.402237
H55   H     H_    0.110961 0.638896 0.873873 0.339761
H56   H     H_    0.404502 0.707985 0.534092 0.075789
H57   H     H_    0.139882 0.605677 0.071650 0.374073
H58   H     H_    0.685775 0.895395 0.109691 0.348802
H59   H     H_    0.658535 0.980180 0.794165 0.372743
H60   H     H_    0.637299 0.114616 0.882094 0.327278
H61   H     H_    0.654972 0.081133 0.081214 0.376970
H62   H     H_    0.307221 0.203686 0.278294 0.102193
H63   H     H_    0.393396 0.291206 0.436353 0.051779
H64   H     H_    0.210581 0.686407 0.721354 0.102891
N1    N     N_3   0.998760 0.500000 0.138610 -0.128986
N2    N     N_3   0.998760 0.500000 0.861390 -0.143551
N3    N     N_3   0.498760 1.000000 0.138610 -0.125752
N4    N     N_3   0.498760 0.000000 0.861390 -0.152418
O1    O     O_R   0.092530 0.407440 0.616040 -0.593696
O2    O     O_R   0.907330 0.407420 0.383960 -0.543273
O3    O     O_R   0.907330 0.592580 0.383960 -0.507978
O4    O     O_R   0.907330 0.592580 0.616040 -0.576074
O5    O     O_R   0.407330 0.907420 0.616040 -0.617924
O6    O     O_R   0.407330 0.907420 0.383960 -0.532081
O7    O     O_R   0.407330 0.092580 0.383960 -0.589643
O8    O     O_R   0.407330 0.092580 0.616040 -0.513888
O9    O     O_3   0.112347 0.777407 0.674728 -0.671443
O10   O     O_3   0.273198 0.605551 0.339400 -0.622386
O11   O     O_3   0.101604 0.222695 0.325621 -0.617878
O12   O     O_R   0.092530 0.407440 0.383960 -0.548894
O13   O     O_3   0.277646 0.386316 0.662243 -0.710050
O14   O     O_3   0.617970 0.272265 0.685179 -0.613304
O15   O     O_3   0.767501 0.112970 0.324028 -0.603471
O16   O     O_3   0.787975 0.903129 0.381858 -0.643937
O17   O     O_3   0.592785 0.712279 0.636442 -0.695541
O18   O     O_3   0.689157 0.420476 0.445154 -0.694978
O19   O     O_3   0.756742 0.351292 0.268147 -0.677294
O20   O     O_3   0.789019 0.684195 0.249146 -0.632594
O21   O     O_3   0.701489 0.590116 0.366427 -0.705835
O22   O     O_3   0.191946 0.918761 0.425308 -0.682260
O23   O     O_R   0.092530 0.592560 0.383960 -0.512807
O24   O     O_3   0.264605 0.841609 0.261457 -0.664884
O25   O     O_3   0.194320 0.082676 0.586184 -0.644699
O26   O     O_3   0.272550 0.163044 0.744548 -0.703439
O27   O     O_3   0.052379 0.355492 0.118507 -0.702343
O28   O     O_3   0.084327 0.368734 0.865273 -0.746077
O29   O     O_3   0.903974 0.622928 0.892339 -0.727907
O30   O     O_3   0.941866 0.644362 0.141748 -0.638421
O31   O     O_3   0.526074 0.848117 0.120044 -0.708872
O32   O     O_3   0.556194 0.855116 0.862684 -0.719737
O33   O     O_3   0.430591 0.139286 0.890083 -0.663003
O34   O     O_R   0.092530 0.592560 0.616040 -0.621290
O35   O     O_3   0.463295 0.150554 0.143174 -0.738121
O36   O     O_3   0.153142 0.466212 0.151496 -0.711773
O37   O     O_3   0.158305 0.498372 0.892094 -0.846017
O38   O     O_3   0.048068 0.650811 0.853135 -0.738642
O39   O     O_3   0.089912 0.629951 0.122977 -0.739074
O40   O     O_3   0.645367 0.940614 0.147605 -0.686873
O41   O     O_3   0.655422 0.967191 0.891878 -0.861008
O42   O     O_3   0.578288 0.138407 0.859547 -0.737156
O43   O     O_3   0.608642 0.115048 0.127490 -0.713943
O44   O     O_R   0.592530 0.907440 0.616040 -0.632486
O45   O     O_R   0.592530 0.907440 0.383960 -0.529890
O46   O     O_R   0.592530 0.092560 0.383960 -0.511779
O47   O     O_R   0.592530 0.092560 0.616040 -0.600422
O48   O     O_R   0.907330 0.407420 0.616040 -0.618283
Zn1   Zn    Zn3+2 0.999890 0.500000 0.654960 1.046064
Zn2   Zn    Zn3+2 0.999890 0.500000 0.345040 1.141332
Zn3   Zn    Zn3+2 0.499890 0.000000 0.654960 1.052743
Zn4   Zn    Zn3+2 0.499890 1.000000 0.345040 1.121805

loop_
_geom_bond_atom_site_label_1
_geom_bond_atom_site_label_2
_ccdc_geom_bond_type
C7    H23   S    
C44   N3    S    
C20   O16   S    
C20   H7    S    
H35   O17   S    
C7    F3    S    
C14   C31   S    
C43   O30   S    
C51   H25   S    
H50   O32   S    
C47   N4    S    
C48   O35   S    
C36   H9    S    
C18   H5    S    
C6    H12   S    
C6    C19   S    
H39   O21   S    
O8    Zn3   S    
N2    Zn1   S    
C25   O24   S    
C51   N4    S    
C39   H17   S    
C5    F1    S    
C10   F6    S    
C6    F2    S    
O7    Zn4   S    
C40   O36   S    
C1    O1    A    
C10   C15   S    
C17   H4    S    
C13   H63   S    
H48   O30   S    
C9    H45   S    
C22   C38   S    
C41   O28   S    
C24   C39   S    
C19   H6    S    
C17   O13   S    
C44   O40   S    
C3    C29   S    
H32   O15   S    
O34   Zn1   S    
C34   O47   A    
O2    Zn2   S    
C5    C27   S    
C20   C35   S    
C23   O44   A    
C22   O18   S    
C11   C30   S    
C45   N1    S    
H29   O11   S    
H51   O33   S    
O12   Zn2   S    
C40   O27   S    
C45   H18   S    
C16   H3    S    
C52   O48   A    
C9    C29   S    
O4    Zn1   S    
C4    O8    A    
H31   O14   S    
C8    F4    S    
H37   O19   S    
C12   O23   A    
C43   N1    S    
H27   O9    S    
C11   F7    S    
H47   O29   S    
O3    Zn2   S    
C44   C46   S    
C2    O3    A    
C38   H15   S    
C25   C29   S    
C14   H64   S    
C47   C48   S    
C13   C30   S    
C18   O14   S    
C8    H34   S    
C19   C33   S    
C13   F8    S    
C50   H26   S    
O5    Zn3   S    
O23   Zn2   S    
O47   Zn3   S    
C5    C18   S    
O45   Zn4   S    
H40   O22   S    
C32   C37   S    
O1    Zn1   S    
C1    C32   S    
C7    C28   S    
C49   H19   S    
C41   O37   S    
C25   O22   S    
C3    O5    A    
C21   O17   S    
C35   C39   S    
C9    C14   S    
C34   O46   A    
C48   O43   S    
C11   C16   S    
H43   O26   S    
C2    O4    A    
C6    C27   S    
C14   O9    S    
C45   C49   S    
C46   O32   S    
C33   C34   S    
C5    H1    S    
C50   C51   S    
N4    Zn3   S    
C39   H16   S    
H55   O38   S    
C1    O12   A    
H42   O25   S    
H28   O10   S    
H33   O16   S    
H59   O41   S    
C4    O7    A    
C21   C35   S    
O44   Zn3   S    
C40   C41   S    
C36   H10   S    
C26   C30   S    
H46   O28   S    
C22   C27   S    
C37   H11   S    
C21   H8    S    
C24   O20   S    
C8    C28   S    
C26   O26   S    
C16   O11   S    
C42   C43   S    
N3    Zn4   S    
H49   O31   S    
O46   Zn4   S    
C47   O42   S    
C10   H56   S    
C27   C52   S    
C50   H22   S    
H54   O37   S    
C38   H14   S    
C46   N4    S    
C44   O31   S    
H52   O35   S    
C37   H13   S    
O48   Zn1   S    
C47   O33   S    
C19   O15   S    
H61   O43   S    
C41   N2    S    
C45   H21   S    
C24   C28   S    
C8    C21   S    
C46   O41   S    
C26   C37   S    
C15   C31   S    
C23   O45   A    
C43   O39   S    
C16   C32   S    
H36   O18   S    
H41   O24   S    
C23   C35   S    
C33   C38   S    
C49   H20   S    
C13   C17   S    
C3    O6    A    
C52   O2    A    
C15   O10   S    
C12   C31   S    
H53   O36   S    
C10   C29   S    
H60   O42   S    
H38   O20   S    
H57   O39   S    
C40   N1    S    
C51   H24   S    
H58   O40   S    
C15   H2    S    
C9    F5    S    
H44   O27   S    
C18   C33   S    
H30   O13   S    
C24   O21   S    
C42   N2    S    
C25   C36   S    
C12   O34   A    
C11   H62   S    
C22   O19   S    
C7    C20   S    
N1    Zn2   S    
C17   C32   S    
C31   C36   S    
C26   O25   S    
C2    C28   S    
C50   N3    S    
O6    Zn4   S    
C42   O29   S    
C4    C30   S    
C42   O38   S    
C48   N3    S    
C49   N2    S    
