data_mof_unit_60776.cif
_audit_creation_date              2013-03-05T16:42:59-0500
_audit_creation_method            fapswitch 2.2
_symmetry_space_group_name_H-M    P1
_symmetry_Int_Tables_number       1
_space_group_crystal_system       triclinic
_cell_length_a                    17.745982
_cell_length_b                    16.442317
_cell_length_c                    27.786547
_cell_angle_alpha                 90.15062
_cell_angle_beta                  90.194843
_cell_angle_gamma                 89.97213
_cell_volume                      8107.62350652

loop_
_atom_site_label
_atom_site_type_symbol
_atom_site_description
_atom_site_fract_x
_atom_site_fract_y
_atom_site_fract_z
_atom_type_partial_charge
O1    O     O_R   0.391260 0.567930 0.500000 -0.589403
O2    O     O_R   0.608740 0.432070 0.500000 -0.588497
O3    O     O_R   0.608740 0.567930 0.500000 -0.578107
O4    O     O_R   0.391260 0.432070 0.500000 -0.577221
C1    C     C_R   0.355301 0.500010 0.499944 0.847001
C2    C     C_R   0.644690 0.499986 0.500030 0.847257
O5    O     O_R   0.500010 0.567900 0.430260 -0.546594
O6    O     O_R   0.499990 0.432100 0.569740 -0.545790
O7    O     O_R   0.499990 0.567900 0.569740 -0.590253
O8    O     O_R   0.500010 0.432100 0.430260 -0.589546
C3    C     C_R   0.500993 0.499949 0.407213 0.880647
C4    C     C_R   0.499044 0.500050 0.592793 0.880631
Cu1   Cu    Cu3+1 0.500000 0.580420 0.500000 0.999035
Cu2   Cu    Cu3+1 0.500000 0.419580 0.500000 1.000843
C5    C     C_R   0.429943 0.495725 0.177444 0.667120
C6    C     C_R   0.570279 0.504638 0.822561 0.666686
O9    O     O_2   0.366772 0.510022 0.202853 -0.434729
O10   O     O_2   0.633463 0.490438 0.797147 -0.434850
N1    N     N_R   0.496606 0.486270 0.201561 -0.461114
N2    N     N_R   0.503602 0.513987 0.798449 -0.461084
C7    C     C_R   0.562587 0.472121 0.177856 0.660728
C8    C     C_R   0.437613 0.528100 0.822149 0.661187
C9    C     C_R   0.528342 0.558550 0.276230 -0.193615
C10   C     C_R   0.472384 0.441304 0.723839 -0.194518
C11   C     C_R   0.530350 0.563358 0.326429 0.266032
C12   C     C_R   0.470353 0.436402 0.673642 0.266332
C13   C     C_R   0.469839 0.430730 0.330477 -0.307398
C14   C     C_R   0.529771 0.569600 0.669504 -0.307232
C15   C     C_R   0.468128 0.426625 0.280410 0.726991
C16   C     C_R   0.531527 0.573776 0.719567 0.726829
C17   C     C_R   0.497330 0.490596 0.253143 0.138239
C18   C     C_R   0.502867 0.509578 0.746873 0.138766
C19   C     C_R   0.496871 0.484996 0.101513 -0.167705
C20   C     C_R   0.503347 0.515355 0.898492 -0.167685
C21   C     C_R   0.427905 0.492811 0.126654 -0.077176
C22   C     C_R   0.572318 0.507568 0.873352 -0.077083
C23   C     C_R   0.360088 0.494761 0.099854 0.314662
C24   C     C_R   0.640135 0.505655 0.900154 0.314660
C25   C     C_R   0.564030 0.470235 0.127292 -0.203750
C26   C     C_R   0.436178 0.530056 0.872711 -0.203840
C27   C     C_R   0.500509 0.498889 0.354150 -0.207727
C28   C     C_R   0.499605 0.501133 0.645867 -0.208570
H1    H     H_    0.446616 0.380547 0.350802 0.204236
H2    H     H_    0.552561 0.619986 0.649155 0.204654
C29   C     C_R   0.432911 0.521499 0.974538 -0.091711
C30   C     C_R   0.567308 0.478876 0.025466 -0.091718
C31   C     C_R   0.569192 0.493736 0.975102 0.076362
C32   C     C_R   0.431029 0.506657 0.024904 0.076368
C33   C     C_R   0.501586 0.509309 0.949494 0.057515
C34   C     C_R   0.498634 0.491067 0.050512 0.057521
C35   C     C_R   0.370272 0.552629 0.948157 0.141207
C36   C     C_R   0.629942 0.447719 0.051840 0.141209
C37   C     C_R   0.370600 0.551038 0.897950 0.669625
C38   C     C_R   0.629605 0.449258 0.102048 0.669610
O11   O     O_2   0.373724 0.539894 0.796623 -0.405326
O12   O     O_2   0.626461 0.460208 0.203379 -0.405398
C39   C     C_R   0.362732 0.498575 0.049888 -0.166428
C40   C     C_R   0.637488 0.501840 0.950120 -0.166399
H3    H     H_    0.449664 0.392126 0.745198 0.206918
H4    H     H_    0.551499 0.607540 0.254911 0.207178
H5    H     H_    0.310246 0.491415 0.030700 0.209718
H6    H     H_    0.689971 0.509010 0.969312 0.209719
C41   C     C_R   0.845757 0.572543 0.491528 0.277386
C42   C     C_R   0.154154 0.426980 0.492313 0.278563
C43   C     C_R   0.154109 0.572954 0.507233 0.278898
C44   C     C_R   0.845905 0.427327 0.508436 0.279460
C45   C     C_R   0.767190 0.572310 0.491816 -0.177674
C46   C     C_R   0.232727 0.427277 0.492576 -0.179597
C47   C     C_R   0.232679 0.572716 0.507038 -0.187972
C48   C     C_R   0.767331 0.427602 0.508239 -0.189200
H7    H     H_    0.737326 0.628690 0.485228 0.203324
H8    H     H_    0.262541 0.370610 0.486752 0.196317
H9    H     H_    0.262455 0.629409 0.512857 0.196625
H10   H     H_    0.737574 0.371245 0.514874 0.193911
C49   C     C_R   0.727458 0.499963 0.500032 -0.145973
C50   C     C_R   0.272518 0.500006 0.499855 -0.143527
C51   C     C_R   0.885418 0.499921 0.499946 -0.046332
C52   C     C_R   0.114546 0.499948 0.499776 -0.045918
C53   C     C_1   0.966166 0.499900 0.499873 0.141903
C54   C     C_1   0.033797 0.499907 0.499818 0.141883
C55   C     C_R   0.547792 0.828690 0.531031 0.174212
C56   C     C_R   0.451401 0.171316 0.469486 0.174474
C57   C     C_R   0.452390 0.828472 0.468867 0.174752
C58   C     C_R   0.548410 0.171534 0.530631 0.174925
C59   C     C_R   0.546708 0.742921 0.530356 0.040269
C60   C     C_R   0.452530 0.257084 0.470129 0.041985
C61   C     C_R   0.453387 0.742712 0.469589 0.066790
C62   C     C_R   0.547371 0.257292 0.529932 0.067866
H11   H     H_    0.583504 0.709453 0.554300 0.161340
H12   H     H_    0.415148 0.290555 0.446557 0.157850
H13   H     H_    0.416610 0.709082 0.445631 0.169505
H14   H     H_    0.584734 0.290925 0.553516 0.165871
N3    N     N_R   0.500000 0.701220 0.500000 -0.215572
N4    N     N_R   0.500000 0.298780 0.500000 -0.214172
C63   C     C_R   0.500080 0.873023 0.499956 -0.040224
C64   C     C_R   0.499916 0.126982 0.500053 -0.040221
C65   C     C_1   0.500027 0.962739 0.499989 0.166531
C66   C     C_1   0.499969 0.037266 0.500021 0.166452
Br1   Br    Br    0.615140 0.882270 0.574850 -0.319287
Br2   Br    Br    0.382858 0.117747 0.426427 -0.318986
Br3   Br    Br    0.385201 0.881739 0.424953 -0.316822
Br4   Br    Br    0.616790 0.118276 0.573795 -0.316448
F1    F     F_    0.438616 0.360093 0.258362 -0.591242
F2    F     F_    0.560554 0.640593 0.741575 -0.591329
Br5   Br    Br    0.260723 0.486143 0.127064 -0.240672
Br6   Br    Br    0.739499 0.514289 0.872946 -0.240745
Br7   Br    Br    0.423023 0.341924 0.646101 -0.378099
Br8   Br    Br    0.578524 0.657248 0.354082 -0.382241
F3    F     F_    0.307878 0.576298 0.874060 -0.535299
F4    F     F_    0.692322 0.423961 0.125932 -0.535357
Br9   Br    Br    0.291388 0.618597 0.976183 -0.272840
Br10  Br    Br    0.708831 0.381780 0.023797 -0.272877
Br11  Br    Br    0.896396 0.673415 0.479228 -0.309035
Br12  Br    Br    0.103427 0.325529 0.481397 -0.308983
Br13  Br    Br    0.103324 0.674380 0.518072 -0.315691
Br14  Br    Br    0.896772 0.326443 0.520700 -0.313780

loop_
_geom_bond_atom_site_label_1
_geom_bond_atom_site_label_2
_geom_bond_distance
_ccdc_geom_bond_type
C40   H6    1.078020 S    
C57   C61   1.410392 A    
C61   H13   1.081814 S    
C13   C15   1.392866 A    
C58   Br4   1.916361 S    
O3    C2    1.286220 A    
N1    C17   1.434900 S    
C65   C66   1.225390 T    
C2    C49   1.468792 S    
C31   C33   1.416368 A    
O5    C3    1.286460 A    
C15   F1    1.356902 S    
C19   C25   1.409689 A    
C44   Br14  1.918829 S    
O1    C1    1.286485 A    
C42   C46   1.394358 A    
N1    C7    1.364976 A    
C10   C12   1.397260 A    
C41   C51   1.405496 A    
C55   C63   1.411226 A    
C52   C54   1.432968 S    
C25   C38   1.403232 A    
C29   C35   1.425081 A    
C30   C36   1.425077 A    
C38   F4    1.359441 S    
C47   C50   1.402786 A    
C58   C64   1.411203 A    
O7    Cu1   1.949276 S    
C4    C28   1.474798 S    
C60   N4    1.364331 A    
C24   C40   1.390904 A    
C59   N3    1.364336 A    
C62   H14   1.081846 S    
C64   C66   1.475130 S    
C48   H10   1.083296 S    
O6    Cu2   1.948200 S    
C47   H9    1.083225 S    
O6    C4    1.286534 A    
C45   H7    1.083277 S    
O3    Cu1   1.940494 S    
C46   H8    1.083299 S    
C32   C34   1.416394 A    
C57   C63   1.411169 A    
Cu1   Cu2   2.644584 S    
C43   Br13  1.918810 S    
O2    C2    1.286351 A    
C42   C52   1.405468 A    
C5    C21   1.412332 A    
C36   C38   1.395303 A    
C62   N4    1.364341 A    
C51   C53   1.432966 S    
C9    H4    1.083098 S    
C41   C45   1.394302 A    
C42   Br12  1.918811 S    
C32   C39   1.405302 A    
C56   C64   1.411257 A    
C60   H12   1.081908 S    
C11   C27   1.415982 A    
C59   H11   1.081876 S    
C55   Br1   1.916379 S    
C19   C34   1.421378 A    
C56   C60   1.410437 A    
C14   H2    1.083503 S    
Cu1   N3    1.986230 S    
C35   C37   1.395304 A    
C9    C17   1.399005 A    
C24   Br6   1.926364 S    
C5    N1    1.366622 A    
C10   C18   1.398898 A    
C23   Br5   1.926371 S    
C13   C27   1.406833 A    
C7    C25   1.405577 A    
C29   C33   1.419326 A    
C6    N2    1.366582 A    
C8    C26   1.405544 A    
N2    C8    1.364929 A    
O8    Cu2   1.949279 S    
C20   C26   1.409691 A    
C45   C49   1.402739 A    
C22   C24   1.413494 A    
C12   C28   1.416145 A    
N2    C18   1.434777 S    
C29   C32   1.421753 A    
C37   F3    1.359442 S    
C5    O9    1.347107 S    
C44   C51   1.405506 A    
C30   C31   1.421747 A    
C20   C33   1.421361 A    
C35   Br9   1.934946 S    
C43   C52   1.405461 A    
C57   Br3   1.916356 S    
C21   C23   1.413482 A    
C56   Br2   1.916382 S    
C58   C62   1.410366 A    
O4    C1    1.286229 A    
C12   Br7   1.922212 S    
C7    O12   1.349515 S    
C63   C65   1.475137 S    
C39   H5    1.078008 S    
C8    O11   1.349515 S    
C46   C50   1.402894 A    
C30   C34   1.419330 A    
C1    C50   1.469072 S    
C14   C16   1.392849 A    
C15   C17   1.398692 A    
C6    C22   1.412349 A    
C31   C40   1.405304 A    
C16   C18   1.398556 A    
C44   C48   1.394388 A    
C10   H3    1.083101 S    
C43   C47   1.394340 A    
C61   N3    1.364351 A    
C14   C28   1.406966 A    
C19   C21   1.416891 A    
C3    C27   1.474493 S    
C20   C22   1.416912 A    
C9    C11   1.397239 A    
O4    Cu2   1.940496 S    
O2    Cu2   1.940693 S    
O7    C4    1.288036 A    
C55   C59   1.410463 A    
O8    C3    1.287950 A    
C53   C54   1.200179 T    
C41   Br11  1.918774 S    
C13   H1    1.083518 S    
O5    Cu1   1.948202 S    
O1    Cu1   1.940695 S    
C6    O10   1.347102 S    
C26   C37   1.403221 A    
C16   F2    1.356898 S    
C48   C49   1.402768 A    
C36   Br10  1.934952 S    
Cu2   N4    1.986230 S    
C23   C39   1.390890 A    
C11   Br8   1.922239 S    
