data_mof_unit_51916.cif
_audit_creation_date              2012-12-11T17:19:14-0500
_audit_creation_method            fapswitch 2.2
_symmetry_space_group_name_H-M    P1
_symmetry_Int_Tables_number       1
_space_group_crystal_system       triclinic
_cell_length_a                    14.646021
_cell_length_b                    7.261155
_cell_length_c                    13.478171
_cell_angle_alpha                 89.999937
_cell_angle_beta                  99.84276
_cell_angle_gamma                 90.000153
_cell_volume                      1412.26518185

loop_
_atom_site_label
_atom_site_type_symbol
_atom_type_description
_atom_site_fract_x
_atom_site_fract_y
_atom_site_fract_z
_atom_type_partial_charge
O1    O     O_R   0.648180 0.355050 0.151550 -0.526746
O2    O     O_R   0.351820 0.644950 0.848450 -0.526746
O3    O     O_R   0.851820 0.855050 0.348450 -0.526747
O4    O     O_R   0.148180 0.144950 0.651550 -0.526747
O5    O     O_R   0.835240 0.681980 0.154280 -0.532477
O6    O     O_R   0.164760 0.318020 0.845720 -0.532477
O7    O     O_R   0.664760 0.181980 0.345720 -0.532475
O8    O     O_R   0.335240 0.818020 0.654280 -0.532475
C1    C     C_R   0.864211 0.516169 0.133860 0.793359
C2    C     C_R   0.135789 0.483831 0.866140 0.793359
C3    C     C_R   0.635789 0.016169 0.366140 0.793358
C4    C     C_R   0.364211 0.983831 0.633860 0.793357
O9    O     O_R   0.647870 0.684600 0.139630 -0.528871
O10   O     O_R   0.352130 0.315400 0.860370 -0.528871
O11   O     O_R   0.852130 0.184600 0.360370 -0.528870
O12   O     O_R   0.147870 0.815400 0.639630 -0.528870
O13   O     O_R   0.663110 0.857440 0.333700 -0.537318
O14   O     O_R   0.336890 0.142560 0.666300 -0.537318
O15   O     O_R   0.836890 0.357440 0.166300 -0.537317
O16   O     O_R   0.163110 0.642560 0.833700 -0.537317
C5    C     C_R   0.615034 0.515982 0.113215 0.709200
C6    C     C_R   0.384966 0.484018 0.886785 0.709199
C7    C     C_R   0.884966 0.015983 0.386785 0.709199
C8    C     C_R   0.115034 0.984017 0.613215 0.709199
O17   O     O_3   0.755220 0.522230 0.313690 -0.373644
O18   O     O_3   0.244780 0.477770 0.686310 -0.373644
O19   O     O_3   0.744780 0.022230 0.186310 -0.373644
O20   O     O_3   0.255220 0.977770 0.813690 -0.373644
V1    V     V_3+5 0.749030 0.796100 0.238190 1.517032
V2    V     V_3+5 0.250970 0.203900 0.761810 1.517032
V3    V     V_3+5 0.750970 0.296100 0.261810 1.517035
V4    V     V_3+5 0.249030 0.703900 0.738190 1.517035
C9    C     C_1   0.966036 0.005354 0.466760 -0.146049
C10   C     C_1   0.033964 0.994646 0.533240 -0.146049
C11   C     C_1   0.533964 0.505353 0.033240 -0.146049
C12   C     C_1   0.466036 0.494647 0.966760 -0.146049
H1    H     H_    0.203437 0.097604 0.297482 0.140843
H2    H     H_    0.796563 0.902395 0.702518 0.140843
H3    H     H_    0.296565 0.597558 0.202520 0.140846
H4    H     H_    0.703435 0.402442 0.797480 0.140846
C13   C     C_R   0.565247 0.939731 0.711216 0.304441
C14   C     C_R   0.434753 0.060269 0.288784 0.304441
C15   C     C_R   0.934752 0.439750 0.788783 0.304442
C16   C     C_R   0.065248 0.560250 0.211217 0.304442
C17   C     C_R   0.661417 0.914924 0.745791 0.304618
C18   C     C_R   0.338583 0.085076 0.254209 0.304618
C19   C     C_R   0.838581 0.414956 0.754207 0.304617
C20   C     C_R   0.161419 0.585043 0.245793 0.304617
C21   C     C_R   0.722840 0.920733 0.677234 -0.215856
C22   C     C_R   0.277160 0.079267 0.322766 -0.215856
C23   C     C_R   0.777158 0.420768 0.822764 -0.215860
C24   C     C_R   0.222842 0.579232 0.177236 -0.215860
C25   C     C_R   0.690898 0.951196 0.575875 -0.179457
C26   C     C_R   0.309102 0.048804 0.424125 -0.179457
C27   C     C_R   0.809100 0.451219 0.924123 -0.179462
C28   C     C_R   0.190899 0.548781 0.075876 -0.179462
C29   C     C_R   0.595609 0.975660 0.537909 -0.021448
C30   C     C_R   0.404391 0.024340 0.462091 -0.021448
C31   C     C_R   0.904390 0.475670 0.962090 -0.021448
C32   C     C_R   0.095610 0.524330 0.037910 -0.021448
C33   C     C_R   0.530987 0.968898 0.605887 -0.021949
C34   C     C_R   0.469013 0.031101 0.394113 -0.021949
C35   C     C_R   0.969013 0.468908 0.894112 -0.021949
C36   C     C_R   0.030987 0.531092 0.105887 -0.021949
C37   C     C_R   0.565330 0.007325 0.433301 -0.119813
C38   C     C_R   0.434669 0.992675 0.566699 -0.119814
C39   C     C_R   0.934669 0.507326 0.066699 -0.119812
C40   C     C_R   0.065330 0.492673 0.933301 -0.119812
H5    H     H_    0.742734 0.955288 0.527596 0.121097
H6    H     H_    0.257266 0.044712 0.472403 0.121097
H7    H     H_    0.757265 0.455314 0.972402 0.121099
H8    H     H_    0.242735 0.544686 0.027598 0.121099
O21   O     O_3   0.693801 0.885820 0.847110 -0.657705
H9    H     H_    0.762146 0.871292 0.858338 0.293467
O22   O     O_3   0.306199 0.114180 0.152890 -0.657705
H10   H     H_    0.237854 0.128708 0.141662 0.293467
O23   O     O_3   0.806198 0.385858 0.652888 -0.657704
H11   H     H_    0.737853 0.371335 0.641661 0.293466
O24   O     O_3   0.193802 0.614142 0.347112 -0.657704
H12   H     H_    0.262147 0.628665 0.358339 0.293466
O25   O     O_3   0.504276 0.937618 0.779210 -0.651664
H13   H     H_    0.537254 0.915014 0.848515 0.328939
O26   O     O_3   0.495724 0.062382 0.220790 -0.651664
H14   H     H_    0.462746 0.084986 0.151485 0.328939
O27   O     O_3   0.995724 0.437633 0.720790 -0.651664
H15   H     H_    0.962746 0.415031 0.651484 0.328939
O28   O     O_3   0.004276 0.562367 0.279210 -0.651665
H16   H     H_    0.037254 0.584969 0.348516 0.328939

loop_
_geom_bond_atom_site_label_1
_geom_bond_atom_site_label_2
_ccdc_geom_bond_type
O17   V3    S    
O28   H16   S    
O1    C5    A    
C27   C31   A    
O19   V1    S    
O13   V1    S    
O21   H9    S    
O3    C7    A    
C11   C12   T    
C13   C33   A    
C25   H5    S    
O25   H13   S    
C15   C35   A    
H2    C21   S    
O23   H11   S    
C16   C36   A    
O7    C3    A    
C22   C26   A    
C20   O24   S    
O2    V4    S    
C26   C30   A    
O4    C8    A    
O1    V3    S    
C17   O21   S    
C14   C18   A    
O3    V1    S    
C31   C39   A    
C33   C38   A    
C30   C38   A    
C2    O16   A    
C7    C9    S    
O2    C6    A    
O14   V2    S    
C16   O28   S    
C14   C34   A    
O11   C7    A    
H3    C24   S    
O15   V3    S    
O12   C8    A    
O10   V2    S    
C18   O22   S    
C1    O15   A    
O5    V1    S    
O7    V3    S    
C15   O27   S    
C36   C39   A    
C25   C29   A    
O18   V4    S    
C19   C23   A    
C28   H8    S    
O27   H15   S    
C4    C38   S    
C8    C10   S    
C28   C32   A    
O8    V4    S    
O22   H10   S    
C1    C39   S    
O5    C1    A    
O26   H14   S    
C26   H6    S    
C17   C21   A    
O8    C4    A    
C13   O25   S    
C9    C10   T    
O9    C5    A    
C29   C33   A    
C30   C34   A    
O6    V2    S    
C19   O23   S    
O16   V4    S    
O9    V1    S    
C35   C40   A    
C3    O13   A    
C34   C37   A    
C3    C37   S    
C14   O26   S    
C29   C37   A    
O6    C2    A    
O11   V3    S    
C5    C11   S    
C2    C40   S    
O12   V4    S    
H4    C23   S    
C6    C12   S    
C18   C22   A    
C31   C35   A    
C32   C36   A    
O10   C6    A    
O20   V2    S    
H1    C22   S    
C21   C25   A    
C23   C27   A    
O4    V2    S    
O24   H12   S    
C24   C28   A    
C20   C24   A    
C32   C40   A    
C4    O14   A    
C13   C17   A    
C15   C19   A    
C27   H7    S    
C16   C20   A    
