data_mof_unit_15561.cif
_audit_creation_date              2012-12-11T17:01:33-0500
_audit_creation_method            fapswitch 2.2
_symmetry_space_group_name_H-M    P1
_symmetry_Int_Tables_number       1
_space_group_crystal_system       triclinic
_cell_length_a                    15.147202
_cell_length_b                    14.885402
_cell_length_c                    14.850476
_cell_angle_alpha                 109.591155
_cell_angle_beta                  109.201431
_cell_angle_gamma                 109.977282
_cell_volume                      2566.09412173

loop_
_atom_site_label
_atom_site_type_symbol
_atom_type_description
_atom_site_fract_x
_atom_site_fract_y
_atom_site_fract_z
_atom_type_partial_charge
C1    C     C_R   0.931103 0.744663 0.022820 -0.145708
C2    C     C_R   0.677270 0.220261 0.670656 0.005383
C3    C     C_R   0.064699 0.502511 0.697624 0.107946
C4    C     C_R   0.695237 0.499435 0.056188 0.011352
C5    C     C_R   0.069821 0.592829 0.313364 -0.148255
C6    C     C_R   0.213388 0.406057 0.918815 -0.220303
C7    C     C_R   0.301102 0.801683 0.209501 -0.136641
C8    C     C_R   0.907912 0.196506 0.997642 -0.184193
C9    C     C_R   0.000191 0.196661 0.907814 -0.119958
C10   C     C_R   0.212109 0.805773 0.301976 -0.148981
C11   C     C_R   0.972502 0.408434 0.223857 -0.132787
C12   C     C_R   0.780633 0.254738 0.685987 -0.189713
C13   C     C_R   0.303705 0.591141 0.004185 0.343602
C14   C     C_R   0.053201 0.501823 0.326656 0.091388
C15   C     C_R   0.311178 0.497731 0.959595 -0.026958
C16   C     C_R   0.306417 0.866678 0.304028 0.071746
C17   C     C_R   0.938563 0.132977 0.937751 0.082626
C18   C     C_3   0.498696 0.378434 0.982508 -0.404095
C19   C     C_3   0.392328 0.377709 0.949391 -0.407769
C20   C     C_3   0.602308 0.575444 0.136393 -0.498734
C21   C     C_3   0.566572 0.536239 0.943351 0.166888
C22   C     C_3   0.592585 0.496550 0.029744 0.367226
C23   C     C_R   0.094256 0.592866 0.792017 -0.148958
C24   C     C_3   0.412638 0.496981 0.983267 0.369559
C25   C     C_3   0.494373 0.572232 0.109717 -0.394887
C26   C     C_3   0.461159 0.539150 0.919382 -0.446522
C27   C     C_R   0.578751 0.120242 0.464194 0.147256
C28   C     C_R   0.579710 0.168403 0.563867 0.011300
C29   C     C_R   0.479169 0.148054 0.557370 -0.203522
C30   C     C_R   0.383609 0.052791 0.465705 -0.208109
C31   C     C_R   0.389768 0.983279 0.379501 0.048215
C32   C     C_R   0.484854 0.026325 0.374426 0.102539
C33   C     C_3   0.544320 0.973182 0.338705 -0.571780
C34   C     C_R   0.701444 0.408863 0.004370 -0.146757
C35   C     C_3   0.648196 0.077920 0.434278 0.075221
C36   C     C_R   0.148500 0.608298 0.530331 0.113637
C37   C     C_R   0.103932 0.508560 0.433537 -0.022754
C38   C     C_R   0.091314 0.414092 0.444053 0.307658
C39   C     C_R   0.087869 0.413671 0.537602 -0.259751
C40   C     C_R   0.104374 0.508325 0.621516 -0.021366
C41   C     C_R   0.149819 0.608128 0.623244 0.163611
C42   C     C_3   0.128171 0.701603 0.654115 -0.510990
C43   C     C_3   0.125514 0.701634 0.551967 -0.501872
C44   C     C_R   0.844172 0.872319 0.944964 0.165323
C45   C     C_R   0.004235 0.409561 0.698820 -0.147647
C46   C     C_R   0.900894 0.830184 0.903342 0.032922
C47   C     C_R   0.928861 0.862280 0.833155 -0.199836
C48   C     C_R   0.928215 0.955594 0.831742 -0.204960
C49   C     C_R   0.898383 0.015409 0.899569 0.027272
C50   C     C_R   0.842414 0.963447 0.942381 0.162152
C51   C     C_3   0.847816 0.008746 0.051692 -0.519375
C52   C     C_3   0.850644 0.909945 0.055391 -0.525789
C53   C     C_R   0.789620 0.591719 0.092092 -0.163067
C54   C     C_R   0.684607 0.237851 0.772552 0.177484
C55   C     C_R   0.026065 0.750253 0.934779 -0.126154
C56   C     C_R   0.948713 0.774454 0.948946 0.074096
H1    H     H_    0.872657 0.746336 0.047910 0.107953
H2    H     H_    0.185858 0.319366 0.870578 0.113067
H3    H     H_    0.349360 0.830144 0.175330 0.122678
H4    H     H_    0.846314 0.167892 0.018749 0.102027
H5    H     H_    0.024662 0.168695 0.848272 0.081839
H6    H     H_    0.182604 0.837500 0.354987 0.088018
H7    H     H_    0.936176 0.322897 0.202629 0.120093
H8    H     H_    0.514415 0.352535 0.045580 0.156796
H9    H     H_    0.490005 0.315705 0.908413 0.154105
H10   H     H_    0.337873 0.322273 0.858397 0.154428
H11   H     H_    0.805531 0.254658 0.626517 0.130057
H12   H     H_    0.352983 0.343037 0.990706 0.162569
H13   H     H_    0.623861 0.550650 0.199704 0.179772
H14   H     H_    0.460203 0.540152 0.155546 0.167100
H15   H     H_    0.633121 0.622623 0.981043 0.105514
H16   H     H_    0.400069 0.488681 0.829546 0.177236
H17   H     H_    0.482035 0.626071 0.946147 0.153009
H18   H     H_    0.667342 0.661870 0.172358 0.155773
H19   H     H_    0.510451 0.658267 0.139968 0.164899
H20   H     H_    0.475379 0.194734 0.628217 0.133977
H21   H     H_    0.156622 0.677272 0.827612 0.105458
H22   H     H_    0.309113 0.028193 0.468654 0.125214
H23   H     H_    0.530937 0.900052 0.349396 0.181915
H24   H     H_    0.531729 0.958532 0.255772 0.206672
H25   H     H_    0.696525 0.062734 0.495937 0.133658
H26   H     H_    0.064760 0.337692 0.540288 0.144578
H27   H     H_    0.048143 0.677183 0.649784 0.196963
H28   H     H_    0.198346 0.777767 0.731586 0.189058
H29   H     H_    0.043565 0.677073 0.489733 0.199642
H30   H     H_    0.651672 0.326625 0.985959 0.114306
H31   H     H_    0.193572 0.778470 0.570989 0.188156
H32   H     H_    0.964839 0.825950 0.791543 0.126393
H33   H     H_    0.963548 0.987309 0.788851 0.124451
H34   H     H_    0.924566 0.087853 0.117187 0.208742
H35   H     H_    0.772174 0.008294 0.044313 0.191589
H36   H     H_    0.929341 0.934480 0.123362 0.202462
H37   H     H_    0.777018 0.853014 0.051084 0.186487
H38   H     H_    0.981711 0.325538 0.646236 0.091232
H39   H     H_    0.815698 0.677209 0.144018 0.084409
H40   H     H_    0.058351 0.762050 0.882179 0.092500
H41   H     H_    0.129293 0.678278 0.374148 0.113926
N1    N     N_R   0.995640 0.706130 0.053910 -0.039503
N2    N     N_R   0.153680 0.443190 0.946090 -0.046141
N3    N     N_R   0.208920 0.706140 0.152110 -0.041189
N4    N     N_R   0.947120 0.293870 0.002870 -0.040212
N5    N     N_R   0.004360 0.293870 0.946090 -0.036079
N6    N     N_R   0.151690 0.706140 0.208890 -0.039244
N7    N     N_R   0.945990 0.443210 0.152110 -0.043745
N8    N     N_R   0.210060 0.556810 0.002870 -0.051603
N9    N     N_R   0.848310 0.293860 0.791110 -0.048930
N10   N     N_R   0.054010 0.556790 0.847890 -0.037931
N11   N     N_R   0.789940 0.443190 0.997130 -0.039151
N12   N     N_R   0.997630 0.443170 0.791110 -0.035626
N13   N     N_R   0.846320 0.556810 0.053910 -0.032844
N14   N     N_R   0.791080 0.293860 0.847890 -0.056730
N15   N     N_R   0.052880 0.706130 0.997130 -0.041083
N16   N     N_R   0.002370 0.556830 0.208890 -0.038593
Ni1   Ni    Ni4+2 0.999010 0.630300 0.130220 0.206590
Ni2   Ni    Ni4+2 0.000990 0.369700 0.869780 0.202978
Ni3   Ni    Ni4+2 0.130280 0.630280 0.000000 0.205997
Ni4   Ni    Ni4+2 0.869720 0.369720 0.000000 0.199080
C57   C     C_3   0.359105 0.696663 0.005066 -1.119281
H42   H     H_    0.441890 0.753510 0.077913 0.247711
H43   H     H_    0.361859 0.678490 0.927624 0.257047
H44   H     H_    0.310952 0.738295 0.005334 0.251974
C58   C     C_3   0.560247 0.467766 0.834503 -1.017116
H45   H     H_    0.543606 0.503004 0.780014 0.253838
H46   H     H_    0.638296 0.471040 0.849781 0.264655
H47   H     H_    0.494397 0.380154 0.789381 0.252166
C59   C     C_3   0.713007 0.143367 0.394756 -0.963648
H48   H     H_    0.659958 0.152886 0.330683 0.258163
H49   H     H_    0.779387 0.227259 0.463553 0.238528
H50   H     H_    0.749390 0.098774 0.358970 0.252147
C60   C     C_3   0.076244 0.312306 0.357640 -1.052224
H51   H     H_    0.991023 0.243711 0.313527 0.249394
H52   H     H_    0.098180 0.328204 0.298003 0.258238
H53   H     H_    0.130691 0.286389 0.397844 0.257504
C61   C     C_3   0.595710 0.166717 0.784984 -0.472705
C62   C     C_3   0.637499 0.129024 0.865988 -0.232962
C63   C     C_3   0.547121 0.061964 0.880696 -0.954846
H54   H     H_    0.514645 0.113005 0.914590 0.259095
H55   H     H_    0.480277 0.987011 0.800357 0.266946
H56   H     H_    0.579753 0.035541 0.939199 0.249574
H57   H     H_    0.669806 0.076784 0.833833 0.200018
H58   H     H_    0.704134 0.201297 0.947877 0.192391
H59   H     H_    0.553665 0.210506 0.807922 0.177107
H60   H     H_    0.534065 0.089848 0.704238 0.203317

loop_
_geom_bond_atom_site_label_1
_geom_bond_atom_site_label_2
_ccdc_geom_bond_type
C53   N13   A    
C21   C26   S    
N4    N5    A    
C55   N15   A    
C53   H39   S    
C26   H16   S    
C41   C42   S    
C6    H2    S    
N8    Ni3   S    
C3    C23   A    
N3    Ni3   S    
C55   C56   A    
C2    C12   A    
C13   C57   S    
C35   H25   S    
C62   C63   S    
C29   H20   S    
C16   C31   S    
C43   H31   S    
C59   H48   S    
C21   H15   S    
C9    H5    S    
C38   C60   S    
C28   C29   A    
C1    C56   A    
C24   C26   S    
N16   Ni1   S    
C11   H7    S    
C51   H34   S    
N2    Ni2   S    
C38   C39   A    
C4    C53   A    
C11   C14   A    
C45   N12   A    
N1    Ni1   S    
C20   C25   S    
C44   C50   A    
C54   C61   S    
C26   H17   S    
C19   H10   S    
C18   C19   S    
C34   H30   S    
C21   C58   S    
C57   H42   S    
N5    Ni2   S    
C51   H35   S    
C61   H60   S    
C31   C32   A    
C9    N5    A    
C11   N7    A    
C29   C30   A    
C8    N4    A    
N13   Ni1   S    
C44   C52   S    
C6    C15   A    
C21   C22   S    
N10   N12   A    
C36   C41   A    
C10   H6    S    
C63   H56   S    
C45   H38   S    
C7    H3    S    
C44   C46   A    
N9    N14   A    
C62   H57   S    
N2    N8    A    
C12   H11   S    
C4    C34   A    
N1    N15   A    
C7    N3    A    
C51   C52   S    
C43   H29   S    
C19   H12   S    
N6    Ni1   S    
C42   H28   S    
C24   C25   S    
C13   N8    A    
C2    C54   A    
C17   C49   S    
C39   C40   A    
C33   H23   S    
C59   H50   S    
C27   C35   S    
C3    C45   A    
N3    N6    A    
C32   C33   S    
C25   H19   S    
C57   H44   S    
C35   C59   S    
C60   H52   S    
C37   C38   A    
C1    H1    S    
C61   H59   S    
C4    C22   S    
C47   C48   A    
C23   N10   A    
C50   C51   S    
C20   H18   S    
C52   H37   S    
C23   H21   S    
C10   N6    A    
C5    C14   A    
C63   H55   S    
C40   C41   A    
C5    H41   S    
C3    C40   S    
C48   H33   S    
C13   C15   A    
C20   H13   S    
C52   H36   S    
C60   H53   S    
C42   C43   S    
C58   H46   S    
N15   Ni3   S    
N7    Ni4   S    
C9    C17   A    
C46   C47   A    
C15   C24   S    
C59   H49   S    
C5    N16   A    
C27   C32   A    
C18   C22   S    
N11   Ni4   S    
C7    C16   A    
C42   H27   S    
C39   H26   S    
C20   C22   S    
C55   H40   S    
C1    N1    A    
C33   H24   S    
C61   C62   S    
C8    C17   A    
N9    Ni2   S    
N14   Ni4   S    
N4    Ni4   S    
C6    N2    A    
C58   H47   S    
C60   H51   S    
C34   N11   A    
C10   C16   A    
C47   H32   S    
C14   C37   S    
C12   N9    A    
C18   H8    S    
C30   C31   A    
C48   C49   A    
C33   C35   S    
N11   N13   A    
C54   N14   A    
C19   C24   S    
C57   H43   S    
N10   Ni3   S    
N12   Ni2   S    
N7    N16   A    
C30   H22   S    
C62   H58   S    
C36   C37   A    
C49   C50   A    
C46   C56   S    
C27   C28   A    
C63   H54   S    
C36   C43   S    
C2    C28   S    
C25   H14   S    
C58   H45   S    
C18   H9    S    
C8    H4    S    
