data_mof_unit_45741.cif
_audit_creation_date              2012-12-10T17:07:52-0500
_audit_creation_method            fapswitch 2.2
_symmetry_space_group_name_H-M    P1
_symmetry_Int_Tables_number       1
_space_group_crystal_system       triclinic
_cell_length_a                    10.644639
_cell_length_b                    10.600226
_cell_length_c                    10.009943
_cell_angle_alpha                 90.972943
_cell_angle_beta                  90.078935
_cell_angle_gamma                 89.796467
_cell_volume                      1129.30676731

loop_
_atom_site_label
_atom_site_type_symbol
_atom_type_description
_atom_site_fract_x
_atom_site_fract_y
_atom_site_fract_z
_atom_type_partial_charge
C1    C     C_R   0.500350 0.262178 0.498655 0.929881
C2    C     C_2   0.584244 0.557830 0.076140 -0.136380
C3    C     C_R   0.257960 0.503721 0.499782 0.822179
C4    C     C_R   0.489001 0.737418 0.501078 0.913849
C5    C     C_R   0.742345 0.499303 0.500119 0.837400
C6    C     C_3   0.070607 0.610329 0.599406 -0.055061
C7    C     C_3   0.925697 0.607727 0.595905 -0.403029
C8    C     C_3   0.070653 0.530067 0.356595 -0.410385
C9    C     C_3   0.077143 0.374896 0.545119 -0.445396
C10   C     C_3   0.121763 0.506572 0.499702 0.121947
C11   C     C_3   0.121308 0.745153 0.573300 -0.413556
C12   C     C_3   0.878817 0.500384 0.501015 0.141276
C13   C     C_3   0.090746 0.837542 0.689067 -0.355334
C14   C     C_3   0.140589 0.969526 0.661977 -0.881832
C15   C     C_3   0.351260 0.869363 0.282136 -0.335794
C16   C     C_3   0.264444 0.952700 0.197988 -0.396536
C17   C     C_3   0.207165 0.877631 0.081567 -0.903454
C18   C     C_3   0.876136 0.297243 0.660400 -0.399928
C19   C     C_3   0.887607 0.363098 0.798378 -0.298092
C20   C     C_3   0.866809 0.269958 0.910899 -0.911767
C21   C     C_3   0.927702 0.531601 0.358358 -0.454773
C22   C     C_3   0.932785 0.367704 0.539112 -0.060565
C23   C     C_2   0.406776 0.933984 0.406387 0.135565
C24   C     C_2   0.459621 0.868978 0.506782 -0.420076
C25   C     C_2   0.407784 0.071707 0.420888 -0.165198
C26   C     C_2   0.497129 0.129102 0.493545 -0.361843
C27   C     C_2   0.579281 0.564491 0.926144 -0.143714
H1    H     H_    0.910334 0.303900 0.452587 0.122075
H2    H     H_    0.101063 0.584329 0.701936 0.151545
H3    H     H_    0.424298 0.462729 0.101309 0.158597
H4    H     H_    0.889601 0.598885 0.698867 0.148215
H5    H     H_    0.886765 0.698696 0.559789 0.157468
H6    H     H_    0.106238 0.620676 0.317211 0.168780
H7    H     H_    0.893291 0.626140 0.327438 0.179206
H8    H     H_    0.117755 0.299726 0.478766 0.142550
H9    H     H_    0.113170 0.355580 0.647004 0.182049
H10   H     H_    0.244653 0.967858 0.655882 0.275603
H11   H     H_    0.101281 0.005696 0.567023 0.253212
H12   H     H_    0.102849 0.453696 0.286707 0.185777
H13   H     H_    0.112678 0.034772 0.744827 0.242036
H14   H     H_    0.987584 0.844247 0.704149 0.217238
H15   H     H_    0.133831 0.802966 0.782888 0.223388
H16   H     H_    0.224813 0.741936 0.562037 0.201016
H17   H     H_    0.081322 0.781924 0.478903 0.207273
H18   H     H_    0.282322 0.838916 0.015561 0.267861
H19   H     H_    0.149433 0.798759 0.119305 0.252918
H20   H     H_    0.145918 0.940360 0.021874 0.252472
H21   H     H_    0.186970 0.990803 0.261447 0.217326
H22   H     H_    0.318703 0.032421 0.156533 0.228616
H23   H     H_    0.892945 0.461463 0.282912 0.182862
H24   H     H_    0.429496 0.835036 0.217506 0.220721
H25   H     H_    0.295237 0.786884 0.314337 0.198337
H26   H     H_    0.772786 0.225464 0.900937 0.269526
H27   H     H_    0.940451 0.195397 0.908526 0.255347
H28   H     H_    0.871701 0.320554 0.008864 0.245714
H29   H     H_    0.981172 0.406987 0.812449 0.205516
H30   H     H_    0.814880 0.437430 0.809180 0.237951
H31   H     H_    0.775633 0.275871 0.640595 0.197015
H32   H     H_    0.924134 0.203905 0.664613 0.201823
H33   H     H_    0.477919 0.913765 0.603228 0.149237
H34   H     H_    0.338414 0.128171 0.368974 0.142882
H35   H     H_    0.571902 0.080347 0.545485 0.130187
H36   H     H_    0.647195 0.624372 0.877558 0.148912
H37   H     H_    0.441989 0.438748 0.896703 0.162348
H38   H     H_    0.661224 0.605522 0.126765 0.155646
N1    N     N_2   0.501360 0.501330 0.852150 -0.189804
N2    N     N_2   0.501390 0.501360 0.147810 -0.192392
O1    O     O_R   0.499980 0.319060 0.613040 -0.610982
O2    O     O_R   0.500020 0.319100 0.386900 -0.600359
O3    O     O_R   0.314770 0.499960 0.613070 -0.627738
O4    O     O_R   0.314820 0.500000 0.386930 -0.633453
O5    O     O_R   0.499980 0.680900 0.613100 -0.608746
O6    O     O_R   0.500020 0.680940 0.386960 -0.613575
O7    O     O_R   0.685180 0.500000 0.613070 -0.624893
O8    O     O_R   0.685230 0.500040 0.386930 -0.623743
Zn1   Zn    Zn3+2 0.499970 0.499970 0.650990 0.920880
Zn2   Zn    Zn3+2 0.500030 0.500030 0.349010 0.916174

loop_
_geom_bond_atom_site_label_1
_geom_bond_atom_site_label_2
_ccdc_geom_bond_type
C19   H29   S    
C6    C10   S    
C9    H9    S    
C3    O4    A    
C23   C24   D    
C3    O3    A    
C5    O8    A    
C6    C7    S    
C7    H5    S    
C8    H12   S    
C15   H24   S    
O1    Zn1   S    
O8    Zn2   S    
C9    C10   S    
O2    Zn2   S    
H3    N2    S    
N2    Zn2   S    
C4    O5    A    
O5    Zn1   S    
C2    H38   S    
N1    Zn1   S    
C16   H21   S    
C15   C23   S    
C8    C21   S    
C26   H35   S    
C17   H19   S    
C11   H17   S    
C3    C10   S    
C25   H34   S    
C15   H25   S    
C19   H30   S    
C14   H10   S    
C11   H16   S    
C11   C13   S    
C4    O6    A    
C2    C27   S    
O7    Zn1   S    
C20   H28   S    
C20   H26   S    
C13   H14   S    
C13   H15   S    
C25   C26   D    
C17   H18   S    
C2    N2    D    
C8    H6    S    
C23   C25   S    
O3    Zn1   S    
C1    C26   S    
C4    C24   S    
C9    H8    S    
C7    C12   S    
C14   H11   S    
C1    O1    A    
C14   H13   S    
C15   C16   S    
C12   C22   S    
C18   H32   S    
O4    Zn2   S    
C6    H2    S    
C7    H4    S    
C16   H22   S    
C5    C12   S    
C20   H27   S    
C18   C19   S    
C6    C11   S    
C27   N1    D    
O6    Zn2   S    
C9    C22   S    
C21   H23   S    
C24   H33   S    
C22   H1    S    
C21   H7    S    
C27   H36   S    
C13   C14   S    
C5    O7    A    
C18   C22   S    
C12   C21   S    
C18   H31   S    
C8    C10   S    
C1    O2    A    
C19   C20   S    
C17   H20   S    
C16   C17   S    
H37   N1    S    
