data_mof_unit_47148.cif
_audit_creation_date              2013-03-05T15:48:53-0500
_audit_creation_method            fapswitch 2.2
_symmetry_space_group_name_H-M    P1
_symmetry_Int_Tables_number       1
_space_group_crystal_system       triclinic
_cell_length_a                    17.692257
_cell_length_b                    24.33741
_cell_length_c                    15.080959
_cell_angle_alpha                 90.282725
_cell_angle_beta                  125.537368
_cell_angle_gamma                 89.448149
_cell_volume                      5283.84568382

loop_
_atom_site_label
_atom_site_type_symbol
_atom_site_description
_atom_site_fract_x
_atom_site_fract_y
_atom_site_fract_z
_atom_type_partial_charge
C1    C     C_R   0.908103 0.867435 0.090429 -0.138665
C2    C     C_R   0.943644 0.152355 0.091898 -0.118145
C3    C     C_R   0.408308 0.367235 0.090419 -0.103544
C4    C     C_R   0.442942 0.652322 0.091830 -0.122493
H1    H     H_    0.939185 0.853079 0.172228 0.102699
H2    H     H_    0.986462 0.165152 0.176108 0.114479
H3    H     H_    0.439479 0.352835 0.172216 0.103074
H4    H     H_    0.484642 0.664921 0.176135 0.114724
N1    N     N_R   0.950530 0.896220 0.057200 -0.045766
N2    N     N_R   0.950530 0.103780 0.057200 -0.046112
N3    N     N_R   0.450530 0.396220 0.057200 -0.041068
N4    N     N_R   0.450530 0.603780 0.057200 -0.046124
C5    C     C_R   0.853248 0.152870 0.910790 -0.130059
C6    C     C_R   0.814633 0.871676 0.907371 -0.106485
C7    C     C_R   0.353641 0.652992 0.910752 -0.136132
C8    C     C_R   0.314808 0.371478 0.907322 -0.091870
H5    H     H_    0.813160 0.167257 0.828651 0.173779
H6    H     H_    0.758935 0.865629 0.823266 0.159092
H7    H     H_    0.316227 0.667774 0.828971 0.175226
H8    H     H_    0.259212 0.365347 0.823197 0.157828
N5    N     N_R   0.893330 0.103780 0.942800 -0.045755
N6    N     N_R   0.893330 0.896220 0.942800 -0.032304
N7    N     N_R   0.393330 0.603780 0.942800 -0.046101
N8    N     N_R   0.393330 0.396220 0.942800 -0.030015
C9    C     C_R   0.746167 0.953711 0.697134 0.250951
C10   C     C_R   0.747327 0.045336 0.694354 0.275752
C11   C     C_R   0.245963 0.453748 0.697252 0.249830
C12   C     C_R   0.247028 0.545403 0.694687 0.279757
N9    N     N_R   0.818150 0.971400 0.792440 -0.105077
N10   N     N_R   0.818150 0.028600 0.792440 -0.118266
N11   N     N_R   0.318150 0.471400 0.792440 -0.107171
N12   N     N_R   0.318150 0.528600 0.792440 -0.118623
C13   C     C_R   0.987426 0.047058 0.255427 -0.107830
C14   C     C_R   0.994137 0.954829 0.263502 -0.111328
C15   C     C_R   0.487429 0.547031 0.255448 -0.110043
C16   C     C_R   0.494000 0.454804 0.263339 -0.118089
H9    H     H_    0.982332 0.089858 0.270182 0.100745
H10   H     H_    0.002731 0.913933 0.294991 0.095908
H11   H     H_    0.482470 0.589810 0.270397 0.096013
H12   H     H_    0.502490 0.413887 0.294691 0.099795
N13   N     N_R   0.025710 0.028600 0.207560 -0.038781
N14   N     N_R   0.025710 0.971400 0.207560 -0.036858
N15   N     N_R   0.525710 0.528600 0.207560 -0.037367
N16   N     N_R   0.525710 0.471400 0.207560 -0.036589
C17   C     C_R   0.822407 0.852677 0.998143 -0.000950
C18   C     C_R   0.884163 0.184239 0.001768 0.009958
C19   C     C_R   0.322703 0.352397 0.998099 -0.016481
C20   C     C_R   0.384056 0.684407 0.001646 0.018041
C21   C     C_R   0.697947 0.999418 0.634167 -0.186053
C22   C     C_R   0.197523 0.499504 0.634551 -0.195784
C23   C     C_R   0.965017 0.001282 0.289529 -0.005868
C24   C     C_R   0.464926 0.501248 0.289435 -0.014353
C25   C     C_R   0.263428 0.954515 0.292966 -0.104355
C26   C     C_R   0.262139 0.046912 0.289604 -0.068280
C27   C     C_R   0.763031 0.454555 0.293757 -0.139401
C28   C     C_R   0.761763 0.546902 0.290384 -0.081455
H13   H     H_    0.282013 0.912374 0.318815 0.148471
H14   H     H_    0.277728 0.089819 0.310525 0.114318
H15   H     H_    0.781441 0.412432 0.319812 0.161731
H16   H     H_    0.777195 0.589814 0.311415 0.116067
N17   N     N_R   0.181850 0.971400 0.207560 -0.050648
N18   N     N_R   0.181850 0.028600 0.207560 -0.054443
N19   N     N_R   0.681850 0.471400 0.207560 -0.058836
N20   N     N_R   0.681850 0.528600 0.207560 -0.056785
C29   C     C_R   0.960601 0.046742 0.702140 -0.067701
C30   C     C_R   0.957505 0.954800 0.698857 -0.104800
C31   C     C_R   0.460605 0.546709 0.702128 -0.074483
C32   C     C_R   0.457916 0.454732 0.699122 -0.114730
H17   H     H_    0.953434 0.089660 0.680714 0.124102
H18   H     H_    0.946850 0.912600 0.672253 0.141077
H19   H     H_    0.453251 0.589615 0.680564 0.123793
H20   H     H_    0.447643 0.412491 0.672797 0.142806
N21   N     N_R   0.974290 0.028600 0.792440 -0.054052
N22   N     N_R   0.974290 0.971400 0.792440 -0.038689
N23   N     N_R   0.474290 0.528600 0.792440 -0.056362
N24   N     N_R   0.474290 0.471400 0.792440 -0.043618
C33   C     C_R   0.097306 0.875326 0.907849 -0.107558
C34   C     C_R   0.058404 0.151216 0.908461 -0.133539
C35   C     C_R   0.597216 0.374555 0.908333 -0.089594
C36   C     C_R   0.558284 0.651269 0.908471 -0.139442
H21   H     H_    0.068449 0.867120 0.823604 0.099426
H22   H     H_    0.015520 0.164002 0.824124 0.113406
H23   H     H_    0.568428 0.365521 0.824316 0.099179
H24   H     H_    0.515388 0.664054 0.824133 0.113139
N25   N     N_R   0.049470 0.896220 0.942800 -0.035370
N26   N     N_R   0.049470 0.103780 0.942800 -0.042401
N27   N     N_R   0.549470 0.396220 0.942800 -0.027326
N28   N     N_R   0.549470 0.603780 0.942800 -0.044733
C37   C     C_R   0.151610 0.150727 0.091049 -0.106479
C38   C     C_R   0.188507 0.874954 0.090874 -0.132526
C39   C     C_R   0.651432 0.650797 0.091036 -0.112352
C40   C     C_R   0.688391 0.375024 0.091484 -0.038999
H25   H     H_    0.198509 0.162018 0.175605 0.160584
H26   H     H_    0.243020 0.865229 0.174212 0.098850
H27   H     H_    0.698271 0.662114 0.175594 0.160777
H28   H     H_    0.741966 0.365603 0.175143 0.114331
N29   N     N_R   0.106670 0.103780 0.057200 -0.051290
N30   N     N_R   0.106670 0.896220 0.057200 -0.052258
N31   N     N_R   0.606670 0.603780 0.057200 -0.053694
N32   N     N_R   0.606670 0.396220 0.057200 -0.043590
Ni1   Ni    Ni4+2 0.065600 0.934400 0.131190 0.239160
Ni2   Ni    Ni4+2 0.065600 0.065600 0.131190 0.238197
Ni3   Ni    Ni4+2 0.565600 0.434400 0.131190 0.265585
Ni4   Ni    Ni4+2 0.565600 0.565600 0.131190 0.229428
Ni5   Ni    Ni4+2 0.934400 0.065600 0.868810 0.252816
Ni6   Ni    Ni4+2 0.934400 0.934400 0.868810 0.294452
Ni7   Ni    Ni4+2 0.434400 0.565600 0.868810 0.243230
Ni8   Ni    Ni4+2 0.434400 0.434400 0.868810 0.301477
C41   C     C_R   0.316060 0.001030 0.342189 0.102261
C42   C     C_R   0.815533 0.501044 0.343422 0.105167
C43   C     C_R   0.946762 0.001222 0.640213 -0.001561
C44   C     C_R   0.447093 0.501148 0.640411 -0.001215
C45   C     C_R   0.185489 0.862038 0.999197 0.094410
C46   C     C_R   0.122730 0.181308 0.999513 0.010070
C47   C     C_R   0.685074 0.360920 0.000209 -0.048818
C48   C     C_R   0.622473 0.681421 0.999509 0.012225
C49   C     C_3   0.906266 0.056045 0.378372 -0.414298
C50   C     C_3   0.892044 0.953341 0.366835 -0.387798
C51   C     C_3   0.406192 0.555941 0.378361 -0.435367
C52   C     C_3   0.392221 0.453232 0.367000 -0.396066
H29   H     H_    0.948539 0.092334 0.389293 0.170695
H30   H     H_    0.918758 0.913172 0.360397 0.162900
H31   H     H_    0.448226 0.592287 0.388938 0.166050
H32   H     H_    0.419114 0.413080 0.360787 0.164137
H33   H     H_    0.836407 0.061263 0.300158 0.181653
H34   H     H_    0.820012 0.958264 0.291975 0.177599
H35   H     H_    0.336206 0.561031 0.300278 0.167364
H36   H     H_    0.320192 0.458036 0.292086 0.168238
C53   C     C_3   0.897790 0.054890 0.473820 -0.323117
C54   C     C_3   0.890761 0.951659 0.467614 -0.354525
C55   C     C_3   0.398089 0.554843 0.474085 -0.334611
C56   C     C_3   0.390877 0.451622 0.467739 -0.360219
H37   H     H_    0.823284 0.056485 0.442448 0.209705
H38   H     H_    0.817805 0.952011 0.442312 0.185741
H39   H     H_    0.323674 0.556564 0.443063 0.201996
H40   H     H_    0.317916 0.452081 0.442397 0.176402
H41   H     H_    0.931576 0.092442 0.523077 0.164007
H42   H     H_    0.923732 0.912382 0.511095 0.166785
H43   H     H_    0.432156 0.592348 0.523359 0.160092
H44   H     H_    0.423684 0.412324 0.511197 0.167600
H45   H     H_    0.096598 0.031033 0.491510 0.188257
H46   H     H_    0.085484 0.957651 0.486739 0.179198
H47   H     H_    0.596517 0.531138 0.491396 0.186126
H48   H     H_    0.585700 0.457739 0.486588 0.179065
H49   H     H_    0.085225 0.035413 0.632772 0.176575
H50   H     H_    0.081986 0.961664 0.633184 0.171696
H51   H     H_    0.585549 0.535205 0.632973 0.171876
H52   H     H_    0.582087 0.461463 0.632963 0.168105
C57   C     C_3   0.051822 0.996996 0.484695 -0.336136
C58   C     C_3   0.551904 0.497009 0.484621 -0.332585
C59   C     C_3   0.952993 0.002008 0.377126 0.328300
C60   C     C_3   0.453014 0.501948 0.377123 0.351656
C61   C     C_3   0.944369 0.001695 0.542157 0.307911
C62   C     C_3   0.444614 0.501620 0.542310 0.329579
C63   C     C_3   0.046839 0.998855 0.581815 -0.401537
C64   C     C_3   0.547033 0.498726 0.581827 -0.415756
C65   C     C_3   0.807280 0.272957 0.905577 -0.380852
C66   C     C_3   0.678496 0.798021 0.879056 -0.373411
C67   C     C_3   0.257934 0.715276 0.007672 -0.376673
C68   C     C_3   0.178795 0.297809 0.879023 -0.371037
H53   H     H_    0.870120 0.288231 0.913691 0.174418
H54   H     H_    0.700436 0.785370 0.826070 0.191987
H55   H     H_    0.212233 0.685855 0.940596 0.180823
H56   H     H_    0.200691 0.285089 0.826026 0.195357
H57   H     H_    0.763595 0.251568 0.825955 0.180549
H58   H     H_    0.633802 0.835410 0.842972 0.186924
H59   H     H_    0.286875 0.693411 0.086153 0.162142
H60   H     H_    0.134189 0.335233 0.842942 0.185687
C69   C     C_3   0.199923 0.764052 0.999178 -0.465031
C70   C     C_3   0.122962 0.251115 0.880430 -0.447500
C71   C     C_3   0.750572 0.321724 0.904579 -0.449005
C72   C     C_3   0.622765 0.751230 0.880412 -0.449037
H61   H     H_    0.681061 0.321761 0.825216 0.164686
H62   H     H_    0.550728 0.765590 0.845989 0.180458
H63   H     H_    0.193329 0.762308 0.068228 0.170324
H64   H     H_    0.051026 0.265583 0.846254 0.180632
H65   H     H_    0.128536 0.760538 0.922588 0.196259
H66   H     H_    0.118608 0.218124 0.826238 0.188830
H67   H     H_    0.784569 0.361091 0.910115 0.189410
H68   H     H_    0.618676 0.718217 0.826414 0.185913
H69   H     H_    0.245115 0.744668 0.822411 0.187483
H70   H     H_    0.354020 0.246019 0.995849 0.188806
H71   H     H_    0.962730 0.279497 0.121548 0.194363
H72   H     H_    0.853640 0.746264 0.995924 0.165940
H73   H     H_    0.174331 0.820582 0.821277 0.154967
H74   H     H_    0.265581 0.176876 0.985750 0.173827
H75   H     H_    0.879331 0.354988 0.110342 0.161383
H76   H     H_    0.765563 0.677060 0.986339 0.163186
C73   C     C_3   0.296382 0.769138 0.895646 -0.403463
C74   C     C_3   0.326149 0.256947 0.043626 -0.336770
C75   C     C_3   0.897281 0.266413 0.109571 -0.349068
C76   C     C_3   0.825829 0.757224 0.043747 -0.367796
C77   C     C_3   0.748574 0.212756 0.989982 -0.489290
C78   C     C_3   0.730260 0.826551 0.066948 -0.480358
C79   C     C_3   0.403869 0.772715 0.099804 -0.440195
C80   C     C_3   0.230685 0.326329 0.066950 -0.493496
C81   C     C_3   0.836283 0.233641 0.001721 0.290031
C82   C     C_3   0.764632 0.809867 0.996659 0.302677
C83   C     C_3   0.337556 0.734803 0.001351 0.285331
C84   C     C_3   0.264980 0.309605 0.996610 0.290912
H77   H     H_    0.768677 0.183620 0.057256 0.204249
H78   H     H_    0.790199 0.837334 0.150888 0.195102
H79   H     H_    0.457931 0.788968 0.091193 0.217296
H80   H     H_    0.290625 0.337205 0.150829 0.194642
H81   H     H_    0.704006 0.189266 0.912623 0.161507
H82   H     H_    0.685881 0.864119 0.032343 0.160014
H83   H     H_    0.440596 0.749942 0.178170 0.163160
H84   H     H_    0.186197 0.363851 0.032243 0.153246
C85   C     C_3   0.244835 0.818828 0.000162 0.200588
C86   C     C_3   0.171063 0.229535 0.998951 0.186902
C87   C     C_3   0.742452 0.316413 0.001521 0.205476
C88   C     C_3   0.670725 0.729724 0.998953 0.191721
C89   C     C_3   0.245787 0.820354 0.897584 -0.357158
C90   C     C_3   0.269942 0.209473 0.040693 -0.360204
C91   C     C_3   0.843676 0.316853 0.107345 -0.367878
C92   C     C_3   0.769713 0.709753 0.040998 -0.357953
C93   C     C_3   0.347753 0.820026 0.105419 0.227356
C94   C     C_3   0.174005 0.278776 0.068730 0.259856
C95   C     C_3   0.692571 0.261084 0.989042 0.256686
C96   C     C_3   0.673384 0.779012 0.068465 0.254954
H85   H     H_    0.624230 0.261412 0.907523 0.079656
H86   H     H_    0.600556 0.793905 0.028100 0.069375
H87   H     H_    0.347101 0.811546 0.177393 0.061140
H88   H     H_    0.101218 0.293656 0.028718 0.059719
H89   H     H_    0.352502 0.781558 0.887524 0.172758
H90   H     H_    0.386609 0.263219 0.129584 0.187017
H91   H     H_    0.916205 0.240660 0.180528 0.183976
H92   H     H_    0.886322 0.763530 0.129672 0.179545
H93   H     H_    0.280187 0.857991 0.896547 0.214593
H94   H     H_    0.307084 0.190740 0.123137 0.197007
H95   H     H_    0.846823 0.316378 0.182779 0.202197
H96   H     H_    0.806820 0.691170 0.123565 0.191798
C97   C     C_3   0.459763 0.970827 0.371823 -0.373396
C98   C     C_3   0.453307 0.061150 0.446286 -0.464328
C99   C     C_3   0.959166 0.471230 0.372408 -0.449768
C100  C     C_3   0.952719 0.561183 0.448004 -0.470438
H97   H     H_    0.433859 0.928215 0.346972 0.223532
H98   H     H_    0.424581 0.086630 0.481728 0.223036
H99   H     H_    0.933257 0.428651 0.346822 0.203084
H100  H     H_    0.924065 0.586397 0.483846 0.220672
H101  H     H_    0.439149 0.992203 0.295519 0.201858
H102  H     H_    0.432820 0.081481 0.369108 0.187351
H103  H     H_    0.938512 0.492997 0.296444 0.171696
H104  H     H_    0.932097 0.581806 0.371021 0.182621
C101  C     C_3   0.565559 0.970008 0.450360 -0.257937
C102  C     C_3   0.558353 0.060850 0.523371 -0.322502
C103  C     C_3   0.064958 0.470371 0.450808 -0.286352
C104  C     C_3   0.057773 0.560911 0.524787 -0.327892
H105  H     H_    0.595741 0.990136 0.411508 0.170669
H106  H     H_    0.585888 0.081134 0.481825 0.232952
H107  H     H_    0.095081 0.490694 0.412062 0.156648
H108  H     H_    0.085063 0.581437 0.483186 0.229353
H109  H     H_    0.589778 0.927001 0.465084 0.245327
H110  H     H_    0.578417 0.085238 0.596552 0.198062
H111  H     H_    0.089164 0.427363 0.465169 0.234924
H112  H     H_    0.077999 0.585068 0.598273 0.195875
H113  H     H_    0.581680 0.934393 0.646103 0.226899
H114  H     H_    0.576099 0.001318 0.685119 0.175952
H115  H     H_    0.081620 0.434071 0.646547 0.227141
H116  H     H_    0.075946 0.500837 0.686126 0.172195
C105  C     C_3   0.445633 0.973540 0.534521 0.566167
C106  C     C_3   0.945419 0.473152 0.535458 0.561434
C107  C     C_3   0.416258 0.001197 0.423803 0.066914
C108  C     C_3   0.915769 0.501194 0.424944 0.121657
C109  C     C_3   0.596016 0.000945 0.555668 0.236907
C110  C     C_3   0.095558 0.501004 0.556427 0.274034
C111  C     C_3   0.553136 0.975734 0.612198 -0.539049
C112  C     C_3   0.052941 0.475436 0.612982 -0.544826
N33   N     N_R   0.395225 0.872779 0.125200 0.234762
O1    O     O_R   0.353158 0.915364 0.062838 -0.419212
O2    O     O_R   0.479461 0.878443 0.212411 -0.380965
N34   N     N_R   0.211459 0.263946 0.181540 0.227035
O3    O     O_R   0.299090 0.251945 0.251553 -0.424204
O4    O     O_R   0.158248 0.267099 0.214870 -0.423865
N35   N     N_R   0.674525 0.253570 0.071904 0.240993
O5    O     O_R   0.742219 0.245541 0.173850 -0.403243
O6    O     O_R   0.589333 0.251967 0.042448 -0.386847
N36   N     N_R   0.710401 0.764229 0.181165 0.228886
O7    O     O_R   0.797989 0.752260 0.251563 -0.427770
O8    O     O_R   0.656821 0.767372 0.213991 -0.396905
N37   N     N_R   0.743151 0.899485 0.657097 0.222657
O9    O     O_R   0.669455 0.869517 0.615882 -0.403017
O10   O     O_R   0.820672 0.874849 0.689299 -0.427454
N38   N     N_R   0.753601 0.093159 0.643914 0.222719
O11   O     O_R   0.765449 0.086822 0.567066 -0.443364
O12   O     O_R   0.720487 0.139789 0.649856 -0.455077
N39   N     N_R   0.242916 0.399602 0.656899 0.221031
O13   O     O_R   0.169257 0.369593 0.615599 -0.406829
O14   O     O_R   0.320416 0.375050 0.688752 -0.422353
N40   N     N_R   0.252819 0.593421 0.644340 0.222660
O15   O     O_R   0.265009 0.587434 0.567705 -0.452359
O16   O     O_R   0.219313 0.639854 0.650459 -0.461299
N41   N     N_R   0.415546 0.915610 0.518609 0.206613
O17   O     O_R   0.455675 0.877537 0.498210 -0.403614
O18   O     O_R   0.351485 0.901042 0.530875 -0.361272
N42   N     N_R   0.407284 0.003407 0.586400 0.232187
O19   O     O_R   0.436894 0.990701 0.685550 -0.360533
O20   O     O_R   0.332887 0.033917 0.529805 -0.413471
N43   N     N_R   0.915531 0.415168 0.519054 0.209690
O21   O     O_R   0.955554 0.377381 0.497914 -0.395998
O22   O     O_R   0.851803 0.400242 0.531643 -0.352983
N44   N     N_R   0.907119 0.502634 0.587765 0.229381
O23   O     O_R   0.936920 0.489626 0.686851 -0.375676
O24   O     O_R   0.832643 0.533115 0.531564 -0.417392

loop_
_geom_bond_atom_site_label_1
_geom_bond_atom_site_label_2
_geom_bond_distance
_ccdc_geom_bond_type
N23   N24   1.392100 A    
N23   Ni7   1.886224 S    
C99   C108  1.561962 S    
C27   H15   1.077135 S    
C14   N14   1.319844 A    
C35   N27   1.326991 A    
C70   H64   1.113573 S    
C71   H61   1.110791 S    
N4    N7    1.403939 A    
C70   H66   1.113586 S    
N38   O11   1.300344 A    
N4    Ni4   1.893733 S    
C79   H79   1.113723 S    
C77   H77   1.114175 S    
N21   N22   1.392100 A    
C99   C103  1.525970 S    
C97   H97   1.109789 S    
C103  C110  1.542611 S    
C36   C48   1.380865 A    
N34   O3    1.302011 A    
N39   O14   1.299708 A    
C76   C82   1.551261 S    
C4    N4    1.326191 A    
C102  C109  1.554933 S    
C11   C22   1.385146 A    
C54   H38   1.113109 S    
C33   C45   1.390207 A    
C6    C17   1.375799 A    
N2    N5    1.403939 A    
C9    N9    1.322757 A    
C20   C83   1.468841 S    
C11   N11   1.322741 A    
C12   N12   1.327967 A    
C88   C96   1.572074 S    
C101  H109  1.100687 S    
C85   C89   1.557462 S    
N15   N16   1.392100 A    
C58   C60   1.550599 S    
C34   H22   1.080623 S    
C32   H20   1.078504 S    
N7    Ni7   1.885677 S    
C95   N35   1.471099 S    
C5    N5    1.324644 A    
C99   H103  1.114543 S    
C53   H37   1.112292 S    
N42   O19   1.302591 A    
C21   C109  1.473911 S    
N33   O2    1.301342 A    
C16   N16   1.319777 A    
C13   C23   1.383461 A    
C9    N37   1.437042 S    
C54   H42   1.111200 S    
C89   H93   1.109784 S    
C25   C41   1.381352 A    
C106  N44   1.484143 S    
C101  C109  1.542934 S    
C51   H31   1.111011 S    
C85   C93   1.573755 S    
C17   C82   1.457578 S    
C36   N28   1.315798 A    
C86   C90   1.549661 S    
C65   C71   1.541152 S    
C97   C101  1.526150 S    
C30   H18   1.078448 S    
C66   C82   1.553230 S    
C67   H59   1.114747 S    
C68   H60   1.113676 S    
C57   C63   1.518044 S    
N28   N31   1.403939 A    
C3    N3    1.324873 A    
C31   C44   1.374503 A    
C53   H41   1.109967 S    
H70   C74   1.114279 S    
C104  H108  1.111816 S    
C93   H87   1.112521 S    
C105  N41   1.480304 S    
C100  C104  1.514403 S    
H113  C111  1.106308 S    
C66   C72   1.521433 S    
C14   C23   1.384588 A    
N41   O17   1.302198 A    
H46   C57   1.113772 S    
C57   C59   1.550587 S    
N22   Ni6   1.898103 S    
C30   N22   1.323908 A    
C40   H28   1.072982 S    
N13   Ni2   1.898104 S    
C50   H30   1.109986 S    
N26   N29   1.403939 A    
N15   Ni4   1.898104 S    
H48   C58   1.113755 S    
H115  C112  1.106253 S    
C25   N17   1.320506 A    
C27   N19   1.320719 A    
C51   C55   1.531772 S    
C28   N20   1.308151 A    
H116  C112  1.113916 S    
C15   N15   1.319484 A    
C10   N38   1.433530 S    
C16   C24   1.384495 A    
C97   C107  1.561418 S    
C73   C83   1.556173 S    
C33   N25   1.326768 A    
C44   C62   1.454508 S    
C71   H67   1.112936 S    
C7    C20   1.375948 A    
C8    C19   1.375539 A    
C69   H65   1.114399 S    
N16   Ni3   1.886225 S    
C72   H62   1.113567 S    
C79   C83   1.553933 S    
N44   O24   1.301543 A    
C77   H81   1.114603 S    
C65   H57   1.110374 S    
C94   N34   1.467873 S    
C80   H84   1.113269 S    
N17   Ni1   1.907686 S    
N9    N10   1.392100 A    
C109  C111  1.563576 S    
N21   Ni5   1.886224 S    
N11   N12   1.392100 A    
C70   C86   1.557985 S    
C56   H40   1.112987 S    
C49   C59   1.552504 S    
C43   C61   1.454677 S    
C73   C89   1.537651 S    
C98   H102  1.114778 S    
C10   N10   1.328734 A    
N10   Ni5   1.907688 S    
N42   O20   1.301466 A    
C31   N23   1.314692 A    
N25   Ni6   1.893735 S    
N14   Ni1   1.886225 S    
C79   C93   1.547063 S    
N27   N32   1.403939 A    
C51   C60   1.552439 S    
N20   Ni4   1.894304 S    
C101  H105  1.113559 S    
C74   H90   1.112314 S    
C55   C62   1.556300 S    
C103  H107  1.113577 S    
N37   O10   1.299690 A    
C87   C95   1.566777 S    
C5    H5    1.066907 S    
C6    N6    1.314901 A    
N38   O12   1.298584 A    
C45   C85   1.472964 S    
C53   C61   1.556466 S    
C1    C17   1.384677 A    
C78   C82   1.548785 S    
C3    C19   1.384562 A    
H73   C89   1.109641 S    
C67   H55   1.114869 S    
C37   H25   1.077518 S    
N17   N18   1.392100 A    
N9    Ni6   1.894305 S    
C55   H43   1.109913 S    
C39   H27   1.077612 S    
N19   N20   1.392100 A    
N34   O4    1.301211 A    
N36   O7    1.302004 A    
C39   N31   1.318651 A    
C49   H33   1.112999 S    
N18   Ni2   1.894304 S    
C51   H35   1.112965 S    
N13   N14   1.392100 A    
N35   O5    1.301647 A    
C36   H24   1.080643 S    
H76   C92   1.114570 S    
C74   C84   1.551310 S    
C7    H7    1.067458 S    
C1    H1    1.076215 S    
C68   H56   1.113500 S    
C3    H3    1.076281 S    
C4    C20   1.375711 A    
C65   C81   1.555799 S    
C78   H78   1.112424 S    
C77   C95   1.525368 S    
N40   O15   1.300359 A    
C98   H98   1.111286 S    
C75   C91   1.532475 S    
H69   C73   1.112012 S    
H50   C63   1.114520 S    
N12   Ni7   1.907688 S    
H72   C76   1.114237 S    
N8    Ni8   1.897962 S    
C30   C43   1.380250 A    
C61   C63   1.544908 S    
C62   C64   1.544711 S    
N29   Ni2   1.897959 S    
C80   C84   1.548632 S    
C72   H68   1.113602 S    
C67   C83   1.545568 S    
N31   Ni4   1.897959 S    
C23   C59   1.455034 S    
N24   Ni8   1.898103 S    
C52   C56   1.533871 S    
N33   O1    1.301410 A    
C34   C46   1.380789 A    
C38   H26   1.074819 S    
C1    N1    1.325225 A    
N19   Ni3   1.907686 S    
C10   C21   1.386707 A    
N28   Ni7   1.907522 S    
C25   H13   1.077228 S    
C18   C81   1.463849 S    
C78   C96   1.549564 S    
C102  H110  1.112883 S    
N32   Ni3   1.885677 S    
C2    C18   1.374413 A    
C28   H16   1.080446 S    
C15   H11   1.077672 S    
N43   O21   1.302198 A    
C50   C54   1.533896 S    
N39   O13   1.299990 A    
N2    Ni2   1.893733 S    
C24   C60   1.455051 S    
C35   C47   1.391780 A    
C69   H63   1.114267 S    
H51   C64   1.114164 S    
C100  C108  1.558516 S    
C32   N24   1.323535 A    
C90   H94   1.111575 S    
C65   H53   1.112925 S    
C66   H58   1.113656 S    
C13   H9    1.077899 S    
C37   C46   1.379686 A    
C67   C69   1.517938 S    
C99   H99   1.110153 S    
C80   C94   1.549090 S    
C52   H36   1.113029 S    
C94   H88   1.115106 S    
C47   C87   1.469664 S    
C56   H44   1.111055 S    
N30   Ni1   1.885677 S    
C26   N18   1.308038 A    
C13   N13   1.319472 A    
C102  H106  1.111791 S    
C48   C88   1.462387 S    
C98   C102  1.514536 S    
C35   H23   1.078146 S    
C100  H104  1.114773 S    
C29   H17   1.079172 S    
C31   H19   1.079175 S    
C40   C47   1.384868 A    
C9    C21   1.384706 A    
C79   H83   1.110381 S    
C15   C24   1.383531 A    
H52   C64   1.114398 S    
N5    Ni5   1.885677 S    
C103  H111  1.100764 S    
C87   C91   1.559515 S    
C22   C110  1.473862 S    
N11   Ni8   1.894305 S    
C6    H6    1.072155 S    
C4    H4    1.079305 S    
C96   H86   1.115128 S    
H45   C57   1.114218 S    
C68   C84   1.553150 S    
C39   C48   1.379836 A    
C91   H95   1.106301 S    
N35   O6    1.301245 A    
C105  C111  1.550458 S    
C55   H39   1.112242 S    
C106  C112  1.550718 S    
C5    C18   1.374711 A    
C77   C81   1.546833 S    
N1    N6    1.403939 A    
C104  C110  1.554841 S    
N3    N8    1.403939 A    
C29   N21   1.314763 A    
C38   C45   1.386871 A    
C49   H29   1.111110 S    
C29   C43   1.374283 A    
N25   N30   1.403939 A    
C12   C22   1.386692 A    
H47   C58   1.114193 S    
N27   Ni8   1.893735 S    
C88   C92   1.549586 S    
C33   H21   1.077100 S    
C41   C107  1.456432 S    
C42   C108  1.456719 S    
C8    H8    1.072214 S    
C34   N26   1.315506 A    
C7    N7    1.325200 A    
C8    N8    1.314412 A    
C58   C64   1.518036 S    
C2    H2    1.079802 S    
H114  C111  1.113935 S    
C28   C42   1.376301 A    
C78   H82   1.113250 S    
H75   C91   1.113122 S    
C52   C60   1.554921 S    
C16   H12   1.075634 S    
C105  C107  1.583274 S    
C106  C108  1.583239 S    
N37   O9    1.300007 A    
N6    Ni6   1.897962 S    
C11   N39   1.437043 S    
C100  H100  1.111309 S    
C26   C41   1.376468 A    
C37   N29   1.318378 A    
C95   H85   1.115944 S    
C71   C87   1.555980 S    
C80   H80   1.112440 S    
C56   C62   1.554071 S    
C69   C85   1.554114 S    
N43   O22   1.302556 A    
C97   H101  1.114555 S    
C98   C107  1.558442 S    
C106  N43   1.480262 S    
C74   C90   1.515343 S    
C27   C42   1.380971 A    
C96   N36   1.467857 S    
N36   O8    1.301260 A    
C19   C84   1.456593 S    
N26   Ni5   1.907522 S    
C2    N2    1.323439 A    
C49   C53   1.531887 S    
C40   N32   1.320276 A    
C26   H14   1.080372 S    
N44   O23   1.302595 A    
C75   H91   1.111814 S    
C14   H10   1.075689 S    
C73   H89   1.113439 S    
C75   C81   1.552274 S    
C72   C88   1.557940 S    
H71   C75   1.112752 S    
C104  H112  1.112878 S    
C86   C94   1.572060 S    
C46   C86   1.461768 S    
C12   N40   1.433251 S    
N41   O18   1.302529 A    
C93   N33   1.472563 S    
H74   C90   1.114562 S    
C92   H96   1.111572 S    
C76   C92   1.515248 S    
C54   C61   1.554214 S    
N40   O16   1.298712 A    
C50   C59   1.554978 S    
C110  C112  1.563650 S    
C66   H54   1.113467 S    
H49   C63   1.114271 S    
C76   H92   1.112298 S    
N1    Ni1   1.907523 S    
C105  N42   1.484191 S    
C68   C70   1.521141 S    
N3    Ni3   1.907523 S    
C50   H34   1.113063 S    
C38   N30   1.324966 A    
C32   C44   1.380351 A    
C52   H32   1.109966 S    
