data_mof_unit_30156.cif
_audit_creation_date              2012-12-11T15:45:03-0500
_audit_creation_method            fapswitch 2.2
_symmetry_space_group_name_H-M    P1
_symmetry_Int_Tables_number       1
_space_group_crystal_system       triclinic
_cell_length_a                    6.933649
_cell_length_b                    16.793681
_cell_length_c                    17.078558
_cell_angle_alpha                 100.291149
_cell_angle_beta                  89.417354
_cell_angle_gamma                 90.753086
_cell_volume                      1956.42974053

loop_
_atom_site_label
_atom_site_type_symbol
_atom_type_description
_atom_site_fract_x
_atom_site_fract_y
_atom_site_fract_z
_atom_type_partial_charge
O1    O     O_R   0.494370 0.415690 0.413450 -0.535526
O2    O     O_R   0.819420 0.429360 0.578420 -0.546697
O3    O     O_R   0.994280 0.584310 0.586550 -0.550998
C1    C     C_R   0.650633 0.413254 0.604803 0.721768
O4    O     O_R   0.823790 0.406230 0.413570 -0.499028
O5    O     O_R   0.998670 0.561000 0.420530 -0.535403
C2    C     C_R   0.654978 0.382732 0.385171 0.776321
O6    O     O_R   0.489970 0.439000 0.579470 -0.546392
O7    O     O_3   0.662300 0.550810 0.502470 -0.374906
V1    V     V_3+5 0.935380 0.490570 0.499540 1.498284
O8    O     O_R   0.328650 0.570640 0.421580 -0.510884
C3    C     C_R   0.162514 0.586074 0.394485 0.768118
O9    O     O_R   0.324290 0.593770 0.586430 -0.548974
C4    C     C_R   0.156065 0.617936 0.614316 0.667214
V2    V     V_3+5 0.435930 0.509430 0.500460 1.481934
O10   O     O_3   0.159140 0.449190 0.497530 -0.362177
C5    C     C_R   0.305488 0.742846 0.702872 0.288939
C6    C     C_R   0.289720 0.805577 0.768732 -0.169674
H1    H     H_    0.411395 0.846579 0.783200 0.136257
C7    C     C_R   0.120541 0.816569 0.814986 -0.110261
C8    C     C_R   0.963990 0.763621 0.793681 -0.138523
H2    H     H_    0.831134 0.770559 0.828001 0.135003
C9    C     C_R   0.978227 0.699907 0.728752 -0.177325
H3    H     H_    0.855907 0.659181 0.715579 0.128056
C10   C     C_R   0.148217 0.687684 0.682381 -0.105907
C11   C     C_R   0.167800 0.638378 0.332414 -0.196903
C12   C     C_R   0.096706 0.862655 0.168290 -0.115386
C13   C     C_R   0.915211 0.817739 0.277993 0.316616
C14   C     C_R   0.940330 0.870088 0.222195 -0.196301
C15   C     C_R   0.232709 0.802410 0.171000 -0.218665
C16   C     C_R   0.210086 0.748577 0.225139 0.018564
C17   C     C_R   0.049990 0.755003 0.278401 0.081200
C18   C     C_R   0.028851 0.698229 0.330585 -0.292399
C19   C     C_R   0.325610 0.633568 0.279023 0.631885
C20   C     C_R   0.345342 0.687589 0.225996 -0.197745
H4    H     H_    0.907964 0.701150 0.371506 0.166483
H5    H     H_    0.468308 0.682005 0.185767 0.155299
H6    H     H_    0.838617 0.917972 0.220380 0.128150
H7    H     H_    0.352947 0.795828 0.129337 0.131836
C21   C     C_R   0.650615 0.361198 0.666921 -0.202047
C22   C     C_R   0.611927 0.133876 0.829672 -0.087803
C23   C     C_R   0.433808 0.171915 0.719756 -0.093735
C24   C     C_R   0.461442 0.120357 0.774144 -0.168171
C25   C     C_R   0.738524 0.199488 0.828533 -0.152522
C26   C     C_R   0.709915 0.252983 0.774480 -0.026810
C27   C     C_R   0.555378 0.239485 0.719465 0.054888
C28   C     C_R   0.525022 0.293619 0.665584 0.233627
C29   C     C_R   0.801079 0.373594 0.722692 -0.285011
C30   C     C_R   0.830740 0.320654 0.775602 0.623820
H8    H     H_    0.899866 0.424414 0.724316 0.162072
H9    H     H_    0.314048 0.159261 0.679052 0.152794
H10   H     H_    0.361248 0.070249 0.774003 0.116084
H11   H     H_    0.852745 0.210903 0.872099 0.176184
C31   C     C_R   0.808789 0.267898 0.289360 0.615621
C32   C     C_R   0.796719 0.204543 0.223984 -0.222394
H12   H     H_    0.925777 0.170619 0.204823 0.143733
C33   C     C_R   0.620996 0.184608 0.184382 -0.143966
C34   C     C_R   0.456807 0.229705 0.212070 -0.130001
H13   H     H_    0.318934 0.216142 0.183180 0.153998
C35   C     C_R   0.468685 0.293547 0.277069 -0.170798
H14   H     H_    0.339741 0.327572 0.295891 0.213547
C36   C     C_R   0.644553 0.313811 0.316674 -0.189741
O11   O     O_R   0.774880 0.061150 0.920630 -0.538722
O12   O     O_R   0.440980 0.093710 0.086500 -0.542751
O13   O     O_R   0.266190 0.938890 0.079390 -0.539654
C37   C     C_R   0.609853 0.116665 0.115287 0.724097
O14   O     O_R   0.445420 0.070740 0.921670 -0.535981
O15   O     O_R   0.270660 0.915760 0.913380 -0.543840
C38   C     C_R   0.613674 0.085358 0.894227 0.707596
O16   O     O_R   0.770400 0.084270 0.086640 -0.542099
O17   O     O_3   0.602590 0.949210 0.997500 -0.372169
V3    V     V_3+5 0.329470 0.009420 0.000470 1.423947
O18   O     O_R   0.940650 0.906250 0.913470 -0.542756
C39   C     C_R   0.109501 0.883611 0.884603 0.701892
O19   O     O_R   0.936210 0.929220 0.078300 -0.542341
C40   C     C_R   0.102391 0.913793 0.105353 0.713419
V4    V     V_3+5 0.828930 0.990510 0.999490 1.415280
O20   O     O_3   0.105680 0.050790 0.002500 -0.365573
N1    N     N_2   0.481182 0.738277 0.658683 -0.529993
H15   H     H_    0.553284 0.684356 0.652982 0.266847
C41   C     C_3   0.476628 0.773395 0.587344 -0.511203
H16   H     H_    0.623063 0.771459 0.560170 0.188628
H17   H     H_    0.431465 0.837613 0.602095 0.190283
H18   H     H_    0.375231 0.739178 0.543397 0.180740
N2    N     N_2   0.372481 0.277935 0.609434 -0.522926
H19   H     H_    0.288364 0.327141 0.605542 0.282396
C42   C     C_3   0.427671 0.231781 0.532877 -0.524970
H20   H     H_    0.532030 0.266792 0.502248 0.178606
H21   H     H_    0.297813 0.218047 0.495124 0.213453
H22   H     H_    0.493517 0.173653 0.540314 0.193643
F1    F     F_    0.979731 0.335403 0.827401 -0.679071
F2    F     F_    0.981420 0.283220 0.326033 -0.710797
F3    F     F_    0.461743 0.575914 0.277683 -0.679314
N3    N     N_2   0.758106 0.827393 0.334087 -0.521846
H23   H     H_    0.797734 0.828579 0.392317 0.243541
C43   C     C_3   0.602051 0.881616 0.325764 -0.552902
H24   H     H_    0.483021 0.872460 0.367360 0.200486
H25   H     H_    0.544480 0.868560 0.264402 0.212004
H26   H     H_    0.652745 0.945522 0.340470 0.186829

loop_
_geom_bond_atom_site_label_1
_geom_bond_atom_site_label_2
_ccdc_geom_bond_type
C21   C28   A    
C32   H12   S    
C12   C14   A    
O18   C39   A    
C19   F3    S    
C33   C37   S    
C1    O6    A    
C41   H16   S    
V4    O20   S    
O13   C40   A    
C28   N2    S    
C13   N3    S    
C13   C14   A    
C20   H5    S    
O14   V3    S    
O5    C3    A    
C15   C16   A    
C24   H10   S    
O15   C39   A    
V2    O10   S    
C43   H26   S    
C5    N1    S    
C18   H4    S    
C35   C36   A    
C19   C20   A    
C23   C27   A    
V3    O20   S    
C31   C32   A    
O8    V2    S    
C25   H11   S    
C11   C19   A    
O11   C38   A    
C43   H25   S    
C14   H6    S    
C9    H3    S    
O1    V2    S    
O7    V1    S    
C23   H9    S    
C29   H8    S    
O9    C4    A    
C12   C15   A    
C22   C24   A    
C30   F1    S    
C41   H17   S    
N2    C42   S    
C1    C21   S    
C13   C17   A    
O4    C2    A    
C6    H1    S    
C31   C36   A    
C34   H13   S    
N2    H19   S    
C3    C11   S    
C35   H14   S    
O14   C38   A    
O12   C37   A    
O2    C1    A    
O19   C40   A    
C2    C36   S    
C31   F2    S    
C11   C18   A    
C16   C17   A    
C26   C30   A    
O15   V3    S    
C43   H24   S    
C5    C6    A    
C7    C39   S    
C32   C33   A    
N3    C43   S    
O19   V4    S    
O3    C4    A    
C29   C30   A    
O6    V2    S    
O9    V2    S    
C22   C25   A    
C16   C20   A    
C23   C24   A    
C12   C40   S    
O2    V1    S    
O17   V4    S    
C41   H18   S    
C25   C26   A    
N1    C41   S    
O11   V4    S    
C21   C29   A    
C27   C28   A    
O1    C2    A    
O5    V1    S    
O8    C3    A    
O13   V3    S    
C5    C10   A    
C17   C18   A    
C8    C9    A    
O7    V2    S    
O4    V1    S    
O3    V1    S    
V1    O10   S    
C33   C34   A    
C37   O16   A    
C15   H7    S    
C6    C7    A    
O12   V3    S    
C4    C10   S    
N3    H23   S    
N1    H15   S    
C26   C27   A    
O17   V3    S    
C9    C10   A    
C7    C8    A    
C42   H20   S    
C42   H22   S    
C42   H21   S    
O18   V4    S    
C8    H2    S    
C22   C38   S    
C34   C35   A    
O16   V4    S    
