data_mof_unit_7341.cif
_audit_creation_date              2012-12-10T18:25:29-0500
_audit_creation_method            fapswitch 2.2
_symmetry_space_group_name_H-M    P1
_symmetry_Int_Tables_number       1
_space_group_crystal_system       triclinic
_cell_length_a                    14.886148
_cell_length_b                    14.168186
_cell_length_c                    19.174061
_cell_angle_alpha                 89.989656
_cell_angle_beta                  88.592323
_cell_angle_gamma                 90.139445
_cell_volume                      4042.7631768

loop_
_atom_site_label
_atom_site_type_symbol
_atom_type_description
_atom_site_fract_x
_atom_site_fract_y
_atom_site_fract_z
_atom_type_partial_charge
C1    C     C_R   0.327219 0.499874 0.503863 0.956765
C2    C     C_R   0.672728 0.500138 0.495796 0.974260
C3    C     C_R   0.809016 0.515124 0.557186 -0.272773
C4    C     C_R   0.191088 0.513543 0.441978 -0.249344
C5    C     C_R   0.901344 0.517047 0.560205 0.123024
C6    C     C_R   0.098741 0.515938 0.438897 0.140955
C7    C     C_R   0.953180 0.513847 0.497858 0.032530
C8    C     C_R   0.046828 0.513499 0.501238 0.037058
C9    C     C_R   0.911629 0.507836 0.432292 -0.011633
C10   C     C_R   0.088272 0.507522 0.566830 -0.010669
C11   C     C_R   0.942390 0.521923 0.624723 -0.172818
C12   C     C_R   0.057738 0.520822 0.374364 -0.181077
C13   C     C_R   0.035104 0.516491 0.628150 -0.059675
C14   C     C_R   0.964937 0.516139 0.370952 -0.069581
C15   C     C_R   0.569447 0.801398 0.468635 0.507821
C16   C     C_R   0.420905 0.198022 0.493350 0.497372
C17   C     C_R   0.430624 0.800834 0.531535 0.432504
C18   C     C_R   0.578984 0.198652 0.507351 0.504045
C19   C     C_R   0.421245 0.898781 0.516129 -0.220936
C20   C     C_R   0.580529 0.100189 0.490540 -0.224862
C21   C     C_R   0.578786 0.899306 0.484372 -0.241560
C22   C     C_R   0.419635 0.099655 0.510457 -0.227532
C23   C     C_R   0.500021 0.949602 0.500267 -0.056024
C24   C     C_R   0.500061 0.049622 0.500378 -0.054451
C25   C     C_R   0.339037 0.948359 0.523672 0.385930
C26   C     C_R   0.660430 0.049303 0.473017 0.377112
C27   C     C_R   0.661181 0.949228 0.477868 0.398124
C28   C     C_R   0.340001 0.048373 0.528887 0.382003
C29   C     C_R   0.497366 0.499769 0.365829 0.912142
C30   C     C_R   0.501921 0.499668 0.634298 0.913219
C31   C     C_R   0.446285 0.571840 0.256447 -0.202288
C32   C     C_R   0.467430 0.418251 0.745366 -0.066813
C33   C     C_R   0.538013 0.572707 0.747544 -0.116374
C34   C     C_R   0.520262 0.419360 0.252928 -0.072415
C35   C     C_R   0.440080 0.570380 0.184397 -0.141586
C36   C     C_R   0.462574 0.417364 0.817507 -0.148802
C37   C     C_R   0.532090 0.572520 0.819883 -0.122512
C38   C     C_R   0.512739 0.417062 0.181144 -0.153473
C39   C     C_R   0.474208 0.493386 0.146514 0.076576
C40   C     C_R   0.493176 0.495303 0.855004 0.066050
C41   C     C_R   0.489135 0.497879 0.290648 -0.014878
C42   C     C_R   0.502435 0.497310 0.710012 -0.012686
C43   C     C_R   0.485421 0.495141 0.930591 0.302385
C44   C     C_R   0.473537 0.494088 0.070892 0.296147
C45   C     C_R   0.818401 0.492736 0.430380 0.416629
C46   C     C_R   0.181291 0.491889 0.568821 0.406367
C47   C     C_R   0.768340 0.501250 0.493588 -0.130401
C48   C     C_R   0.231572 0.500203 0.505705 -0.120226
H1    H     H_    0.416597 0.629937 0.285360 0.200774
H2    H     H_    0.442453 0.357615 0.717430 0.208569
H3    H     H_    0.571654 0.630711 0.721173 0.189640
H4    H     H_    0.551301 0.360239 0.278709 0.207945
H5    H     H_    0.064193 0.520560 0.679124 0.219285
H6    H     H_    0.935936 0.520230 0.319959 0.217999
N1    N     N_R   0.475910 0.411815 0.034965 -0.153868
N2    N     N_R   0.482474 0.577494 0.966473 -0.145549
N3    N     N_R   0.481285 0.412343 0.965859 -0.154298
N4    N     N_R   0.476497 0.576970 0.035630 -0.149268
N5    N     N_R   0.500000 0.750030 0.500000 -0.211434
N6    N     N_R   0.500000 0.249970 0.500000 -0.213314
O1    O     O_R   0.367850 0.580280 0.500020 -0.593623
O2    O     O_R   0.632150 0.419720 0.499980 -0.535696
O3    O     O_R   0.632150 0.580280 0.499980 -0.598870
O4    O     O_R   0.367850 0.419720 0.500020 -0.544035
O5    O     O_R   0.499990 0.580300 0.398140 -0.569289
O6    O     O_R   0.500010 0.419700 0.601860 -0.580419
O7    O     O_R   0.500010 0.580300 0.601860 -0.569012
O8    O     O_R   0.499990 0.419700 0.398140 -0.569449
Zn1   Zn    Zn3+2 0.500000 0.607200 0.500000 1.107955
Zn2   Zn    Zn3+2 0.500000 0.392800 0.500000 1.139382
H7    H     H_    0.408317 0.628912 0.158383 0.169427
H8    H     H_    0.433295 0.356574 0.843815 0.170612
H9    H     H_    0.558896 0.631916 0.848290 0.166645
H10   H     H_    0.539343 0.356890 0.152646 0.169129
S1    S     S_3+6 0.768004 0.454801 0.351419 0.043548
O9    O     O_2   0.681138 0.403883 0.365412 -0.295755
O10   O     O_2   0.751460 0.538973 0.305870 -0.281299
O11   O     O_3   0.837495 0.379893 0.308682 -0.527640
H11   H     H_    0.806827 0.364831 0.264773 0.391562
S2    S     S_3+6 0.231036 0.452853 0.647636 0.042276
O12   O     O_2   0.316924 0.400841 0.633175 -0.299749
O13   O     O_2   0.249171 0.536421 0.693452 -0.262366
O14   O     O_3   0.160393 0.378603 0.690237 -0.532661
H12   H     H_    0.191173 0.362361 0.733844 0.396006
H13   H     H_    0.768249 0.520594 0.604799 0.158898
H14   H     H_    0.231981 0.518705 0.394396 0.140200
H15   H     H_    0.902661 0.527215 0.672705 0.164239
H16   H     H_    0.097534 0.525607 0.326373 0.159566
S3    S     S_3+6 0.616264 0.765286 0.386600 0.115960
O15   O     O_2   0.669412 0.843802 0.352618 -0.226540
O16   O     O_2   0.676118 0.681158 0.393440 -0.225309
O17   O     O_3   0.531714 0.740178 0.333477 -0.564773
H17   H     H_    0.560482 0.733517 0.286598 0.388731
S4    S     S_3+6 0.332970 0.235338 0.437617 0.104150
O18   O     O_2   0.294233 0.150385 0.402084 -0.234667
O19   O     O_2   0.258591 0.282583 0.478706 -0.234839
O20   O     O_3   0.370868 0.308385 0.374746 -0.555510
H18   H     H_    0.316247 0.334641 0.353605 0.364889
S5    S     S_3+6 0.386688 0.765030 0.614503 0.124657
O21   O     O_2   0.331737 0.841406 0.649054 -0.226566
O22   O     O_2   0.329584 0.678279 0.609486 -0.185128
O23   O     O_3   0.473452 0.743997 0.666223 -0.547620
H19   H     H_    0.509202 0.803072 0.665294 0.346201
S6    S     S_3+6 0.664236 0.236228 0.565417 0.094147
O24   O     O_2   0.626954 0.302545 0.619565 -0.309968
O25   O     O_2   0.700147 0.151371 0.602658 -0.266308
O26   O     O_3   0.750610 0.288580 0.522473 -0.468821
H20   H     H_    0.796748 0.298729 0.558086 0.382661
S7    S     S_3+6 0.235615 0.888766 0.507873 0.127499
O27   O     O_2   0.252666 0.792940 0.476639 -0.302443
O28   O     O_2   0.180733 0.877540 0.574166 -0.169541
O29   O     O_3   0.176709 0.952714 0.451073 -0.463455
H21   H     H_    0.118683 0.918986 0.447170 0.392767
S8    S     S_3+6 0.750045 0.106021 0.426190 0.141796
O30   O     O_2   0.720200 0.199618 0.398184 -0.229891
O31   O     O_2   0.828721 0.120233 0.472706 -0.182055
O32   O     O_3   0.782104 0.038337 0.358090 -0.467237
H22   H     H_    0.834716 0.071308 0.336767 0.395902
S9    S     S_3+6 0.763984 0.889700 0.495186 0.121314
O33   O     O_2   0.817134 0.947984 0.545103 -0.213474
O34   O     O_2   0.745268 0.795077 0.528052 -0.312831
O35   O     O_3   0.826089 0.873742 0.421765 -0.427068
H23   H     H_    0.880158 0.839303 0.436709 0.382357
S10   S     S_3+6 0.251697 0.104520 0.577447 0.144828
O36   O     O_2   0.223444 0.042938 0.637938 -0.212284
O37   O     O_2   0.283200 0.197386 0.605900 -0.247190
O38   O     O_3   0.162679 0.122105 0.526788 -0.414304
H24   H     H_    0.118342 0.155821 0.556948 0.400267

loop_
_geom_bond_atom_site_label_1
_geom_bond_atom_site_label_2
_ccdc_geom_bond_type
C9    C45   A    
C3    H13   S    
C19   C23   A    
C9    C14   A    
S6    O25   D    
O20   H18   S    
C7    C8    A    
C25   C28   A    
C26   C27   A    
C33   C42   A    
C32   C36   A    
C5    C11   A    
C37   C40   A    
S7    O28   D    
C6    C12   A    
C38   C39   A    
C4    H14   S    
C4    C48   A    
O2    Zn2   S    
C16   N6    A    
C20   C24   A    
S6    O24   D    
C34   H4    S    
C40   C43   S    
O14   H12   S    
C44   N4    A    
C10   C46   A    
O26   H20   S    
O4    Zn2   S    
S3    O16   D    
C18   C20   A    
C30   O7    A    
C25   S7    S    
C45   C47   A    
C21   C27   A    
C35   H7    S    
C14   H6    S    
C22   C28   A    
S4    O18   D    
C34   C41   A    
C31   H1    S    
S2    O14   S    
O29   H21   S    
S8    O30   D    
C13   H5    S    
S9    O34   D    
C46   C48   A    
C12   H16   S    
O3    Zn1   S    
C36   C40   A    
C4    C6    A    
S7    O29   S    
C11   H15   S    
C5    C7    A    
O11   H11   S    
C6    C8    A    
S4    O20   S    
C33   C37   A    
O7    Zn1   S    
C35   C39   A    
S1    O9    D    
C26   S8    S    
C15   S3    S    
C29   O8    A    
S1    O10   D    
S5    O21   D    
N6    Zn2   S    
C23   C24   A    
C18   S6    S    
S3    O17   S    
S4    O19   D    
C17   S5    S    
C32   H2    S    
C30   O6    A    
N5    Zn1   S    
S10   O38   S    
C29   O5    A    
C18   N6    A    
S5    O22   D    
C17   N5    A    
N1    N3    A    
C22   C24   A    
O38   H24   S    
C1    O4    A    
C2    O3    A    
S10   O37   D    
C38   H10   S    
S9    O35   S    
O1    Zn1   S    
C7    C9    A    
C37   H9    S    
C16   C22   A    
C31   C41   A    
C29   C41   S    
C34   C38   A    
C15   N5    A    
C12   C14   A    
S2    O12   D    
C3    C5    A    
C10   C13   A    
C1    O1    A    
S8    O31   D    
S9    O33   D    
C28   S10   S    
C1    C48   S    
C39   C44   S    
C27   S9    S    
C2    C47   S    
C33   H3    S    
C16   S4    S    
C45   S1    S    
C21   C23   A    
S3    O15   D    
O32   H22   S    
C46   S2    S    
C11   C13   A    
C44   N1    A    
O6    Zn2   S    
C20   C26   A    
O5    Zn1   S    
C3    C47   A    
O17   H17   S    
C17   C19   A    
S2    O13   D    
N2    N4    A    
C31   C35   A    
O23   H19   S    
C19   C25   A    
S1    O11   S    
S8    O32   S    
C43   N3    A    
C36   H8    S    
C43   N2    A    
C15   C21   A    
S5    O23   S    
C8    C10   A    
O8    Zn2   S    
C32   C42   A    
C30   C42   S    
O35   H23   S    
S7    O27   D    
S6    O26   S    
C2    O2    A    
S10   O36   D    
