data_mof_unit_65206.cif
_audit_creation_date              2013-03-05T16:14:38-0500
_audit_creation_method            fapswitch 2.2
_symmetry_space_group_name_H-M    P1
_symmetry_Int_Tables_number       1
_space_group_crystal_system       triclinic
_cell_length_a                    30.26835
_cell_length_b                    30.267374
_cell_length_c                    55.724832
_cell_angle_alpha                 90.000403
_cell_angle_beta                  89.953486
_cell_angle_gamma                 90.025618
_cell_volume                      51051.919016

loop_
_atom_site_label
_atom_site_type_symbol
_atom_site_description
_atom_site_fract_x
_atom_site_fract_y
_atom_site_fract_z
_atom_type_partial_charge
O1    O     O_R   0.536950 0.934530 0.500010 -0.585534
O2    O     O_R   0.065470 0.536950 0.500010 -0.585342
O3    O     O_R   0.463050 0.065470 0.500010 -0.585533
O4    O     O_R   0.934530 0.463050 0.500010 -0.585404
O5    O     O_R   0.536950 0.065470 0.499990 -0.585388
O6    O     O_R   0.065470 0.463050 0.499990 -0.585516
O7    O     O_R   0.463050 0.934530 0.499990 -0.585386
O8    O     O_R   0.934530 0.536950 0.499990 -0.585497
O9    O     O_R   0.036950 0.434530 0.000010 -0.582520
O10   O     O_R   0.565470 0.036950 0.000010 -0.585405
O11   O     O_R   0.963050 0.565470 0.000010 -0.583622
O12   O     O_R   0.434530 0.963050 0.000010 -0.585408
O13   O     O_R   0.036950 0.565470 0.999990 -0.583486
O14   O     O_R   0.565470 0.963050 0.999990 -0.585552
O15   O     O_R   0.963050 0.434530 0.999990 -0.582414
O16   O     O_R   0.434530 0.036950 0.999990 -0.585591
C1    C     C_R   0.499989 0.913934 0.499990 1.046850
C2    C     C_R   0.086067 0.500010 0.500015 1.046644
C3    C     C_R   0.500011 0.086066 0.499990 1.046824
C4    C     C_R   0.913933 0.499989 0.500006 1.046879
C5    C     C_R   0.999989 0.413939 0.999997 1.037892
C6    C     C_R   0.586067 0.000011 0.000014 1.046710
C7    C     C_R   0.000011 0.586065 0.999991 1.050831
C8    C     C_R   0.413933 0.999989 0.000007 1.046939
O17   O     O_R   0.536950 0.999980 0.535630 -0.604080
O18   O     O_R   0.000020 0.536950 0.535630 -0.605064
O19   O     O_R   0.463050 0.000020 0.535630 -0.604129
O20   O     O_R   0.999980 0.463050 0.535630 -0.605337
O21   O     O_R   0.536950 0.000020 0.464370 -0.605264
O22   O     O_R   0.000020 0.463050 0.464370 -0.603868
O23   O     O_R   0.463050 0.999980 0.464370 -0.605203
O24   O     O_R   0.999980 0.536950 0.464370 -0.604275
O25   O     O_R   0.036950 0.499980 0.035630 -0.614487
O26   O     O_R   0.500020 0.036950 0.035630 -0.605121
O27   O     O_R   0.963050 0.500020 0.035630 -0.603543
O28   O     O_R   0.499980 0.963050 0.035630 -0.605419
O29   O     O_R   0.036950 0.500020 0.964370 -0.603792
O30   O     O_R   0.500020 0.963050 0.964370 -0.603962
O31   O     O_R   0.963050 0.499980 0.964370 -0.615748
O32   O     O_R   0.499980 0.036950 0.964370 -0.604314
C9    C     C_R   0.499983 1.000000 0.547055 1.005878
C10   C     C_R   0.999990 0.500001 0.547059 1.005095
C11   C     C_R   0.500017 0.000000 0.452940 1.005026
C12   C     C_R   0.000009 0.500001 0.452947 1.005955
C13   C     C_R   0.999965 0.499947 0.047057 0.989633
C14   C     C_R   0.499988 0.000000 0.047060 1.005083
C15   C     C_R   0.000035 0.499967 0.952937 0.989746
C16   C     C_R   0.500011 0.000000 0.952945 1.005960
Zn1   Zn    Zn3+2 0.549350 0.000000 0.500000 1.132261
Zn2   Zn    Zn3+2 1.000000 0.549350 0.500000 1.132436
Zn3   Zn    Zn3+2 0.450650 0.000000 0.500000 1.132270
Zn4   Zn    Zn3+2 1.000000 0.450650 0.500000 1.132504
Zn5   Zn    Zn3+2 0.049350 0.500000 0.000000 1.125293
Zn6   Zn    Zn3+2 0.500000 0.049350 0.000000 1.132032
Zn7   Zn    Zn3+2 0.950650 0.500000 0.000000 1.125107
Zn8   Zn    Zn3+2 0.500000 0.950650 0.000000 1.132133
O33   O     O_R   0.434540 0.499970 0.520120 -0.617231
O34   O     O_R   0.500030 0.434540 0.520120 -0.617106
O35   O     O_R   0.565460 0.500030 0.520120 -0.617134
O36   O     O_R   0.499970 0.565460 0.520120 -0.617143
O37   O     O_R   0.434540 0.500030 0.479880 -0.617206
O38   O     O_R   0.500030 0.565460 0.479880 -0.617116
O39   O     O_R   0.565460 0.499970 0.479880 -0.617122
O40   O     O_R   0.499970 0.434540 0.479880 -0.617139
O41   O     O_R   0.934540 0.999970 0.020120 -0.613654
O42   O     O_R   0.000030 0.934540 0.020120 -0.617198
O43   O     O_R   0.065460 0.000030 0.020120 -0.620397
O44   O     O_R   0.999970 0.065460 0.020120 -0.616934
O45   O     O_R   0.934540 0.000030 0.979880 -0.620484
O46   O     O_R   0.000030 0.065460 0.979880 -0.616898
O47   O     O_R   0.065460 0.999970 0.979880 -0.613555
O48   O     O_R   0.999970 0.934540 0.979880 -0.617218
C17   C     C_R   0.470052 0.972643 0.737319 0.026140
C18   C     C_R   0.030017 0.472504 0.737254 0.027500
C19   C     C_R   0.529750 0.027514 0.737286 0.026183
C20   C     C_R   0.970941 0.528006 0.737305 0.027669
C21   C     C_R   0.472837 0.030035 0.262728 0.027654
C22   C     C_R   0.026774 0.530380 0.262690 0.026215
C23   C     C_R   0.527468 0.970151 0.262697 0.027635
C24   C     C_R   0.972539 0.470101 0.262721 0.026060
C25   C     C_R   0.970048 0.472527 0.237329 0.026253
C26   C     C_R   0.530062 0.972757 0.237270 0.027637
C27   C     C_R   0.029158 0.528033 0.237291 0.026085
C28   C     C_R   0.470187 0.027398 0.237306 0.027635
C29   C     C_R   0.973688 0.530640 0.762722 0.027456
C30   C     C_R   0.527351 0.029919 0.762683 0.026143
C31   C     C_R   0.027405 0.469936 0.762681 0.027766
C32   C     C_R   0.472500 0.970205 0.762712 0.026175
C33   C     C_R   0.499891 0.000084 0.724634 0.089232
C34   C     C_R   0.000436 0.500229 0.724592 0.087945
C35   C     C_R   0.500161 0.000096 0.275400 0.087948
C36   C     C_R   0.999692 0.500214 0.275373 0.089184
C37   C     C_R   0.999586 0.500287 0.224643 0.089101
C38   C     C_R   0.500109 0.000068 0.224600 0.087951
C39   C     C_R   0.000561 0.500290 0.775388 0.087829
C40   C     C_R   0.499940 0.000052 0.775366 0.089234
C41   C     C_R   0.437701 0.949374 0.724264 -0.250387
C42   C     C_R   0.061487 0.448209 0.724077 -0.248397
C43   C     C_R   0.562075 0.050802 0.724193 -0.250509
C44   C     C_R   0.939390 0.552258 0.724191 -0.248587
C45   C     C_R   0.449025 0.061892 0.275888 -0.248447
C46   C     C_R   0.049750 0.562932 0.275757 -0.250509
C47   C     C_R   0.551315 0.938316 0.275834 -0.248390
C48   C     C_R   0.949623 0.437504 0.275805 -0.250402
C49   C     C_R   0.937940 0.448915 0.224277 -0.250150
C50   C     C_R   0.561887 0.948914 0.224100 -0.248342
C51   C     C_R   0.061207 0.551691 0.224191 -0.250839
C52   C     C_R   0.438329 0.051223 0.224178 -0.248517
C53   C     C_R   0.950410 0.562886 0.775882 -0.248833
C54   C     C_R   0.550634 0.062256 0.775747 -0.250518
C55   C     C_R   0.050775 0.437742 0.775811 -0.248199
C56   C     C_R   0.449244 0.937850 0.775796 -0.250403
C57   C     C_R   0.436290 0.950291 0.699296 0.341722
C58   C     C_R   0.062185 0.448249 0.699127 0.341355
C59   C     C_R   0.563452 0.049899 0.699224 0.341780
C60   C     C_R   0.938516 0.552110 0.699244 0.341384
C61   C     C_R   0.449121 0.062662 0.300836 0.341405
C62   C     C_R   0.048916 0.564246 0.300727 0.341710
C63   C     C_R   0.551244 0.937555 0.300782 0.341353
C64   C     C_R   0.950603 0.436080 0.300772 0.341689
C65   C     C_R   0.936527 0.449798 0.199310 0.341188
C66   C     C_R   0.562621 0.948978 0.199151 0.341380
C67   C     C_R   0.062569 0.550818 0.199222 0.341911
C68   C     C_R   0.437532 0.051120 0.199230 0.341557
C69   C     C_R   0.950545 0.563667 0.800830 0.341467
C70   C     C_R   0.549752 0.063630 0.800716 0.341894
C71   C     C_R   0.050674 0.436956 0.800760 0.340237
C72   C     C_R   0.450182 0.936436 0.800764 0.341782
C73   C     C_R   0.468747 0.974156 0.686435 -0.125893
C74   C     C_R   0.031728 0.474550 0.686285 -0.128287
C75   C     C_R   0.530988 0.026029 0.686400 -0.125916
C76   C     C_R   0.968871 0.525738 0.686346 -0.128332
C77   C     C_R   0.475015 0.031877 0.313693 -0.128380
C78   C     C_R   0.025431 0.531504 0.313576 -0.125849
C79   C     C_R   0.525341 0.968326 0.313666 -0.128344
C80   C     C_R   0.974175 0.468756 0.313602 -0.125879
C81   C     C_R   0.968732 0.473997 0.186448 -0.127115
C82   C     C_R   0.531831 0.974870 0.186300 -0.128342
C83   C     C_R   0.030375 0.526577 0.186404 -0.124876
C84   C     C_R   0.468288 0.025206 0.186341 -0.128353
C85   C     C_R   0.975935 0.532458 0.813683 -0.127363
C86   C     C_R   0.525909 0.031152 0.813570 -0.125851
C87   C     C_R   0.025224 0.468100 0.813647 -0.129580
C88   C     C_R   0.474055 0.968894 0.813596 -0.125927
C89   C     C_R   0.499875 0.000091 0.699156 -0.116578
C90   C     C_R   0.000346 0.500173 0.699074 -0.114377
C91   C     C_R   0.500173 0.000101 0.300920 -0.114326
C92   C     C_R   0.999765 0.500158 0.300850 -0.116606
C93   C     C_R   0.999561 0.500291 0.199165 -0.116333
C94   C     C_R   0.500076 0.000048 0.199080 -0.114353
C95   C     C_R   0.000578 0.500286 0.800906 -0.113934
C96   C     C_R   0.499968 0.000033 0.800844 -0.116600
C97   C     C_R   0.471773 0.972480 0.661237 0.562921
C98   C     C_R   0.032380 0.477398 0.661053 0.559644
C99   C     C_R   0.527950 0.027691 0.661205 0.562895
C100  C     C_R   0.968031 0.522772 0.661121 0.559600
C101  C     C_R   0.477902 0.032555 0.338923 0.559592
C102  C     C_R   0.027224 0.528415 0.338766 0.562818
C103  C     C_R   0.522442 0.967625 0.338898 0.559608
C104  C     C_R   0.972535 0.471732 0.338802 0.563000
C105  C     C_R   0.971811 0.472303 0.161253 0.563433
C106  C     C_R   0.532489 0.977745 0.161068 0.559685
C107  C     C_R   0.027318 0.528186 0.161210 0.560826
C108  C     C_R   0.467567 0.022295 0.161111 0.559568
C109  C     C_R   0.978824 0.533066 0.838912 0.557475
C110  C     C_R   0.527605 0.028102 0.838765 0.562798
C111  C     C_R   0.022250 0.467386 0.838874 0.559193
C112  C     C_R   0.472411 0.971909 0.838794 0.563061
N1    N     N_R   0.499865 0.000077 0.649274 -0.361358
N2    N     N_R   0.000163 0.500060 0.649202 -0.362633
N3    N     N_R   0.500163 0.000081 0.350794 -0.362768
N4    N     N_R   0.999912 0.500051 0.350732 -0.361273
N5    N     N_R   0.999586 0.500209 0.149283 -0.362778
N6    N     N_R   0.500014 0.000013 0.149206 -0.362750
N7    N     N_R   0.000498 0.500189 0.850779 -0.364334
N8    N     N_R   0.500018 1.000000 0.850727 -0.361342
H1    H     H_    0.411107 0.932137 0.733137 0.191388
H2    H     H_    0.086675 0.428719 0.732670 0.187849
H3    H     H_    0.588678 0.068039 0.733034 0.191279
H4    H     H_    0.914265 0.571787 0.732835 0.187780
H5    H     H_    0.429884 0.087334 0.267283 0.187727
H6    H     H_    0.066672 0.589738 0.266898 0.191348
H7    H     H_    0.570464 0.912882 0.267210 0.187778
H8    H     H_    0.932640 0.410743 0.266956 0.191412
H9    H     H_    0.911527 0.431406 0.233152 0.191303
H10   H     H_    0.587333 0.929770 0.232698 0.187785
H11   H     H_    0.087626 0.569220 0.233025 0.191310
H12   H     H_    0.412905 0.070378 0.232809 0.187734
H13   H     H_    0.931677 0.588630 0.767274 0.187841
H14   H     H_    0.567852 0.088868 0.766883 0.191318
H15   H     H_    0.069548 0.412035 0.767181 0.187788
H16   H     H_    0.432004 0.911253 0.766946 0.191326
O49   O     O_2   0.447866 0.942814 0.648680 -0.471657
O50   O     O_2   0.065260 0.458602 0.648292 -0.468459
O51   O     O_2   0.551847 0.057354 0.648619 -0.471624
O52   O     O_2   0.935056 0.541508 0.648435 -0.468295
O53   O     O_2   0.459533 0.065696 0.351663 -0.468114
O54   O     O_2   0.056725 0.552546 0.351309 -0.471837
O55   O     O_2   0.540806 0.934473 0.351615 -0.468150
O56   O     O_2   0.943111 0.447546 0.351391 -0.471743
O57   O     O_2   0.948283 0.442316 0.148709 -0.463927
O58   O     O_2   0.565617 0.959365 0.148317 -0.468114
O59   O     O_2   0.050845 0.558138 0.148621 -0.473061
O60   O     O_2   0.434408 0.040657 0.148405 -0.468358
O61   O     O_2   0.961040 0.566521 0.851655 -0.469352
O62   O     O_2   0.557275 0.052005 0.851318 -0.472002
O63   O     O_2   0.039998 0.433879 0.851576 -0.459192
O64   O     O_2   0.442768 0.947989 0.851382 -0.471502
C113  C     C_R   0.538490 0.989271 0.610949 -0.074265
C114  C     C_R   0.007126 0.539479 0.610952 -0.076600
C115  C     C_R   0.461312 0.010793 0.610952 -0.074100
C116  C     C_R   0.993005 0.460588 0.610979 -0.076574
C117  C     C_R   0.539606 0.006812 0.389028 -0.076530
C118  C     C_R   0.010949 0.461499 0.389043 -0.074269
C119  C     C_R   0.460618 0.993268 0.389027 -0.076719
C120  C     C_R   0.988990 0.538557 0.389071 -0.074152
C121  C     C_R   0.038466 0.489888 0.110992 -0.069509
C122  C     C_R   0.506762 0.039503 0.110968 -0.076647
C123  C     C_R   0.960961 0.510197 0.110923 -0.064801
C124  C     C_R   0.493209 0.960514 0.110977 -0.076807
C125  C     C_R   0.039972 0.505862 0.889058 -0.064834
C126  C     C_R   0.510802 0.961413 0.889045 -0.074468
C127  C     C_R   0.960683 0.494226 0.888976 -0.073242
C128  C     C_R   0.489258 0.038588 0.889055 -0.074103
H17   H     H_    0.568362 0.980658 0.620549 0.178453
H18   H     H_    0.012799 0.570034 0.620580 0.172537
H19   H     H_    0.431419 0.019424 0.620554 0.178530
H20   H     H_    0.987376 0.430043 0.620630 0.172461
H21   H     H_    0.570208 0.012243 0.379388 0.172196
H22   H     H_    0.019734 0.431669 0.379432 0.178823
H23   H     H_    0.430043 0.987854 0.379385 0.172119
H24   H     H_    0.980183 0.568396 0.379483 0.178716
H25   H     H_    0.068448 0.481777 0.120621 0.173720
H26   H     H_    0.512193 0.070093 0.120605 0.172249
H27   H     H_    0.930914 0.518401 0.120495 0.176931
H28   H     H_    0.487788 0.929926 0.120622 0.172085
H29   H     H_    0.070727 0.510592 0.879451 0.169909
H30   H     H_    0.519432 0.931532 0.879440 0.178501
H31   H     H_    0.930013 0.489588 0.879305 0.168265
H32   H     H_    0.480628 0.068469 0.879457 0.178515
C129  C     C_R   0.538632 0.989548 0.585983 -0.156389
C130  C     C_R   0.006972 0.539526 0.585991 -0.157756
C131  C     C_R   0.461228 0.010476 0.585986 -0.156528
C132  C     C_R   0.993064 0.460513 0.586016 -0.157107
C133  C     C_R   0.539628 0.006697 0.413991 -0.157584
C134  C     C_R   0.010667 0.461369 0.414009 -0.157558
C135  C     C_R   0.460523 0.993339 0.413990 -0.157525
C136  C     C_R   0.989327 0.538663 0.414034 -0.155541
C137  C     C_R   0.038662 0.490077 0.086026 -0.137018
C138  C     C_R   0.506661 0.039559 0.086005 -0.158084
C139  C     C_R   0.960940 0.509789 0.085959 -0.175430
C140  C     C_R   0.493294 0.960453 0.086014 -0.157202
C141  C     C_R   0.039914 0.505674 0.914019 -0.172289
C142  C     C_R   0.510503 0.961301 0.914011 -0.157409
C143  C     C_R   0.960514 0.494230 0.913940 -0.147199
C144  C     C_R   0.489555 0.038702 0.914020 -0.155802
H33   H     H_    0.568835 0.981171 0.576604 0.206107
H34   H     H_    0.012556 0.570374 0.576622 0.202017
H35   H     H_    0.431048 0.018841 0.576609 0.206150
H36   H     H_    0.987454 0.429656 0.576666 0.201694
H37   H     H_    0.570507 0.012067 0.423351 0.201506
H38   H     H_    0.019210 0.431221 0.423379 0.206555
H39   H     H_    0.429618 0.987956 0.423347 0.201467
H40   H     H_    0.980804 0.568806 0.423423 0.206345
H41   H     H_    0.069013 0.482140 0.076672 0.189371
H42   H     H_    0.512041 0.070450 0.076643 0.201660
H43   H     H_    0.930653 0.517665 0.076558 0.202024
H44   H     H_    0.487913 0.929559 0.076659 0.201339
H45   H     H_    0.070890 0.510282 0.923403 0.193947
H46   H     H_    0.518884 0.931112 0.923387 0.206234
H47   H     H_    0.929452 0.489613 0.923266 0.187568
H48   H     H_    0.481176 0.068893 0.923401 0.206058
C145  C     C_R   0.499946 0.000005 0.573334 -0.077090
C146  C     C_R   1.000000 0.500012 0.573345 -0.069764
C147  C     C_R   0.500057 0.000010 0.426651 -0.068993
C148  C     C_R   0.000004 0.500009 0.426670 -0.077278
C149  C     C_R   0.999843 0.499871 0.073340 -0.053425
C150  C     C_R   0.499977 0.000004 0.073349 -0.069058
C151  C     C_R   0.000159 0.499895 0.926643 -0.040541
C152  C     C_R   0.500023 0.000001 0.926666 -0.077014
C153  C     C_R   0.413813 0.500011 0.500009 0.865617
C154  C     C_R   0.500006 0.413814 0.499999 0.865579
C155  C     C_R   0.586185 0.499999 0.499993 0.865488
C156  C     C_R   0.499995 0.586185 0.499999 0.865515
C157  C     C_R   0.913813 0.000013 0.000009 0.865497
C158  C     C_R   0.000005 0.913813 0.999999 0.865269
C159  C     C_R   0.086185 0.000002 0.999993 0.865403
C160  C     C_R   0.999994 0.086192 0.999999 0.865592
C161  C     C_R   0.499887 0.000046 0.623538 0.253993
C162  C     C_R   0.000093 0.500041 0.623507 0.262888
C163  C     C_R   0.500130 0.000053 0.376488 0.263472
C164  C     C_R   0.999954 0.500034 0.376469 0.253626
C165  C     C_R   0.999670 0.500101 0.123546 0.257659
C166  C     C_R   0.499992 0.000010 0.123512 0.263462
C167  C     C_R   0.000385 0.500093 0.876475 0.267162
C168  C     C_R   0.500028 1.000000 0.876463 0.254004
Zn9   Zn    Zn3+2 0.500000 0.500000 0.526860 1.008144
Zn10  Zn    Zn3+2 0.500000 0.500000 0.473140 1.008177
Zn11  Zn    Zn3+2 1.000000 0.000000 0.026860 1.008750
Zn12  Zn    Zn3+2 0.000000 0.000000 0.973140 1.008775
C169  C     C_R   0.491007 0.797232 0.478753 -0.212631
C170  C     C_R   0.202843 0.491007 0.478873 -0.213060
C171  C     C_R   0.509049 0.202767 0.478752 -0.212620
C172  C     C_R   0.797228 0.508700 0.478810 -0.213004
C173  C     C_R   0.491247 0.202806 0.521176 -0.213001
C174  C     C_R   0.202731 0.509265 0.521232 -0.212609
C175  C     C_R   0.508699 0.797194 0.521175 -0.213024
C176  C     C_R   0.797196 0.490976 0.521236 -0.212677
C177  C     C_R   0.009348 0.297239 0.978835 -0.213440
C178  C     C_R   0.702843 0.991060 0.978864 -0.213516
C179  C     C_R   0.009136 0.702766 0.978771 -0.212473
C180  C     C_R   0.297230 0.008699 0.978808 -0.212471
C181  C     C_R   0.991141 0.702797 0.021172 -0.212894
C182  C     C_R   0.702731 0.009241 0.021233 -0.212052
C183  C     C_R   0.990410 0.297229 0.021122 -0.213721
C184  C     C_R   0.297194 0.991020 0.021239 -0.213118
H49   H     H_    0.483658 0.779224 0.462456 0.196361
H50   H     H_    0.220908 0.483462 0.462612 0.196287
H51   H     H_    0.516439 0.220775 0.462454 0.196370
H52   H     H_    0.779221 0.516042 0.462520 0.196298
H53   H     H_    0.483876 0.220841 0.537465 0.196293
H54   H     H_    0.220713 0.516828 0.537504 0.196375
H55   H     H_    0.516028 0.779160 0.537464 0.196279
H56   H     H_    0.779161 0.483613 0.537533 0.196347
H57   H     H_    0.017211 0.279227 0.962605 0.196276
H58   H     H_    0.720908 0.983548 0.962599 0.196196
H59   H     H_    0.016596 0.720778 0.962484 0.196332
H60   H     H_    0.279224 0.016025 0.962515 0.196699
H61   H     H_    0.983698 0.720830 0.037452 0.196233
H62   H     H_    0.720713 0.016776 0.037508 0.196793
H63   H     H_    0.982543 0.279211 0.037351 0.196092
H64   H     H_    0.279157 0.983679 0.037539 0.196268
C185  C     C_R   0.491491 0.843163 0.478435 0.400909
C186  C     C_R   0.156920 0.491366 0.478534 0.403688
C187  C     C_R   0.508567 0.156836 0.478434 0.400904
C188  C     C_R   0.843152 0.508357 0.478483 0.403689
C189  C     C_R   0.491597 0.156881 0.521507 0.403542
C190  C     C_R   0.156802 0.508787 0.521548 0.401125
C191  C     C_R   0.508346 0.843120 0.521507 0.403551
C192  C     C_R   0.843126 0.491467 0.521557 0.401057
C193  C     C_R   0.008951 0.343168 0.978514 0.399904
C194  C     C_R   0.656919 0.991409 0.978527 0.403709
C195  C     C_R   0.008664 0.656835 0.978450 0.400612
C196  C     C_R   0.343155 0.008345 0.978480 0.403260
C197  C     C_R   0.991496 0.656871 0.021502 0.403236
C198  C     C_R   0.656802 0.008757 0.021550 0.400648
C199  C     C_R   0.990900 0.343154 0.021456 0.401571
C200  C     C_R   0.343124 0.991496 0.021560 0.401016
C201  C     C_R   0.499954 0.866181 0.499976 -0.299886
C202  C     C_R   0.133820 0.500045 0.500034 -0.299977
C203  C     C_R   0.500046 0.133819 0.499975 -0.299885
C204  C     C_R   0.866179 0.499952 0.500017 -0.299892
C205  C     C_R   0.999955 0.366191 0.999990 -0.301640
C206  C     C_R   0.633820 0.000047 0.000032 -0.299989
C207  C     C_R   0.000046 0.633815 0.999980 -0.302104
C208  C     C_R   0.366179 0.999954 0.000017 -0.299909
C209  C     C_R   0.499820 0.774208 0.499962 -0.052855
C210  C     C_R   0.225791 0.500169 0.500057 -0.052900
C211  C     C_R   0.500181 0.225791 0.499961 -0.052870
C212  C     C_R   0.774207 0.499803 0.500024 -0.052886
C213  C     C_R   0.999867 0.274230 0.999977 -0.053021
C214  C     C_R   0.725791 0.000186 0.000053 -0.053112
C215  C     C_R   0.000166 0.725786 0.999969 -0.052798
C216  C     C_R   0.274207 0.999829 0.000024 -0.053093
C217  C     C_R   0.480661 0.702768 0.519125 -0.138555
C218  C     C_R   0.297175 0.481242 0.519287 -0.138243
C219  C     C_R   0.519298 0.297231 0.519120 -0.138559
C220  C     C_R   0.702771 0.519003 0.519176 -0.138252
C221  C     C_R   0.481030 0.297202 0.480804 -0.138192
C222  C     C_R   0.297250 0.519106 0.480836 -0.138671
C223  C     C_R   0.519013 0.702796 0.480800 -0.138204
C224  C     C_R   0.702792 0.480678 0.480859 -0.138533
C225  C     C_R   0.018637 0.202840 0.019262 -0.138069
C226  C     C_R   0.797172 0.981214 0.019271 -0.137882
C227  C     C_R   0.019203 0.797226 0.019151 -0.138637
C228  C     C_R   0.202768 0.019057 0.019167 -0.138046
C229  C     C_R   0.981092 0.797195 0.980788 -0.138293
C230  C     C_R   0.797254 0.019163 0.980845 -0.138440
C231  C     C_R   0.981182 0.202782 0.980710 -0.137799
C232  C     C_R   0.202794 0.980674 0.980867 -0.138175
H65   H     H_    0.464969 0.720029 0.533867 0.157826
H66   H     H_    0.279872 0.465773 0.534089 0.158170
H67   H     H_    0.534958 0.279969 0.533858 0.157826
H68   H     H_    0.720035 0.534645 0.533922 0.158132
H69   H     H_    0.465407 0.279917 0.466058 0.158160
H70   H     H_    0.280007 0.534605 0.466042 0.157825
H71   H     H_    0.534670 0.720080 0.466050 0.158155
H72   H     H_    0.720072 0.464991 0.466121 0.157818
H73   H     H_    0.033945 0.220144 0.034099 0.156437
H74   H     H_    0.779867 0.965713 0.034063 0.158185
H75   H     H_    0.034799 0.779965 0.033908 0.157779
H76   H     H_    0.220031 0.034723 0.033906 0.157274
H77   H     H_    0.965528 0.779910 0.966024 0.158105
H78   H     H_    0.780012 0.034696 0.966061 0.156974
H79   H     H_    0.965856 0.220041 0.965867 0.156722
H80   H     H_    0.220076 0.964968 0.966136 0.157842
C233  C     C_R   0.481125 0.656976 0.519250 -0.174175
C234  C     C_R   0.342967 0.481577 0.519374 -0.173969
C235  C     C_R   0.518835 0.343022 0.519244 -0.174163
C236  C     C_R   0.656980 0.518688 0.519263 -0.173919
C237  C     C_R   0.481357 0.342995 0.480715 -0.173919
C238  C     C_R   0.343039 0.518654 0.480714 -0.174120
C239  C     C_R   0.518685 0.657003 0.480711 -0.173945
C240  C     C_R   0.657000 0.481154 0.480733 -0.174215
C241  C     C_R   0.018290 0.157045 0.019368 -0.174050
C242  C     C_R   0.842965 0.981544 0.019359 -0.171828
C243  C     C_R   0.018748 0.843018 0.019270 -0.174144
C244  C     C_R   0.156976 0.018737 0.019254 -0.176078
C245  C     C_R   0.981425 0.842989 0.980697 -0.173911
C246  C     C_R   0.843043 0.018710 0.980724 -0.176331
C247  C     C_R   0.981596 0.156988 0.980616 -0.173809
C248  C     C_R   0.157002 0.981141 0.980742 -0.172115
H81   H     H_    0.466135 0.639517 0.534151 0.168501
H82   H     H_    0.360382 0.466730 0.534314 0.168809
H83   H     H_    0.533793 0.360481 0.534142 0.168533
H84   H     H_    0.639526 0.533717 0.534152 0.168652
H85   H     H_    0.466353 0.360431 0.465828 0.168672
H86   H     H_    0.360509 0.533458 0.465760 0.168688
H87   H     H_    0.533722 0.639566 0.465820 0.168647
H88   H     H_    0.639559 0.466177 0.465836 0.168508
H89   H     H_    0.032984 0.139627 0.034353 0.165677
H90   H     H_    0.860378 0.966662 0.034290 0.168767
H91   H     H_    0.033648 0.860476 0.034186 0.168548
H92   H     H_    0.139519 0.033789 0.034135 0.165658
H93   H     H_    0.966483 0.860422 0.965790 0.168681
H94   H     H_    0.860518 0.033549 0.965782 0.165692
H95   H     H_    0.966928 0.139524 0.965634 0.165782
H96   H     H_    0.139563 0.966138 0.965852 0.168478
C249  C     C_R   0.499946 0.634030 0.499991 -0.041479
C250  C     C_R   0.365965 0.500075 0.500031 -0.041694
C251  C     C_R   0.500055 0.365969 0.499990 -0.041526
C252  C     C_R   0.634030 0.499964 0.499989 -0.041493
C253  C     C_R   0.999961 0.134048 0.999995 -0.038255
C254  C     C_R   0.865966 0.000083 0.000030 -0.039852
C255  C     C_R   0.000050 0.865965 0.999992 -0.041501
C256  C     C_R   0.134030 0.999976 0.999989 -0.039665
C257  C     C_R   0.499811 0.725933 0.499956 0.159030
C258  C     C_R   0.274062 0.500191 0.500066 0.159083
C259  C     C_R   0.500190 0.274065 0.499956 0.159034
C260  C     C_R   0.725932 0.499804 0.500026 0.159053
C261  C     C_R   0.999891 0.225959 0.999983 0.160413
C262  C     C_R   0.774063 0.000207 0.000062 0.159445
C263  C     C_R   0.000171 0.774060 0.999964 0.158960
C264  C     C_R   0.225932 0.999832 0.000025 0.159411
N9    N     N_R   0.399706 0.929183 0.687578 0.253803
O65   O     O_R   0.387760 0.889617 0.694023 -0.316159
O66   O     O_R   0.373185 0.952492 0.674267 -0.302420
N10   N     N_R   0.092758 0.419236 0.687351 0.253931
O67   O     O_R   0.134428 0.420503 0.693026 -0.316323
O68   O     O_R   0.077855 0.385694 0.675189 -0.297394
N11   N     N_R   0.600016 0.071024 0.687464 0.253767
O69   O     O_R   0.611942 0.110600 0.693891 -0.316329
O70   O     O_R   0.626546 0.047722 0.674130 -0.302652
N12   N     N_R   0.907870 0.581082 0.687521 0.253923
O71   O     O_R   0.866242 0.579866 0.693327 -0.316581
O72   O     O_R   0.922700 0.614554 0.675263 -0.297431
N13   N     N_R   0.420576 0.093688 0.312599 0.253905
O73   O     O_R   0.422471 0.135326 0.306885 -0.316489
O74   O     O_R   0.386814 0.079308 0.324787 -0.297463
N14   N     N_R   0.069687 0.601008 0.312467 0.253782
O75   O     O_R   0.109096 0.613395 0.305974 -0.316304
O76   O     O_R   0.046159 0.627229 0.325862 -0.302635
N15   N     N_R   0.579822 0.906553 0.312515 0.253933
O77   O     O_R   0.577981 0.864917 0.306793 -0.316424
O78   O     O_R   0.613556 0.920963 0.324687 -0.297271
N16   N     N_R   0.929887 0.399274 0.312517 0.253796
O79   O     O_R   0.890432 0.386935 0.306114 -0.315976
O80   O     O_R   0.953486 0.372978 0.325812 -0.302582
N17   N     N_R   0.900172 0.428296 0.187591 0.254229
O81   O     O_R   0.888609 0.388630 0.194059 -0.313944
O82   O     O_R   0.873451 0.451300 0.174241 -0.302013
N18   N     N_R   0.593615 0.920402 0.187385 0.253935
O83   O     O_R   0.635258 0.922268 0.193068 -0.316124
O84   O     O_R   0.579201 0.886646 0.175223 -0.297482
N19   N     N_R   0.098881 0.572361 0.187456 0.253824
O85   O     O_R   0.110356 0.612071 0.193881 -0.316394
O86   O     O_R   0.125669 0.549366 0.174117 -0.304163
N20   N     N_R   0.406507 0.079677 0.187501 0.253825
O87   O     O_R   0.364878 0.077819 0.193254 -0.317034
O88   O     O_R   0.420890 0.113416 0.175303 -0.297816
N21   N     N_R   0.922517 0.595155 0.812597 0.254012
O89   O     O_R   0.925079 0.636755 0.806877 -0.316436
O90   O     O_R   0.888535 0.581328 0.824795 -0.298610
N22   N     N_R   0.570869 0.100203 0.812448 0.253688
O91   O     O_R   0.610429 0.112156 0.805985 -0.316908
O92   O     O_R   0.547571 0.126713 0.825794 -0.302802
N23   N     N_R   0.078787 0.405529 0.812493 0.254462
O93   O     O_R   0.076413 0.363941 0.806724 -0.314312
O94   O     O_R   0.112654 0.419438 0.824727 -0.295816
N24   N     N_R   0.429089 0.899846 0.812510 0.253787
O95   O     O_R   0.389516 0.887904 0.806102 -0.315999
O96   O     O_R   0.452415 0.873318 0.825810 -0.302713
S1    S     S_3+6 0.483380 0.870762 0.450723 0.032472
O97   O     O_2   0.474999 0.838057 0.430923 -0.266408
O98   O     O_2   0.444592 0.901522 0.452617 -0.292194
O99   O     O_3   0.529103 0.900030 0.444299 -0.569517
H97   H     H_    0.527152 0.906324 0.426890 0.393253
S2    S     S_3+6 0.129430 0.482772 0.450844 0.029145
O100  O     O_2   0.162214 0.474349 0.431073 -0.270687
O101  O     O_2   0.098884 0.443813 0.452865 -0.295301
O102  O     O_3   0.099937 0.528241 0.444277 -0.568879
H98   H     H_    0.093712 0.526069 0.426869 0.392171
S3    S     S_3+6 0.516752 0.129237 0.450721 0.032488
O103  O     O_2   0.525210 0.161941 0.430922 -0.266371
O104  O     O_2   0.555519 0.098458 0.452614 -0.292202
O105  O     O_3   0.471035 0.099992 0.444294 -0.569509
H99   H     H_    0.473029 0.093711 0.426883 0.393285
S4    S     S_3+6 0.870741 0.516675 0.450775 0.029035
O106  O     O_2   0.838033 0.524895 0.430972 -0.270516
O107  O     O_2   0.901268 0.555661 0.452695 -0.296184
O108  O     O_3   0.900267 0.471147 0.444349 -0.568456
H100  H     H_    0.906542 0.473136 0.426935 0.392285
S5    S     S_3+6 0.483241 0.129333 0.549218 0.029276
O109  O     O_2   0.474984 0.162075 0.569019 -0.270278
O110  O     O_2   0.444267 0.098791 0.547300 -0.295869
O111  O     O_3   0.528763 0.099826 0.555646 -0.568477
H101  H     H_    0.526708 0.093517 0.573053 0.392255
S6    S     S_3+6 0.129171 0.517213 0.549239 0.032227
O112  O     O_2   0.161850 0.525893 0.569003 -0.266945
O113  O     O_2   0.098355 0.555932 0.547231 -0.291924
O114  O     O_3   0.099972 0.471523 0.555818 -0.569772
H102  H     H_    0.093791 0.473606 0.573239 0.393393
S7    S     S_3+6 0.516629 0.870668 0.549216 0.029257
O115  O     O_2   0.524812 0.837926 0.569019 -0.270309
O116  O     O_2   0.555621 0.901194 0.547298 -0.295882
O117  O     O_3   0.471099 0.900195 0.555643 -0.568483
H103  H     H_    0.473109 0.906515 0.573048 0.392231
S8    S     S_3+6 0.870682 0.483327 0.549271 0.032305
O118  O     O_2   0.837947 0.474959 0.569075 -0.266599
O119  O     O_2   0.901418 0.444519 0.547386 -0.292493
O120  O     O_3   0.899973 0.529028 0.555679 -0.569329
H104  H     H_    0.906322 0.527018 0.573079 0.393138
S9    S     S_3+6 0.018338 0.370811 0.950926 0.040060
O121  O     O_2   0.025173 0.338172 0.930925 -0.247720
O122  O     O_2   0.978943 0.399120 0.945262 -0.328454
O123  O     O_3   0.063449 0.402914 0.953331 -0.534009
H105  H     H_    0.066521 0.417279 0.937446 0.385053
S10   S     S_3+6 0.629426 0.982853 0.950833 0.029002
O124  O     O_2   0.662208 0.974443 0.931060 -0.270921
O125  O     O_2   0.598867 0.943902 0.952841 -0.295262
O126  O     O_3   0.599947 0.028338 0.944282 -0.569063
H106  H     H_    0.593698 0.026173 0.926876 0.392147
S11   S     S_3+6 0.016958 0.629244 0.950743 0.032850
O127  O     O_2   0.025526 0.661954 0.930962 -0.266270
O128  O     O_2   0.055693 0.598432 0.952677 -0.290444
O129  O     O_3   0.971249 0.600036 0.944252 -0.570469
H107  H     H_    0.973302 0.593794 0.926838 0.392280
S12   S     S_3+6 0.370748 0.016630 0.950769 0.029521
O130  O     O_2   0.338041 0.024843 0.930964 -0.269535
O131  O     O_2   0.401289 0.055607 0.952678 -0.295917
O132  O     O_3   0.400259 0.971087 0.944355 -0.568512
H108  H     H_    0.406567 0.973079 0.926944 0.392316
S13   S     S_3+6 0.983046 0.629318 0.049205 0.029814
O133  O     O_2   0.974692 0.662057 0.068995 -0.270219
O134  O     O_2   0.944103 0.598743 0.047250 -0.294180
O135  O     O_3   0.028563 0.599843 0.055688 -0.568992
H109  H     H_    0.026408 0.593479 0.073085 0.391275
S14   S     S_3+6 0.629170 0.017140 0.049245 0.032767
O136  O     O_2   0.661849 0.025800 0.069012 -0.265847
O137  O     O_2   0.598345 0.055855 0.047253 -0.291568
O138  O     O_3   0.599981 0.971435 0.055806 -0.569928
H110  H     H_    0.593780 0.973506 0.073225 0.393406
S15   S     S_3+6 0.981740 0.370768 0.049070 0.038204
O139  O     O_2   0.974733 0.338123 0.069052 -0.250561
O140  O     O_2   0.021364 0.398800 0.054714 -0.333863
O141  O     O_3   0.936856 0.403167 0.046740 -0.531537
H111  H     H_    0.934433 0.418149 0.062490 0.386408
S16   S     S_3+6 0.370679 0.983373 0.049275 0.032219
O142  O     O_2   0.337944 0.975002 0.069079 -0.266755
O143  O     O_2   0.401428 0.944574 0.047396 -0.292256
O144  O     O_3   0.399956 0.029084 0.055680 -0.569680
H112  H     H_    0.406283 0.027093 0.073083 0.393126

loop_
_geom_bond_atom_site_label_1
_geom_bond_atom_site_label_2
_geom_bond_distance
_ccdc_geom_bond_type
C132  C146  1.404097 A    
C119  C135  1.391056 A    
C26   C38   1.416153 A    
C139  H43   1.082904 S    
C74   C90   1.418158 A    
O25   C13   1.287452 A    
S13   O133  1.503934 D    
C21   C45   1.409521 A    
O120  H104  0.990491 S    
C171  C187  1.390384 A    
C61   C77   1.413273 A    
C182  C214  1.397904 A    
C9    C145  1.464437 S    
C234  C250  1.399375 A    
C223  H71   1.083038 S    
N17   O81   1.301251 A    
C55   H15   1.076808 S    
C170  C210  1.397860 A    
S14   O138  1.681171 S    
C107  O59   1.348966 S    
C183  C213  1.398032 A    
C173  H53   1.082341 S    
C47   H7    1.076783 S    
C30   C54   1.408808 A    
O18   Zn2   2.020641 S    
C42   C58   1.390467 A    
C36   C92   1.419728 A    
C27   C37   1.415453 A    
C215  C263  1.461136 S    
S16   O142  1.503938 D    
C98   N2    1.363532 A    
O41   C157  1.284787 A    
N13   O73   1.301113 A    
C213  C261  1.461043 S    
C226  C242  1.386102 A    
C67   N19   1.435728 S    
C108  O60   1.348776 S    
O33   C153  1.284775 A    
C21   C35   1.416141 A    
S8    O118  1.503924 D    
C127  C167  1.399775 A    
C190  S6    1.773040 S    
C158  C255  1.448229 S    
C128  C168  1.400968 A    
O3    C3    1.280452 A    
C169  C209  1.397960 A    
C188  C204  1.411385 A    
C176  H56   1.082345 S    
C73   C89   1.416637 A    
C184  C216  1.397986 A    
C120  C136  1.391125 A    
C242  C254  1.399361 A    
C87   C95   1.418133 A    
C122  H26   1.082895 S    
C177  H57   1.082407 S    
C134  C148  1.403475 A    
C185  S1    1.773035 S    
C130  H34   1.082876 S    
O5    Zn1   2.016999 S    
C52   C68   1.390428 A    
C223  C257  1.402539 A    
C66   N18   1.434512 S    
C195  C207  1.411444 A    
C16   C152  1.464426 S    
C79   C103  1.408844 A    
C192  S8    1.773035 S    
S15   O139  1.503542 D    
C46   H6    1.078668 S    
C222  C238  1.386036 A    
O17   C9    1.286902 A    
O34   C154  1.284802 A    
O105  H99   0.990497 S    
C54   H14   1.078689 S    
C227  H75   1.083042 S    
C125  H29   1.082903 S    
C228  H76   1.083045 S    
O37   C153  1.284785 A    
C24   C36   1.415444 A    
C17   C32   1.418935 A    
N19   O86   1.301489 A    
C99   N1    1.365116 A    
C19   C30   1.418933 A    
S2    O100  1.503967 D    
C104  N4    1.365140 A    
N23   O94   1.301380 A    
C71   C87   1.413290 A    
C72   C88   1.413774 A    
C230  H78   1.083050 S    
C221  H69   1.083042 S    
C181  C215  1.397874 A    
N14   O76   1.301490 A    
O26   Zn6   2.020641 S    
C13   C149  1.464647 S    
C232  C248  1.386147 A    
S13   O135  1.681184 S    
C175  C209  1.397862 A    
N24   O95   1.301251 A    
C135  C147  1.404144 A    
O27   C13   1.286493 A    
O8    Zn2   2.016733 S    
O132  H108  0.990503 S    
C117  H21   1.082893 S    
C174  C190  1.390365 A    
O31   C15   1.287620 A    
C182  C198  1.390370 A    
O32   C16   1.286885 A    
S14   O136  1.503982 D    
C176  C212  1.397987 A    
O39   Zn10  2.016947 S    
C100  O52   1.348786 S    
C196  S12   1.772749 S    
C52   H12   1.076796 S    
C172  C188  1.390201 A    
C195  S11   1.773103 S    
O111  H101  0.990505 S    
C239  C249  1.399343 A    
S6    O112  1.503980 D    
C20   C44   1.409494 A    
C58   C74   1.413300 A    
C138  H42   1.082871 S    
S16   O144  1.681167 S    
N10   O67   1.301119 A    
C18   C34   1.416126 A    
S12   O131  1.502284 D    
C76   C90   1.418163 A    
C127  H31   1.082904 S    
C101  N3    1.363476 A    
C81   C105  1.407929 A    
C102  N4    1.365134 A    
O41   Zn11  2.016949 S    
S8    O120  1.681171 S    
C61   N13   1.434504 S    
C177  C193  1.390332 A    
C169  H49   1.082343 S    
C102  O54   1.348971 S    
C137  C149  1.403510 A    
C72   N24   1.435732 S    
N9    O65   1.301252 A    
C194  C206  1.411423 A    
O16   Zn6   2.016733 S    
C230  C262  1.402548 A    
C17   C33   1.415439 A    
C10   C146  1.464800 S    
C124  C166  1.399697 A    
C38   C94   1.422121 A    
C11   C147  1.464955 S    
C125  C167  1.399679 A    
N16   O79   1.301253 A    
C225  C261  1.402530 A    
C114  C162  1.399725 A    
O6    Zn4   2.016729 S    
N13   O74   1.301365 A    
C109  O61   1.348782 S    
C20   C29   1.421096 A    
C198  C206  1.411510 A    
C135  H39   1.082871 S    
C247  C253  1.399489 A    
C136  H40   1.082873 S    
C172  C212  1.397834 A    
C244  C256  1.399368 A    
C190  C202  1.411513 A    
C60   N12   1.434529 S    
C132  H36   1.082879 S    
C235  C251  1.399298 A    
O9    C5    1.280381 A    
C217  C233  1.386095 A    
S6    O114  1.681173 S    
C35   C91   1.422120 A    
C219  C259  1.402593 A    
C184  H64   1.082344 S    
C18   C42   1.409507 A    
C182  H62   1.082351 S    
O21   Zn1   2.020945 S    
C33   C89   1.419758 A    
C186  S2    1.772827 S    
O23   C11   1.287059 A    
C170  H50   1.082352 S    
C238  H86   1.083432 S    
C28   C38   1.416142 A    
O33   Zn9   2.016949 S    
C117  C163  1.399685 A    
S7    O117  1.681196 S    
C106  O58   1.348775 S    
C118  C164  1.401034 A    
C229  H77   1.083037 S    
C191  C201  1.411370 A    
C67   C83   1.413736 A    
O13   C7    1.280359 A    
C192  C204  1.411423 A    
O11   C7    1.280435 A    
C218  C234  1.386099 A    
C59   N11   1.435729 S    
O2    Zn2   2.017060 S    
C28   C52   1.409523 A    
C153  C250  1.448273 S    
C123  C165  1.400948 A    
C70   N22   1.435731 S    
C237  C251  1.399348 A    
C69   C85   1.413306 A    
C180  H60   1.082342 S    
O45   Zn12  2.016351 S    
C31   C39   1.416138 A    
O28   C14   1.287047 A    
N12   O71   1.301120 A    
O26   C14   1.287025 A    
C18   C31   1.421181 A    
C236  H84   1.083440 S    
C57   N9    1.435732 S    
C23   C35   1.416156 A    
C62   C78   1.413730 A    
O29   Zn5   2.020945 S    
C126  C168  1.400978 A    
C116  H20   1.082895 S    
O102  H98   0.990519 S    
C233  C249  1.399288 A    
C222  H70   1.083050 S    
C23   C47   1.409535 A    
C121  C137  1.391246 A    
C234  H82   1.083436 S    
C19   C43   1.408808 A    
N22   O91   1.301253 A    
O19   Zn3   2.020940 S    
C227  C243  1.386094 A    
C25   C49   1.408825 A    
C228  C244  1.386080 A    
C104  O56   1.348966 S    
C123  H27   1.082908 S    
O42   C158  1.284810 A    
C193  C205  1.411226 A    
N18   O83   1.301112 A    
C214  C262  1.461126 S    
C113  C129  1.391204 A    
N4    C164  1.434164 S    
C21   C28   1.421205 A    
C22   C36   1.415457 A    
C120  C164  1.400985 A    
N5    C165  1.434172 S    
C240  C252  1.399277 A    
S5    O110  1.502291 D    
O15   Zn7   2.017002 S    
C231  C261  1.402455 A    
C7    C207  1.445279 S    
O126  H106  0.990517 S    
N1    C161  1.434134 S    
C86   C110  1.407986 A    
C174  H54   1.082350 S    
O40   Zn10  2.016589 S    
C243  C255  1.399325 A    
S11   O127  1.503943 D    
C60   C76   1.413293 A    
C121  C165  1.401021 A    
C50   C66   1.390440 A    
C241  C253  1.399415 A    
N21   O89   1.301112 A    
S11   O129  1.681150 S    
C74   C98   1.408805 A    
O12   Zn8   2.017062 S    
C117  C133  1.391064 A    
C128  H32   1.082907 S    
C87   C111  1.408782 A    
C80   C92   1.416612 A    
C54   C70   1.392255 A    
C217  H65   1.083040 S    
C78   C102  1.407915 A    
C79   C91   1.418190 A    
C219  H67   1.083042 S    
S9    O123  1.680975 S    
O108  H100  0.990496 S    
C107  N5    1.365139 A    
C183  H63   1.082404 S    
C45   H5    1.076798 S    
C200  C208  1.411422 A    
C111  N7    1.363553 A    
C112  N8    1.365120 A    
O22   Zn4   2.020646 S    
O141  H111  0.990585 S    
O43   Zn11  2.016347 S    
C216  C264  1.461192 S    
O23   Zn3   2.020346 S    
C23   C26   1.421238 A    
N12   O72   1.301378 A    
S7    O115  1.503932 D    
C84   C108  1.408837 A    
O30   Zn8   2.020646 S    
O12   C8    1.280372 A    
O1    C1    1.280453 A    
C110  N8    1.365110 A    
C159  C256  1.448174 S    
O14   C6    1.280447 A    
C83   C107  1.407934 A    
C88   C96   1.416638 A    
C2    C202  1.445412 S    
C122  C166  1.399685 A    
C73   C97   1.407997 A    
C29   C39   1.416085 A    
C237  H85   1.083439 S    
C154  C251  1.448159 S    
C243  H91   1.083433 S    
O36   Zn9   2.016587 S    
C238  C250  1.399349 A    
C76   C100  1.408772 A    
S16   O143  1.502369 D    
C75   C89   1.416633 A    
C77   C101  1.408842 A    
C26   C50   1.409528 A    
C64   N16   1.435741 S    
N20   O87   1.301112 A    
C58   N10   1.434523 S    
C19   C33   1.415443 A    
N11   O69   1.301251 A    
C80   C104  1.407954 A    
C247  H95   1.083443 S    
C97   O49   1.348962 S    
S8    O119  1.502366 D    
O138  H110  0.990516 S    
C20   C34   1.416103 A    
N23   O93   1.301119 A    
N11   O70   1.301488 A    
S1    O97   1.503933 D    
C179  H59   1.082345 S    
C65   N17   1.435760 S    
S4    O106  1.503932 D    
C44   H4    1.076842 S    
O45   C157  1.284767 A    
C32   C40   1.415436 A    
C143  H47   1.082875 S    
C22   C46   1.408826 A    
C122  C138  1.391044 A    
C37   C93   1.419730 A    
C44   C60   1.390437 A    
C51   C67   1.392227 A    
C225  H73   1.083064 S    
C226  C262  1.402539 A    
C197  S13   1.772890 S    
O10   C6    1.280369 A    
O18   C10   1.286966 A    
S10   O124  1.503967 D    
C103  N3    1.363477 A    
C24   C48   1.408829 A    
C211  C259  1.461130 S    
C138  C150  1.404157 A    
C100  N2    1.363524 A    
O38   C156  1.284688 A    
C29   C53   1.409478 A    
C43   C59   1.392252 A    
C156  C249  1.448135 S    
C180  C196  1.390216 A    
C31   C55   1.409525 A    
C242  H90   1.083435 S    
C231  H79   1.083064 S    
O47   C159  1.284874 A    
O129  H107  0.990490 S    
C86   C96   1.416634 A    
C176  C192  1.390425 A    
C140  C150  1.404152 A    
C180  C216  1.397846 A    
O35   C155  1.284644 A    
C141  C151  1.404241 A    
C8    C208  1.445425 S    
C142  C152  1.403525 A    
C22   C27   1.418926 A    
C140  H44   1.082874 S    
O31   Zn7   2.020346 S    
C141  H45   1.082896 S    
S2    O101  1.502298 D    
C108  N6    1.363472 A    
C131  C145  1.403531 A    
C134  H38   1.082876 S    
C103  O55   1.348775 S    
C133  H37   1.082875 S    
O144  H112  0.990500 S    
C123  C139  1.391159 A    
S9    O121  1.503572 D    
O21   C11   1.287071 A    
S13   O134  1.502315 D    
O22   C12   1.286875 A    
C115  C161  1.400971 A    
C113  H17   1.082907 S    
C228  C264  1.402519 A    
C71   N23   1.434562 S    
C144  C152  1.403514 A    
O13   Zn5   2.016999 S    
N17   O82   1.301490 A    
S14   O137  1.502362 D    
S2    O102  1.681201 S    
C170  C186  1.390210 A    
C210  C258  1.461111 S    
C115  C131  1.391247 A    
O48   C158  1.284726 A    
C66   C82   1.413271 A    
C220  C260  1.402507 A    
C178  C194  1.390230 A    
O3    Zn3   2.016669 S    
S6    O113  1.502359 D    
C114  C130  1.390960 A    
C65   C81   1.413731 A    
C70   C86   1.413771 A    
C128  C144  1.391211 A    
C63   C79   1.413269 A    
N15   O77   1.301113 A    
C218  C258  1.402534 A    
O32   Zn6   2.020641 S    
C185  C201  1.411430 A    
C187  S3    1.773033 S    
C139  C149  1.403632 A    
C43   H3    1.078689 S    
O28   Zn8   2.020635 S    
C56   H16   1.078693 S    
C105  N5    1.365148 A    
C230  C246  1.386064 A    
C41   H1    1.078693 S    
C224  H72   1.083043 S    
S3    O103  1.503945 D    
C236  C252  1.399367 A    
C112  O64   1.348962 S    
C194  S10   1.772839 S    
C183  C199  1.390230 A    
C124  C140  1.391072 A    
C235  H83   1.083437 S    
C50   H10   1.076790 S    
C57   C73   1.413770 A    
S4    O108  1.681201 S    
C233  H81   1.083432 S    
C48   H8    1.078678 S    
C197  C207  1.411391 A    
N16   O80   1.301491 A    
O40   C154  1.284698 A    
C39   C95   1.422009 A    
C121  H25   1.082913 S    
C118  H22   1.082903 S    
C175  C191  1.390206 A    
O11   Zn7   2.016669 S    
O135  H109  0.990503 S    
C232  C264  1.402633 A    
C200  S16   1.773047 S    
S3    O105  1.681167 S    
N6    C166  1.431783 S    
C229  C245  1.386084 A    
C113  C161  1.400973 A    
C68   C84   1.413273 A    
N18   O84   1.301371 A    
C155  C252  1.448184 S    
N2    C162  1.431842 S    
O5    C3    1.280376 A    
C49   H9    1.078682 S    
C45   C61   1.390424 A    
C85   C109  1.408789 A    
S5    O111  1.681197 S    
C75   C99   1.407982 A    
C114  H18   1.082898 S    
O7    Zn3   2.017002 S    
C248  C256  1.399273 A    
C221  C259  1.402530 A    
C186  C202  1.411418 A    
C189  C203  1.411372 A    
C224  C260  1.402635 A    
C191  S7    1.772779 S    
C14   C150  1.464950 S    
C83   C93   1.416605 A    
O29   C15   1.286654 A    
C101  O53   1.348774 S    
C179  C195  1.390378 A    
O17   Zn1   2.020341 S    
C56   C72   1.392264 A    
C99   O51   1.348965 S    
C32   C56   1.408806 A    
C63   N15   1.434521 S    
N14   O75   1.301252 A    
C116  C132  1.391066 A    
C188  S4    1.772718 S    
S1    O99   1.681169 S    
C97   N1    1.365115 A    
O46   Zn12  2.016581 S    
C225  C241  1.386136 A    
C110  O62   1.348963 S    
C64   C80   1.413733 A    
C12   C148  1.464265 S    
C229  C263  1.402530 A    
N10   O68   1.301378 A    
C48   C64   1.392246 A    
C40   C96   1.419758 A    
C119  C163  1.399693 A    
C245  C255  1.399361 A    
C223  C239  1.386077 A    
O2    C2    1.280376 A    
N7    C167  1.431882 S    
N8    C168  1.434135 S    
N22   O92   1.301488 A    
O39   C155  1.284866 A    
N24   O96   1.301487 A    
S1    O98   1.502361 D    
C231  C247  1.386148 A    
C82   C94   1.418192 A    
C17   C41   1.408807 A    
C144  H48   1.082876 S    
C246  H94   1.083444 S    
O8    C4    1.280450 A    
C129  H33   1.082877 S    
C88   C112  1.407994 A    
C119  H23   1.082895 S    
C105  O57   1.348971 S    
S12   O130  1.503941 D    
C68   N20   1.434516 S    
C136  C148  1.403469 A    
C129  C145  1.403516 A    
C171  H51   1.082344 S    
C59   C75   1.413774 A    
O46   C160  1.284802 A    
C172  H52   1.082340 S    
C1    C201  1.445364 S    
C4    C204  1.445437 S    
C137  H41   1.082956 S    
C51   H11   1.078664 S    
O42   Zn11  2.016585 S    
C3    C203  1.445358 S    
S5    O109  1.503943 D    
C221  C237  1.386074 A    
N9    O66   1.301490 A    
C198  S14   1.773049 S    
O47   Zn12  2.016947 S    
O43   C159  1.284632 A    
C120  H24   1.082908 S    
O35   Zn9   2.016347 S    
C126  H30   1.082906 S    
C179  C215  1.397948 A    
C53   H13   1.076855 S    
O36   C156  1.284798 A    
O114  H102  0.990512 S    
C226  H74   1.083042 S    
C219  C235  1.386092 A    
O16   C8    1.280443 A    
O44   C160  1.284873 A    
C81   C93   1.416604 A    
C173  C189  1.390206 A    
C5    C205  1.445185 S    
O48   Zn12  2.016589 S    
C189  S5    1.772781 S    
C244  H92   1.083452 S    
O4    Zn4   2.017062 S    
S15   O140  1.502308 D    
C184  C200  1.390432 A    
O25   Zn5   2.020341 S    
O6    C2    1.280443 A    
O44   Zn11  2.016587 S    
C171  C211  1.397947 A    
C178  C214  1.397864 A    
O27   Zn7   2.020940 S    
C240  H88   1.083432 S    
C241  H89   1.083441 S    
O123  H105  0.990499 S    
C130  C146  1.404104 A    
C82   C106  1.408846 A    
N19   O85   1.301251 A    
C224  C240  1.386147 A    
C131  H35   1.082873 S    
O7    C1    1.280380 A    
C222  C258  1.402541 A    
C248  H96   1.083437 S    
C142  H46   1.082878 S    
C62   N14   1.435745 S    
C220  C236  1.386054 A    
C111  O63   1.348789 S    
C187  C203  1.411434 A    
C6    C206  1.445406 S    
C177  C213  1.398093 A    
C25   C37   1.415448 A    
O19   C9    1.286930 A    
S11   O128  1.502379 D    
C15   C151  1.465243 S    
O24   C12   1.286823 A    
C126  C142  1.391247 A    
C49   C65   1.392247 A    
C118  C134  1.391234 A    
C125  C141  1.390970 A    
C175  H55   1.082346 S    
C199  C205  1.411210 A    
N20   O88   1.301370 A    
O24   Zn2   2.020641 S    
C196  C208  1.411386 A    
C30   C40   1.415439 A    
C218  H66   1.083044 S    
C77   C91   1.418202 A    
C53   C69   1.390438 A    
C212  C260  1.461183 S    
C181  H61   1.082348 S    
C157  C254  1.448258 S    
C246  C254  1.399357 A    
C55   C71   1.390472 A    
O38   Zn10  2.016581 S    
C193  S9    1.772909 S    
C160  C253  1.448504 S    
C42   H2    1.076818 S    
C41   C57   1.392272 A    
C84   C94   1.418198 A    
O34   Zn9   2.016585 S    
C209  C257  1.461148 S    
C85   C95   1.418174 A    
S4    O107  1.502272 D    
C217  C257  1.402597 A    
C116  C162  1.399765 A    
O37   Zn10  2.016351 S    
C143  C151  1.404169 A    
O30   C16   1.286896 A    
C232  H80   1.083043 S    
S12   O132  1.681195 S    
C47   C63   1.390442 A    
C24   C25   1.418908 A    
C46   C62   1.392231 A    
C173  C211  1.397864 A    
C169  C185  1.390385 A    
C174  C210  1.397896 A    
C106  N6    1.363476 A    
O4    C4    1.280368 A    
C109  N7    1.363541 A    
C78   C92   1.416594 A    
O14   Zn8   2.016729 S    
S10   O125  1.502302 D    
C199  S15   1.772800 S    
C133  C147  1.404161 A    
S15   O141  1.680992 S    
S9    O122  1.502397 D    
C124  H28   1.082894 S    
S3    O104  1.502361 D    
C34   C90   1.422014 A    
C239  H87   1.083438 S    
O20   Zn4   2.020635 S    
C69   N21   1.434506 S    
O20   C10   1.287029 A    
O99   H97   0.990490 S    
N21   O90   1.301372 A    
C27   C51   1.408833 A    
O10   Zn6   2.017060 S    
C227  C263  1.402575 A    
C220  H68   1.083042 S    
S7    O116  1.502289 D    
C178  H58   1.082354 S    
C98   O50   1.348780 S    
C127  C143  1.391103 A    
O15   C5    1.280310 A    
O9    Zn5   2.016672 S    
S10   O126  1.681198 S    
C245  H93   1.083433 S    
N15   O78   1.301370 A    
O117  H103  0.990499 S    
C115  H19   1.082904 S    
C181  C197  1.390231 A    
O1    Zn1   2.016672 S    
N3    C163  1.431782 S    
