data_mof_unit_58133.cif
_audit_creation_date              2012-12-10T17:35:33-0500
_audit_creation_method            fapswitch 2.2
_symmetry_space_group_name_H-M    P1
_symmetry_Int_Tables_number       1
_space_group_crystal_system       triclinic
_cell_length_a                    10.726711
_cell_length_b                    12.31692
_cell_length_c                    13.126012
_cell_angle_alpha                 116.673564
_cell_angle_beta                  77.502192
_cell_angle_gamma                 101.706716
_cell_volume                      1501.77429312

loop_
_atom_site_label
_atom_site_type_symbol
_atom_type_description
_atom_site_fract_x
_atom_site_fract_y
_atom_site_fract_z
_atom_type_partial_charge
C1    C     C_R   0.512650 0.854718 0.285958 0.786667
C2    C     C_3   0.121982 0.999793 0.500244 0.034510
C3    C     C_3   0.047413 0.024147 0.623309 0.292759
C4    C     C_3   0.064900 0.875207 0.412020 -0.326729
C5    C     C_R   0.325663 0.273487 0.023916 -0.086118
C6    C     C_R   0.449320 0.227907 0.835427 -0.026480
C7    C     C_R   0.600568 0.812151 0.081118 0.505081
C8    C     C_R   0.612833 0.733205 0.964410 -0.214801
C9    C     C_R   0.559429 0.611877 0.928125 -0.238320
C10   C     C_R   0.487818 0.566525 0.008034 0.088468
C11   C     C_R   0.455427 0.651033 0.123018 -0.054312
C12   C     C_R   0.740031 0.001003 0.501058 0.834694
C13   C     C_R   0.446933 0.440064 0.976943 0.016829
C14   C     C_R   0.362389 0.400201 0.056775 0.022376
C15   C     C_R   0.315958 0.488066 0.166046 0.415474
C16   C     C_R   0.359781 0.611668 0.195834 -0.257606
C17   C     C_R   0.492417 0.351724 0.869107 -0.156029
C18   C     C_R   0.368051 0.188318 0.913886 -0.238850
C19   C     C_R   0.519350 0.772829 0.161803 -0.185201
C20   C     C_R   0.707533 0.349552 0.330753 -0.239876
C21   C     C_R   0.324998 0.758175 0.644857 0.124880
C22   C     C_R   0.285770 0.660282 0.675072 -0.214162
C23   C     C_R   0.478264 0.145083 0.713743 0.863537
C24   C     C_R   0.350811 0.556966 0.619855 -0.174366
C25   C     C_R   0.456835 0.550298 0.533227 0.018670
C26   C     C_R   0.493019 0.652886 0.504677 0.316990
C27   C     C_R   0.528590 0.446525 0.474339 -0.014632
C28   C     C_R   0.634382 0.448032 0.388753 0.169673
C29   C     C_R   0.667286 0.547993 0.361668 -0.248480
C30   C     C_R   0.598382 0.647754 0.418129 -0.189704
C31   C     C_R   0.501144 0.340746 0.496476 0.029654
C32   C     C_R   0.676145 0.249255 0.357268 0.119656
C33   C     C_R   0.260208 0.999262 0.498833 0.758522
C34   C     C_3   0.962951 0.096153 0.458015 -0.331923
C35   C     C_3   0.104395 0.101026 0.465962 -0.455022
C36   C     C_3   0.905009 0.038974 0.627817 0.198079
C37   C     C_3   0.919023 0.874487 0.421567 -0.470095
C38   C     C_3   0.878433 0.003991 0.503228 -0.015346
Cu1   Cu    Cu3+1 0.529690 0.098270 0.475420 0.978464
Cu2   Cu    Cu3+1 0.470310 0.901730 0.524580 0.959327
H1    H     H_    0.933345 0.189619 0.507681 0.250402
H2    H     H_    0.082507 0.797960 0.427092 0.242487
H3    H     H_    0.839865 0.974377 0.659467 0.127771
H4    H     H_    0.334131 0.092105 0.889162 0.144029
H5    H     H_    0.262044 0.238607 0.081257 0.208893
H6    H     H_    0.562729 0.376806 0.808776 0.177713
H7    H     H_    0.574101 0.556593 0.836481 0.153750
H8    H     H_    0.668882 0.765127 0.901721 0.165490
H9    H     H_    0.951592 0.067131 0.366672 0.161014
H10   H     H_    0.316180 0.677258 0.276436 0.206036
H11   H     H_    0.732700 0.173473 0.313485 0.140882
H12   H     H_    0.748041 0.549579 0.296119 0.168126
H13   H     H_    0.788870 0.350382 0.265544 0.184615
H14   H     H_    0.422265 0.331561 0.559752 0.115355
H15   H     H_    0.274399 0.838044 0.688494 0.137211
H16   H     H_    0.316398 0.484055 0.646825 0.137645
H17   H     H_    0.204715 0.664606 0.741727 0.148585
H18   H     H_    0.632273 0.719218 0.390920 0.198651
H19   H     H_    0.162608 0.088559 0.381015 0.198539
H20   H     H_    0.138851 0.192935 0.530227 0.214418
H21   H     H_    0.097847 0.110266 0.683938 0.089802
H22   H     H_    0.866748 0.806730 0.455166 0.204833
H23   H     H_    0.893323 0.843987 0.334224 0.160624
H24   H     H_    0.112084 0.860236 0.323176 0.153248
N1    N     N_R   0.574690 0.246280 0.438200 -0.185628
N2    N     N_R   0.426100 0.754320 0.561190 -0.207945
O1    O     O_R   0.537340 0.972510 0.318130 -0.527398
O2    O     O_R   0.487200 0.806530 0.359650 -0.608418
O3    O     O_R   0.707380 0.082980 0.479220 -0.564783
O4    O     O_R   0.657240 0.917000 0.520740 -0.618197
O5    O     O_R   0.512800 0.193470 0.640350 -0.576731
O6    O     O_R   0.462660 0.027490 0.681870 -0.590836
O7    O     O_R   0.342760 0.083000 0.479260 -0.606386
O8    O     O_R   0.292620 0.917020 0.520780 -0.545410
O9    O     O_3   0.050781 0.924154 0.648767 -0.576701
C39   C     C_3   0.044065 0.963148 0.768467 -0.324467
H25   H     H_    0.954944 0.005705 0.816753 0.207947
H26   H     H_    0.130385 0.027401 0.800836 0.149725
H27   H     H_    0.041818 0.882046 0.785123 0.180708
S1    S     S_3+6 0.206939 0.447625 0.269948 -0.033799
O10   O     O_2   0.173917 0.559746 0.377752 -0.298604
O11   O     O_2   0.085821 0.377865 0.220437 -0.328506
O12   O     O_3   0.275486 0.358562 0.303199 -0.553099
H28   H     H_    0.213214 0.344283 0.365022 0.371221
O13   O     O_3   0.665124 0.929389 0.115138 -0.558438
C40   C     C_3   0.793776 0.924715 0.120613 -0.319506
H29   H     H_    0.843999 0.866251 0.035080 0.158608
H30   H     H_    0.798940 0.892189 0.186057 0.135786
H31   H     H_    0.846192 0.018389 0.147074 0.187034
S2    S     S_3+6 0.870756 0.191614 0.732474 -0.045678
O14   O     O_2   0.756197 0.225837 0.710553 -0.285098
O15   O     O_2   0.842407 0.194462 0.850897 -0.312983
O16   O     O_3   0.996671 0.297075 0.727955 -0.565416
H32   H     H_    0.037387 0.320187 0.796947 0.356624

loop_
_geom_bond_atom_site_label_1
_geom_bond_atom_site_label_2
_ccdc_geom_bond_type
C2    C35   S    
C12   O3    A    
O16   H32   S    
C21   N2    A    
C39   H27   S    
C22   H17   S    
C37   H22   S    
C7    C8    A    
O13   C40   S    
C11   C19   A    
C37   C38   S    
Cu2   O4    S    
C28   C29   A    
C39   H26   S    
C40   H30   S    
C15   C16   A    
C1    O2    A    
C35   H19   S    
C34   C35   S    
O12   H28   S    
C8    C9    A    
C24   C25   A    
C3    O9    S    
C9    C10   A    
Cu2   N2    S    
C21   C22   A    
Cu1   N1    S    
C34   H1    S    
S1    O12   S    
C37   H23   S    
C3    H21   S    
C6    C18   A    
C1    C19   S    
C27   C31   A    
C26   N2    A    
C23   O5    A    
C17   H6    S    
S1    O11   D    
Cu1   Cu2   S    
C21   H15   S    
C40   H29   S    
C20   H13   S    
C5    C18   A    
C20   C28   A    
C25   C26   A    
C5    H5    S    
C10   C13   A    
C35   H20   S    
C2    C4    S    
O9    C39   S    
C8    H8    S    
C32   H11   S    
C29   C30   A    
C18   H4    S    
C11   C16   A    
S2    O15   D    
C15   S1    S    
Cu1   O3    S    
C39   H25   S    
C5    C14   A    
C2    C33   S    
C33   O7    A    
C26   C30   A    
C7    C19   A    
C22   C24   A    
C24   H16   S    
S2    O16   S    
C20   C32   A    
C36   S2    S    
C31   N1    A    
C6    C17   A    
C12   O4    A    
C34   H9    S    
Cu2   O6    S    
C34   C38   S    
Cu1   O1    S    
C23   O6    A    
C16   H10   S    
S1    O10   D    
C40   H31   S    
C9    H7    S    
C25   C27   A    
C4    H24   S    
C13   C17   A    
C36   C38   S    
C2    C3    S    
S2    O14   D    
C7    O13   S    
C4    H2    S    
C3    C36   S    
C6    C23   S    
C30   H18   S    
C1    O1    A    
Cu2   O8    S    
Cu1   O7    S    
C31   H14   S    
C12   C38   S    
C10   C11   A    
C33   O8    A    
C4    C37   S    
Cu2   O2    S    
C27   C28   A    
Cu1   O5    S    
C14   C15   A    
C36   H3    S    
C13   C14   A    
C32   N1    A    
C29   H12   S    
