data_mof_unit_13124.cif
_audit_creation_date              2012-12-10T17:35:52-0500
_audit_creation_method            fapswitch 2.2
_symmetry_space_group_name_H-M    P1
_symmetry_Int_Tables_number       1
_space_group_crystal_system       triclinic
_cell_length_a                    10.539182
_cell_length_b                    11.990623
_cell_length_c                    12.868893
_cell_angle_alpha                 93.723324
_cell_angle_beta                  90.17136
_cell_angle_gamma                 86.288897
_cell_volume                      1619.42276855

loop_
_atom_site_label
_atom_site_type_symbol
_atom_type_description
_atom_site_fract_x
_atom_site_fract_y
_atom_site_fract_z
_atom_type_partial_charge
C1    C     C_R   0.499811 0.522440 0.700433 0.975312
C2    C     C_R   0.601458 0.162628 0.592460 0.063609
C3    C     C_R   0.546800 0.858947 0.545289 -0.023310
C4    C     C_R   0.453200 0.141053 0.454711 -0.023307
C5    C     C_R   0.540079 0.976161 0.537645 0.083555
C6    C     C_R   0.459921 0.023839 0.462355 0.083556
C7    C     C_R   0.742339 0.500183 0.499950 1.001237
C8    C     C_R   0.257661 0.499816 0.500050 1.001233
C9    C     C_3   0.965325 0.393937 0.507225 -0.256613
C10   C     C_3   0.034675 0.606063 0.492775 -0.256613
C11   C     C_3   0.044277 0.460008 0.588479 -0.079602
C12   C     C_R   0.500187 0.477560 0.299567 0.975313
C13   C     C_3   0.955723 0.539992 0.411521 -0.079602
C14   C     C_3   0.123349 0.499524 0.500096 -0.110322
C15   C     C_3   0.876651 0.500476 0.499904 -0.110323
C16   C     C_3   0.045642 0.434885 0.418748 -0.073438
C17   C     C_3   0.954358 0.565115 0.581252 -0.073439
C18   C     C_R   0.501061 0.463406 0.188133 -0.068471
C19   C     C_R   0.498929 0.536594 0.811868 -0.068472
C20   C     C_R   0.448645 0.648314 0.970430 -0.020420
C21   C     C_R   0.551331 0.351684 0.029569 -0.020427
C22   C     C_R   0.456036 0.638182 0.862484 -0.221172
C23   C     C_R   0.537412 0.444649 0.867157 -0.195962
C24   C     C_R   0.543946 0.361816 0.137515 -0.221175
C25   C     C_2   0.090361 0.415156 0.689077 0.947873
C26   C     C_2   0.909639 0.584844 0.310923 0.947875
C27   C     C_2   0.093490 0.361506 0.326304 0.933519
C28   C     C_2   0.906510 0.638494 0.673696 0.933520
C29   C     C_2   0.413208 0.760963 0.021083 0.903179
C30   C     C_2   0.586750 0.239031 0.978915 0.903178
C31   C     C_R   0.462574 0.555352 0.132845 -0.195968
C32   C     C_R   0.521988 0.448268 0.973773 0.085160
C33   C     C_R   0.477991 0.551732 0.026227 0.085156
C34   C     C_R   0.388775 0.953396 0.396992 -0.297384
C35   C     C_R   0.611225 0.046604 0.603008 -0.297391
C36   C     C_R   0.398542 0.837372 0.407539 0.063610
H1    H     H_    0.420923 0.630054 0.174253 0.191006
H2    H     H_    0.757152 0.699491 0.762342 0.346367
H3    H     H_    0.570190 0.290132 0.182054 0.191845
H4    H     H_    0.429790 0.709867 0.817945 0.191839
H5    H     H_    0.448382 0.879518 0.134271 0.352541
H6    H     H_    0.551561 0.120486 0.865722 0.352542
H7    H     H_    0.391820 0.179280 0.397548 0.150647
H8    H     H_    0.608180 0.820720 0.602452 0.150648
H9    H     H_    0.326387 0.987564 0.338269 0.162070
H10   H     H_    0.673613 0.012436 0.661731 0.162074
H11   H     H_    0.579069 0.369948 0.825749 0.191004
H12   H     H_    0.656130 0.216872 0.643072 0.144231
H13   H     H_    0.343870 0.783128 0.356927 0.144231
H14   H     H_    0.238133 0.380719 0.784270 0.363600
H15   H     H_    0.761868 0.619276 0.215728 0.363596
H16   H     H_    0.935058 0.307549 0.513127 0.187368
H17   H     H_    0.064942 0.692451 0.486873 0.187368
H18   H     H_    0.242848 0.300508 0.237658 0.346366
N1    N     N_R   0.523490 0.207800 0.519350 -0.108715
N2    N     N_R   0.476510 0.792200 0.480650 -0.108716
O1    O     O_R   0.506270 0.421700 0.658830 -0.615098
O2    O     O_R   0.219495 0.412035 0.714122 -0.793348
O3    O     O_2   0.986288 0.617665 0.250665 -0.596036
O4    O     O_R   0.780505 0.587962 0.285876 -0.793349
O5    O     O_2   0.018011 0.311017 0.271910 -0.583669
O6    O     O_R   0.222928 0.352000 0.301950 -0.823374
O7    O     O_2   0.981989 0.688983 0.728089 -0.583666
O8    O     O_R   0.777072 0.647999 0.698050 -0.823373
O9    O     O_2   0.327795 0.820200 0.984381 -0.576606
O10   O     O_R   0.481097 0.801562 0.107548 -0.803066
O11   O     O_2   0.672148 0.179781 0.015620 -0.576616
O12   O     O_R   0.493730 0.578300 0.341170 -0.615100
O13   O     O_R   0.518860 0.198446 0.892445 -0.803066
O14   O     O_R   0.491200 0.609310 0.646410 -0.620454
O15   O     O_R   0.508800 0.390690 0.353590 -0.620452
O16   O     O_R   0.693580 0.406210 0.506230 -0.642076
O17   O     O_R   0.306420 0.593790 0.493770 -0.642077
O18   O     O_R   0.678510 0.593830 0.493810 -0.578659
O19   O     O_R   0.321490 0.406170 0.506190 -0.578658
O20   O     O_2   0.013711 0.382336 0.749336 -0.596036
Zn1   Zn    Zn3+2 0.510060 0.374730 0.508290 1.004699
Zn2   Zn    Zn3+2 0.489940 0.625270 0.491710 1.004697

loop_
_geom_bond_atom_site_label_1
_geom_bond_atom_site_label_2
_ccdc_geom_bond_type
C2    C35   A    
O14   Zn2   S    
C12   O12   A    
C18   C24   A    
C9    C16   S    
C2    N1    A    
C5    C6    A    
N1    Zn1   S    
C11   C14   S    
C11   C25   S    
C10   C17   S    
C24   H3    S    
N2    Zn2   S    
C10   H17   S    
C27   O5    D    
O17   Zn2   S    
C31   C33   A    
C26   O3    D    
C30   O11   D    
C16   C27   S    
C7    C15   S    
C9    H16   S    
C7    O18   A    
H2    O8    S    
C20   C29   S    
O12   Zn2   S    
C21   C32   A    
C3    H8    S    
C1    C19   S    
C23   H11   S    
H14   O2    S    
O1    Zn1   S    
C19   C22   A    
C4    C6    A    
C10   C14   S    
C7    O16   A    
H18   O6    S    
C2    H12   S    
H6    O13   S    
C6    C34   A    
C19   C23   A    
O16   Zn1   S    
C36   N2    A    
C27   O6    S    
C1    O1    A    
O19   Zn1   S    
C3    N2    A    
C22   H4    S    
C34   H9    S    
C9    C11   S    
C29   O9    D    
C20   C33   A    
C28   O8    S    
C12   O15   A    
C20   C22   A    
C13   C15   S    
C4    N1    A    
C14   C16   S    
C13   C26   S    
C21   C24   A    
C25   O2    S    
O15   Zn1   S    
C30   O13   S    
C15   C17   S    
C11   C17   S    
C8    C14   S    
C17   C28   S    
C3    C5    A    
C10   C13   S    
H5    O10   S    
H15   O4    S    
C4    H7    S    
C21   C30   S    
C1    O14   A    
C25   O20   D    
C23   C32   A    
C9    C15   S    
C32   C33   A    
C5    C35   A    
C8    O17   A    
C34   C36   A    
C8    O19   A    
C29   O10   S    
C28   O7    D    
C31   H1    S    
O18   Zn2   S    
C13   C16   S    
C12   C18   S    
C18   C31   A    
C35   H10   S    
C26   O4    S    
C36   H13   S    
