data_mof_unit_9657.cif
_audit_creation_date              2012-12-10T17:47:01-0500
_audit_creation_method            fapswitch 2.2
_symmetry_space_group_name_H-M    P1
_symmetry_Int_Tables_number       1
_space_group_crystal_system       triclinic
_cell_length_a                    9.980715
_cell_length_b                    10.592437
_cell_length_c                    13.598091
_cell_angle_alpha                 91.978619
_cell_angle_beta                  82.475334
_cell_angle_gamma                 91.460882
_cell_volume                      1424.04287515

loop_
_atom_site_label
_atom_site_type_symbol
_atom_type_description
_atom_site_fract_x
_atom_site_fract_y
_atom_site_fract_z
_atom_type_partial_charge
C1    C     C_R   0.501235 0.739202 0.501240 0.851356
C2    C     C_R   0.557868 0.933486 0.422533 -0.203800
C3    C     C_R   0.554121 0.062395 0.421769 -0.212540
C4    C     C_R   0.475334 0.501404 0.685531 0.852195
C5    C     C_R   0.495198 0.128497 0.505845 -0.071421
C6    C     C_R   0.843115 0.630793 0.658154 0.221682
C7    C     C_R   0.897467 0.641603 0.748851 0.198541
C8    C     C_R   0.037306 0.646678 0.744864 -0.245552
C9    C     C_R   0.117048 0.620593 0.655460 -0.187019
C10   C     C_R   0.061083 0.560183 0.576576 0.130125
C11   C     C_R   0.917294 0.562109 0.577120 0.092014
C12   C     C_1   0.457269 0.508325 0.789581 -0.197758
C13   C     C_R   0.940076 0.441231 0.426737 -0.111190
C14   C     C_R   0.082686 0.441535 0.426658 -0.099300
C15   C     C_R   0.498449 0.260838 0.500935 0.858081
C16   C     C_R   0.524653 0.498000 0.314396 0.897842
C17   C     C_1   0.542799 0.484723 0.210386 -0.214641
C18   C     C_2   0.551958 0.459070 0.018633 0.216472
C19   C     C_2   0.455447 0.519657 0.980916 -0.179470
C20   C     C_1   0.450220 0.514590 0.877425 0.005067
C21   C     C_1   0.551981 0.471590 0.122627 -0.016091
C22   C     C_3   0.771739 0.748879 0.637986 -0.779652
C23   C     C_R   0.401579 0.873874 0.683550 -0.210306
C24   C     C_3   0.812641 0.682423 0.843818 -0.916791
C25   C     C_3   0.651289 0.372740 0.958021 -0.861340
C26   C     C_3   0.299586 0.875178 0.863496 -0.963119
C27   C     C_R   0.348084 0.941739 0.769368 0.282437
C28   C     C_R   0.341125 0.073195 0.767251 -0.146989
C29   C     C_R   0.388187 0.136324 0.680727 -0.231920
C30   C     C_R   0.442617 0.068543 0.593946 0.094784
C31   C     C_R   0.448170 0.936735 0.595136 0.049242
C32   C     C_R   0.503456 0.871858 0.507591 -0.073799
H1    H     H_    0.383011 0.577924 0.027681 0.132719
H2    H     H_    0.896333 0.392718 0.366873 0.143241
H3    H     H_    0.661838 0.737840 0.661620 0.239660
H4    H     H_    0.805424 0.832016 0.681418 0.215201
H5    H     H_    0.799434 0.776479 0.559880 0.245389
H6    H     H_    0.703194 0.673151 0.836892 0.256360
H7    H     H_    0.834048 0.622436 0.905021 0.247272
H8    H     H_    0.836925 0.782448 0.862941 0.243201
H9    H     H_    0.728489 0.341080 0.003174 0.231970
H10   H     H_    0.596769 0.288190 0.931431 0.239794
H11   H     H_    0.704327 0.422244 0.893041 0.250435
H12   H     H_    0.084036 0.679888 0.808755 0.174415
H13   H     H_    0.312473 0.771430 0.854189 0.239041
H14   H     H_    0.357909 0.910516 0.923328 0.247932
H15   H     H_    0.190721 0.893774 0.886037 0.243757
H16   H     H_    0.220287 0.650454 0.649218 0.211677
H17   H     H_    0.144979 0.393102 0.366665 0.146607
H18   H     H_    0.600950 0.881370 0.356319 0.143883
H19   H     H_    0.408991 0.772545 0.686922 0.112597
H20   H     H_    0.300326 0.127090 0.833061 0.148078
H21   H     H_    0.382518 0.238153 0.682757 0.155411
H22   H     H_    0.595987 0.110921 0.355347 0.141626
N1    N     N_R   0.857120 0.501200 0.500900 -0.106614
N2    N     N_R   0.142720 0.501280 0.500940 -0.106385
O1    O     O_R   0.385310 0.683220 0.500000 -0.621122
O2    O     O_R   0.614640 0.683250 0.500010 -0.621938
O3    O     O_R   0.368830 0.499960 0.640340 -0.636120
O4    O     O_R   0.598160 0.499980 0.640350 -0.597604
O5    O     O_R   0.385360 0.316750 0.499990 -0.610152
O6    O     O_R   0.614690 0.316780 0.500000 -0.605055
O7    O     O_R   0.401840 0.500020 0.359650 -0.608186
O8    O     O_R   0.631170 0.500040 0.359660 -0.610236
Zn1   Zn    Zn3+2 0.346870 0.499980 0.499990 0.940918
Zn2   Zn    Zn3+2 0.653130 0.500020 0.500010 0.945085

loop_
_geom_bond_atom_site_label_1
_geom_bond_atom_site_label_2
_ccdc_geom_bond_type
C25   H10   S    
C14   N2    A    
O7    Zn1   S    
C6    C7    A    
C16   O7    A    
C1    O1    A    
C4    C12   S    
C18   C21   S    
C22   H4    S    
C9    C10   A    
C16   O8    A    
C24   H6    S    
C31   C32   A    
C4    O4    A    
C2    C3    A    
C15   O5    A    
O4    Zn2   S    
C13   H2    S    
O8    Zn2   S    
C13   C14   A    
O3    Zn1   S    
C22   H3    S    
C28   H20   S    
C12   C20   T    
C26   C27   S    
C29   C30   A    
C18   C25   S    
C29   H21   S    
C26   H15   S    
C4    O3    A    
C27   C28   A    
C25   H11   S    
C24   H8    S    
C15   O6    A    
C18   C19   D    
C23   C27   A    
C6    C11   A    
C30   C31   A    
C3    H22   S    
C5    C15   S    
C14   H17   S    
C16   C17   S    
C10   C11   A    
C26   H14   S    
C7    C24   S    
C6    C22   S    
O5    Zn1   S    
C7    C8    A    
N1    Zn2   S    
C11   N1    A    
C9    H16   S    
C2    C32   A    
C5    C30   A    
C19   H1    S    
C25   H9    S    
N2    Zn1   S    
C10   N2    A    
O6    Zn2   S    
C28   C29   A    
C2    H18   S    
C26   H13   S    
C3    C5    A    
C1    O2    A    
C22   H5    S    
C23   H19   S    
C24   H7    S    
O2    Zn2   S    
C1    C32   S    
C17   C21   T    
C19   C20   S    
O1    Zn1   S    
C8    C9    A    
C13   N1    A    
C8    H12   S    
C23   C31   A    
