data_mof_unit_26438.cif
_audit_creation_date              2012-12-10T20:27:52-0500
_audit_creation_method            fapswitch 2.2
_symmetry_space_group_name_H-M    P1
_symmetry_Int_Tables_number       1
_space_group_crystal_system       triclinic
_cell_length_a                    12.741657
_cell_length_b                    10.753364
_cell_length_c                    9.946698
_cell_angle_alpha                 89.060512
_cell_angle_beta                  97.248381
_cell_angle_gamma                 89.812375
_cell_volume                      1351.76096345

loop_
_atom_site_label
_atom_site_type_symbol
_atom_type_description
_atom_site_fract_x
_atom_site_fract_y
_atom_site_fract_z
_atom_type_partial_charge
C1    C     C_R   0.502969 0.260600 0.501083 0.906612
C2    C     C_R   0.024576 0.458655 0.528570 0.191267
C3    C     C_R   0.980001 0.577452 0.487627 0.050841
C4    C     C_R   0.870414 0.594103 0.489096 -0.082626
C5    C     C_R   0.862371 0.390199 0.601423 -0.187272
C6    C     C_R   0.967120 0.368754 0.589865 -0.124639
C7    C     C_R   0.554205 0.059648 0.612770 -0.001806
C8    C     C_R   0.513367 0.129229 0.499192 -0.066348
C9    C     C_R   0.486889 0.069371 0.375679 -0.213548
C10   C     C_R   0.477969 0.941559 0.373392 -0.061125
C11   C     C_R   0.507614 0.872173 0.494619 -0.143481
C12   C     C_R   0.298834 0.501063 0.473259 0.898175
C13   C     C_R   0.556437 0.932957 0.608335 0.151697
C14   C     C_3   0.548037 0.918720 0.756795 -0.280728
C15   C     C_3   0.543455 0.060988 0.761223 -0.291217
C16   C     C_R   0.429320 0.428788 0.059858 0.125918
C17   C     C_R   0.576606 0.559300 0.083097 -0.042121
C18   C     C_R   0.577260 0.557994 0.939737 -0.067901
C19   C     C_R   0.428148 0.432305 0.919115 0.192902
C20   C     C_3   0.310063 0.427788 0.890044 -0.384772
C21   C     C_3   0.309597 0.416661 0.046188 -0.289328
C22   C     C_R   0.499077 0.739839 0.498509 0.925547
C23   C     C_R   0.701305 0.500290 0.527000 0.901873
C24   C     C_R   0.813825 0.498437 0.545273 -0.096819
C25   C     C_R   0.188201 0.520336 0.457702 -0.005437
C26   C     C_R   0.047401 0.671793 0.444795 -0.007994
C27   C     C_R   0.149749 0.639444 0.424303 -0.201491
C28   C     C_R   0.127516 0.431001 0.511106 -0.199568
H1    H     H_    0.612668 0.104791 0.821753 0.166504
H2    H     H_    0.639077 0.606061 0.895303 0.171521
H3    H     H_    0.002626 0.280643 0.625937 0.161084
H4    H     H_    0.162475 0.341685 0.544627 0.133624
H5    H     H_    0.461029 0.121754 0.283344 0.212329
N1    N     N_R   0.499290 0.499140 0.142710 -0.108760
N2    N     N_R   0.499290 0.499180 0.857070 -0.098685
O1    O     O_R   0.500010 0.316790 0.614690 -0.634991
O2    O     O_R   0.500000 0.316760 0.385350 -0.601886
O3    O     O_R   0.346360 0.499990 0.595720 -0.627803
O4    O     O_R   0.346350 0.499960 0.366370 -0.577767
O5    O     O_R   0.500000 0.683240 0.614650 -0.603326
O6    O     O_R   0.499990 0.683210 0.385310 -0.600176
O7    O     O_R   0.653650 0.500040 0.633630 -0.605601
O8    O     O_R   0.653640 0.500010 0.404280 -0.632867
Zn1   Zn    Zn3+2 0.500010 0.500020 0.653130 1.000247
Zn2   Zn    Zn3+2 0.499990 0.499980 0.346870 1.028968
C29   C     C_2   0.811630 0.702081 0.420524 0.932677
O9    O     O_2   0.750921 0.761934 0.480566 -0.582762
O10   O     O_R   0.824971 0.734096 0.287087 -0.805890
H6    H     H_    0.782741 0.811003 0.253790 0.354437
C30   C     C_2   0.646377 0.865127 0.837203 0.955549
O11   O     O_2   0.715958 0.818006 0.780164 -0.561891
O12   O     O_R   0.656845 0.868534 0.978457 -0.769908
H7    H     H_    0.725450 0.828933 0.021428 0.347175
C31   C     C_2   0.438126 0.106129 0.795154 1.000668
O13   O     O_2   0.432578 0.148499 0.907175 -0.612257
O14   O     O_R   0.346936 0.095250 0.701832 -0.806337
H8    H     H_    0.281235 0.126966 0.738267 0.352370
H9    H     H_    0.637156 0.609961 0.145432 0.174320
C32   C     C_2   0.257860 0.545491 0.826241 1.020282
O15   O     O_2   0.161976 0.547529 0.795160 -0.616607
O16   O     O_R   0.317201 0.652454 0.808178 -0.758383
H10   H     H_    0.272176 0.724038 0.765349 0.341857
H11   H     H_    0.284622 0.343907 0.831187 0.181870
C33   C     C_2   0.248238 0.520466 0.102941 0.987472
O17   O     O_2   0.163949 0.498140 0.145045 -0.591308
O18   O     O_R   0.282091 0.643137 0.094912 -0.758249
H12   H     H_    0.224315 0.703722 0.111923 0.385300
C34   C     C_2   0.277386 0.289672 0.095693 1.010776
O19   O     O_2   0.234685 0.213875 0.016537 -0.590032
O20   O     O_R   0.292093 0.261947 0.234511 -0.797677
H13   H     H_    0.264703 0.176552 0.256584 0.344344
H14   H     H_    0.816839 0.317700 0.643858 0.155934
C35   C     C_2   0.022893 0.806798 0.441380 0.939374
O21   O     O_2   0.980863 0.853106 0.532713 -0.587716
O22   O     O_R   0.053581 0.882222 0.337472 -0.753335
H15   H     H_    0.034467 0.972927 0.347343 0.353881
H16   H     H_    0.203473 0.710306 0.395717 0.195986
C36   C     C_2   0.418653 0.889615 0.250936 0.993265
O23   O     O_2   0.335201 0.837083 0.260137 -0.629001
O24   O     O_R   0.454252 0.907516 0.124799 -0.732738
H17   H     H_    0.405442 0.869195 0.048309 0.372587
H18   H     H_    0.474509 0.870461 0.777875 0.174943

loop_
_geom_bond_atom_site_label_1
_geom_bond_atom_site_label_2
_ccdc_geom_bond_type
C16   C21   S    
C1    C8    S    
C35   O21   D    
C19   C20   S    
C10   C36   S    
C7    C8    A    
C4    C29   S    
C25   C28   A    
C26   C27   A    
C23   O7    A    
C5    H14   S    
C5    C6    A    
C4    C24   A    
C36   O24   S    
C22   O6    A    
C26   C35   S    
C23   O8    A    
O14   H8    S    
C21   C33   S    
C16   N1    A    
C31   O13   D    
C8    C9    A    
C30   O12   S    
C23   C24   S    
O20   H13   S    
C18   H2    S    
C18   N2    A    
C1    O2    A    
C17   H9    S    
O4    Zn2   S    
C7    C15   S    
O18   H12   S    
C32   O15   D    
C13   C14   S    
C9    H5    S    
C35   O22   S    
C2    C6    A    
O7    Zn1   S    
C15   H1    S    
C29   O10   S    
C31   O14   S    
C32   O16   S    
C15   C31   S    
C28   H4    S    
C36   O23   D    
C34   O19   D    
C30   O11   D    
C33   O18   S    
O22   H15   S    
O3    Zn1   S    
C7    C13   A    
C22   O5    A    
C17   C18   A    
N1    Zn2   S    
C20   C32   S    
N2    Zn1   S    
O8    Zn2   S    
O10   H6    S    
C21   C34   S    
O1    Zn1   S    
C17   N1    A    
C14   H18   S    
O2    Zn2   S    
C3    C4    A    
O12   H7    S    
C9    C10   A    
C29   O9    D    
C3    C26   A    
O24   H17   S    
C27   H16   S    
C25   C27   A    
C11   C22   S    
C12   C25   S    
C33   O17   D    
C12   O4    A    
C2    C3    A    
C19   N2    A    
C11   C13   A    
C14   C30   S    
C5    C24   A    
C20   H11   S    
C16   C19   A    
C6    H3    S    
C12   O3    A    
O16   H10   S    
C10   C11   A    
O5    Zn1   S    
C20   C21   S    
C34   O20   S    
O6    Zn2   S    
C14   C15   S    
C2    C28   A    
C1    O1    A    
