data_mof_unit_60350.cif
_audit_creation_date              2012-12-10T18:19:06-0500
_audit_creation_method            fapswitch 2.2
_symmetry_space_group_name_H-M    P1
_symmetry_Int_Tables_number       1
_space_group_crystal_system       triclinic
_cell_length_a                    32.274463
_cell_length_b                    32.274441
_cell_length_c                    35.651537
_cell_angle_alpha                 90.000544
_cell_angle_beta                  90.000241
_cell_angle_gamma                 90.0
_cell_volume                      37136.0759793

loop_
_atom_site_label
_atom_site_type_symbol
_atom_type_description
_atom_site_fract_x
_atom_site_fract_y
_atom_site_fract_z
_atom_type_partial_charge
C1    C     C_R   0.920485 0.500000 0.000000 0.823686
C2    C     C_R   0.526135 0.227875 0.975754 -0.151305
C3    C     C_R   0.526699 0.973197 0.634066 -0.041415
C4    C     C_R   0.973205 0.526707 0.365934 -0.041425
C5    C     C_R   0.473301 0.973197 0.365933 -0.041414
C6    C     C_R   0.026794 0.473293 0.365934 -0.041423
C7    C     C_R   0.526699 0.026802 0.365934 -0.041417
C8    C     C_R   0.473197 0.973302 0.134066 -0.041416
C9    C     C_R   0.973293 0.526794 0.134066 -0.041425
C10   C     C_R   0.526803 0.026698 0.134067 -0.041414
C11   C     C_R   0.026707 0.473206 0.134066 -0.041422
C12   C     C_R   0.473197 0.026698 0.865934 -0.041416
C13   C     C_R   0.227875 0.475500 0.974392 -0.151227
C14   C     C_R   0.973292 0.473206 0.865934 -0.041424
C15   C     C_R   0.526803 0.973302 0.865933 -0.041414
C16   C     C_R   0.026707 0.526794 0.865934 -0.041424
C17   C     C_R   0.000000 0.500000 0.613918 -0.120848
C18   C     C_R   0.500000 0.000000 0.613919 -0.120856
C19   C     C_R   1.000000 0.500000 0.386082 -0.120849
C20   C     C_R   0.500000 1.000000 0.386082 -0.120857
C21   C     C_R   0.500000 1.000000 0.113918 -0.120856
C22   C     C_R   1.000000 0.500000 0.113918 -0.120848
C23   C     C_R   0.500000 1.000000 0.886081 -0.120857
C24   C     C_R   0.473846 0.772125 0.975770 -0.151299
C25   C     C_R   0.000000 0.500000 0.886082 -0.120848
C26   C     C_R   1.000000 0.500000 0.692852 0.108075
C27   C     C_R   0.500000 1.000000 0.692852 0.108101
C28   C     C_R   1.000000 0.500000 0.307148 0.108075
C29   C     C_R   0.500000 1.000000 0.307148 0.108101
C30   C     C_R   0.500000 0.000000 0.192852 0.108101
C31   C     C_R   1.000000 0.500000 0.192852 0.108074
C32   C     C_R   0.500000 1.000000 0.807148 0.108102
C33   C     C_R   1.000000 0.500000 0.807148 0.108074
C34   C     C_1   1.000000 0.500000 0.733123 -0.029879
C35   C     C_R   0.772125 0.475826 0.025860 -0.151225
C36   C     C_1   0.500000 0.000000 0.733123 -0.029950
C37   C     C_1   1.000000 0.500000 0.266877 -0.029879
C38   C     C_1   0.500000 1.000000 0.266877 -0.029950
C39   C     C_1   0.500000 0.000000 0.233123 -0.029950
C40   C     C_1   1.000000 0.500000 0.233123 -0.029879
C41   C     C_1   0.500000 1.000000 0.766877 -0.029950
C42   C     C_1   1.000000 0.500000 0.766877 -0.029879
C43   C     C_R   0.728741 0.475401 0.026309 0.399644
C44   C     C_R   0.473406 0.271259 0.024667 0.399582
C45   C     C_R   0.271259 0.524930 0.026052 0.399644
C46   C     C_R   0.526153 0.772125 0.024230 -0.151304
C47   C     C_R   0.526612 0.728741 0.024651 0.399574
C48   C     C_R   0.728741 0.524599 0.973691 0.399643
C49   C     C_R   0.473387 0.728741 0.975349 0.399583
C50   C     C_R   0.271259 0.475070 0.973947 0.399643
C51   C     C_R   0.526594 0.271259 0.975333 0.399574
C52   C     C_R   0.228741 0.973397 0.524659 0.399576
C53   C     C_R   0.975283 0.771259 0.526218 0.399636
C54   C     C_R   0.771259 0.026344 0.524886 0.399581
C55   C     C_R   0.024928 0.228741 0.526054 0.399642
C56   C     C_R   0.228741 0.026603 0.475341 0.399582
C57   C     C_R   0.227875 0.524500 0.025608 -0.151227
C58   C     C_R   0.975073 0.228741 0.473945 0.399636
C59   C     C_R   0.771259 0.973656 0.475114 0.399576
C60   C     C_R   0.024717 0.771258 0.473782 0.399643
C61   C     C_R   0.706446 0.500000 0.000000 -0.081164
C62   C     C_R   0.500000 0.293554 1.000000 -0.081113
C63   C     C_R   0.293554 0.500000 1.000000 -0.081158
C64   C     C_R   0.500000 0.706446 0.000000 -0.081113
C65   C     C_R   0.206446 0.000000 0.500000 -0.081114
C66   C     C_R   0.000000 0.793554 0.500000 -0.081161
C67   C     C_R   0.793554 0.000000 0.500000 -0.081119
C68   C     C_R   0.473865 0.227875 0.024246 -0.151299
C69   C     C_R   0.000000 0.206446 0.500000 -0.081157
C70   C     C_1   0.946203 0.444293 0.615198 0.258776
C71   C     C_1   0.444310 0.053814 0.615200 0.258792
C72   C     C_1   0.053796 0.555707 0.615199 0.258768
C73   C     C_1   0.555690 0.946186 0.615200 0.258785
C74   C     C_1   0.946203 0.555707 0.384802 0.258771
C75   C     C_1   0.444310 0.946186 0.384800 0.258790
C76   C     C_1   0.053797 0.444294 0.384801 0.258775
C77   C     C_1   0.555691 0.053813 0.384801 0.258786
C78   C     C_1   0.446185 0.944311 0.115199 0.258794
C79   C     C_R   0.272125 0.026145 0.475762 -0.151299
C80   C     C_1   0.944293 0.553796 0.115199 0.258768
C81   C     C_1   0.553815 0.055689 0.115200 0.258793
C82   C     C_1   0.055707 0.446204 0.115199 0.258775
C83   C     C_1   0.446184 0.055689 0.884800 0.258793
C84   C     C_1   0.944292 0.446205 0.884801 0.258765
C85   C     C_1   0.553815 0.944311 0.884800 0.258794
C86   C     C_1   0.055707 0.553796 0.884802 0.258776
C87   C     C_R   0.024290 0.727875 0.474229 -0.151228
C88   C     C_R   0.727875 0.974110 0.475538 -0.151299
C89   C     C_R   0.500000 0.079515 0.000000 0.823760
C90   C     C_R   0.975503 0.272125 0.474390 -0.151234
C91   C     C_R   0.272125 0.973855 0.524238 -0.151302
C92   C     C_R   0.024498 0.272125 0.525609 -0.151228
C93   C     C_R   0.727875 0.025890 0.524462 -0.151295
C94   C     C_R   0.975710 0.727875 0.525771 -0.151233
C95   C     C_R   0.793823 0.500000 0.000000 -0.039260
C96   C     C_R   0.500000 0.206177 1.000000 -0.039426
C97   C     C_R   0.206177 0.500000 1.000000 -0.039288
C98   C     C_R   0.500000 0.793823 0.000000 -0.039428
C99   C     C_R   0.293823 0.000000 0.500000 -0.039427
C100  C     C_R   0.079515 0.500000 0.000000 0.823694
C101  C     C_R   0.000000 0.706177 0.500000 -0.039268
C102  C     C_R   0.706177 1.000000 0.500000 -0.039401
C103  C     C_R   0.000000 0.293823 0.500000 -0.039286
C104  C     C_1   0.661503 0.500000 0.000000 -0.062931
C105  C     C_1   0.499999 0.338497 1.000000 -0.062864
C106  C     C_1   0.338497 0.500000 1.000000 -0.062909
C107  C     C_1   0.499999 0.661503 0.000000 -0.062863
C108  C     C_1   0.161503 0.000000 0.500000 -0.062862
C109  C     C_1   1.000000 0.838497 0.500000 -0.062928
C110  C     C_1   0.838497 0.000000 0.500000 -0.062881
C111  C     C_R   0.500000 0.920485 0.000000 0.823760
C112  C     C_1   1.000000 0.161503 0.500000 -0.062914
C113  C     C_1   0.838531 0.500000 0.000000 0.013323
C114  C     C_1   0.500000 0.161469 1.000000 0.013248
C115  C     C_1   0.161469 0.500000 1.000000 0.013320
C116  C     C_1   0.500000 0.838531 0.000000 0.013248
C117  C     C_1   0.338531 1.000000 0.500000 0.013250
C118  C     C_1   0.000000 0.661469 0.500000 0.013319
C119  C     C_1   0.661469 1.000000 0.500000 0.013252
C120  C     C_1   0.000000 0.338531 0.500000 0.013316
C121  C     C_1   0.875944 0.500000 0.000000 -0.141419
C122  C     C_R   0.420485 0.000000 0.500000 0.823762
C123  C     C_1   0.500000 0.124056 1.000000 -0.141474
C124  C     C_1   0.124056 0.500000 1.000000 -0.141421
C125  C     C_1   0.500000 0.875944 0.000000 -0.141474
C126  C     C_1   0.375944 1.000000 0.500000 -0.141473
C127  C     C_1   1.000000 0.624056 0.500000 -0.141422
C128  C     C_1   0.624056 1.000000 0.500000 -0.141473
C129  C     C_1   0.000000 0.375944 0.500000 -0.141423
C130  C     C_1   0.624077 0.500000 0.000000 -0.145455
C131  C     C_1   0.500000 0.375923 1.000000 -0.145447
C132  C     C_1   0.375923 0.500000 1.000000 -0.145450
C133  C     C_R   1.000000 0.579515 0.500000 0.823691
C134  C     C_1   0.500000 0.624077 0.000000 -0.145447
C135  C     C_1   0.124077 0.000000 0.500000 -0.145445
C136  C     C_1   1.000000 0.875923 0.500000 -0.145454
C137  C     C_1   0.875923 0.000000 0.500000 -0.145447
C138  C     C_1   1.000000 0.124077 0.500000 -0.145451
C139  C     C_R   0.500000 0.420466 1.000000 0.821114
C140  C     C_R   0.420466 0.500000 1.000000 0.821173
C141  C     C_R   0.500000 0.579534 0.000000 0.821111
C142  C     C_R   0.579534 0.500000 0.000000 0.821207
C143  C     C_R   1.000000 0.920466 0.500000 0.821203
C144  C     C_R   0.579515 0.000000 0.500000 0.823749
C145  C     C_R   0.920466 1.000000 0.500000 0.821138
C146  C     C_R   0.000000 0.079534 0.500000 0.821181
C147  C     C_R   0.079534 0.000000 0.500000 0.821107
C148  C     C_R   0.000000 0.500000 0.927597 0.784971
C149  C     C_R   0.500000 0.000000 0.927596 0.785024
C150  C     C_R   1.000000 0.500000 0.072403 0.784972
C151  C     C_R   0.500000 1.000000 0.072403 0.785025
C152  C     C_R   0.500000 1.000000 0.427596 0.785023
C153  C     C_R   1.000000 0.500000 0.427596 0.784973
C154  C     C_R   0.500000 0.000000 0.572403 0.785023
C155  C     C_R   1.000000 0.420485 0.500000 0.823696
C156  C     C_R   1.000000 0.500000 0.572403 0.784974
C157  C     C_R   0.973440 0.473536 0.673315 -0.176565
C158  C     C_R   0.473544 0.026568 0.673316 -0.176627
C159  C     C_R   0.026560 0.526464 0.673316 -0.176564
C160  C     C_R   0.526456 0.973432 0.673316 -0.176625
C161  C     C_R   0.973440 0.526464 0.326684 -0.176561
C162  C     C_R   0.473544 0.973432 0.326683 -0.176628
C163  C     C_R   0.026560 0.473536 0.326684 -0.176568
C164  C     C_R   0.526456 0.026567 0.326684 -0.176623
C165  C     C_R   0.473432 0.973545 0.173316 -0.176627
C166  C     C_R   0.772125 0.524174 0.974140 -0.151224
C167  C     C_R   0.973535 0.526560 0.173316 -0.176559
C168  C     C_R   0.526568 0.026455 0.173316 -0.176625
C169  C     C_R   0.026464 0.473441 0.173316 -0.176567
C170  C     C_R   0.473431 0.026455 0.826684 -0.176627
C171  C     C_R   0.973535 0.473440 0.826684 -0.176561
C172  C     C_R   0.526569 0.973545 0.826684 -0.176626
C173  C     C_R   0.026464 0.526559 0.826684 -0.176564
C174  C     C_R   0.973206 0.473293 0.634066 -0.041424
C175  C     C_R   0.473301 0.026803 0.634066 -0.041416
C176  C     C_R   0.026794 0.526707 0.634066 -0.041423
Cu1   Cu    Cu3+1 0.000000 0.540940 0.000000 1.018940
Cu2   Cu    Cu3+1 0.500000 0.500000 0.037330 1.004872
Cu3   Cu    Cu3+1 0.000000 0.000000 0.462670 1.004875
Cu4   Cu    Cu3+1 0.000000 0.000000 0.537330 1.004875
Cu5   Cu    Cu3+1 0.540940 0.000000 0.000000 1.018838
Cu6   Cu    Cu3+1 0.000000 0.459060 0.000000 1.018936
Cu7   Cu    Cu3+1 0.459060 0.000000 0.000000 1.018842
Cu8   Cu    Cu3+1 0.500000 0.040940 0.500000 1.018844
Cu9   Cu    Cu3+1 0.040940 0.500000 0.500000 1.018934
Cu10  Cu    Cu3+1 0.500000 0.959060 0.500000 1.018838
Cu11  Cu    Cu3+1 0.959060 0.500000 0.500000 1.018932
Cu12  Cu    Cu3+1 0.500000 0.500000 0.962670 1.004872
H1    H     H_    0.953053 0.452910 0.688709 0.144922
H2    H     H_    0.952909 0.546947 0.188710 0.144925
H3    H     H_    0.546963 0.047075 0.188710 0.144885
H4    H     H_    0.047090 0.453054 0.188709 0.144920
H5    H     H_    0.453037 0.047074 0.811290 0.144884
H6    H     H_    0.952909 0.453054 0.811290 0.144923
H7    H     H_    0.546963 0.952925 0.811290 0.144885
H8    H     H_    0.047091 0.546946 0.811291 0.144922
H9    H     H_    0.788998 0.457064 0.045932 0.179814
H10   H     H_    0.453580 0.211002 0.043065 0.179974
H11   H     H_    0.211002 0.543516 0.045483 0.179841
H12   H     H_    0.452925 0.046962 0.688710 0.144884
H13   H     H_    0.546452 0.788998 0.043037 0.179974
H14   H     H_    0.788998 0.542936 0.954068 0.179815
H15   H     H_    0.453548 0.788998 0.956963 0.179976
H16   H     H_    0.211002 0.456484 0.954516 0.179841
H17   H     H_    0.546420 0.211002 0.956934 0.179972
H18   H     H_    0.288998 0.953564 0.543050 0.179974
H19   H     H_    0.956858 0.711002 0.545773 0.179822
H20   H     H_    0.711002 0.045984 0.543448 0.179949
H21   H     H_    0.043511 0.288998 0.545487 0.179840
H22   H     H_    0.288998 0.046436 0.456950 0.179976
H23   H     H_    0.046947 0.547091 0.688710 0.144923
H24   H     H_    0.956489 0.288998 0.454513 0.179839
H25   H     H_    0.711002 0.954016 0.456552 0.179948
H26   H     H_    0.043143 0.711001 0.454227 0.179823
H27   H     H_    0.679454 0.452437 0.050845 0.340726
H28   H     H_    0.448582 0.320547 0.047672 0.340479
H29   H     H_    0.320546 0.548202 0.050350 0.340689
H30   H     H_    0.551454 0.679454 0.047640 0.340475
H31   H     H_    0.679454 0.547563 0.949155 0.340727
H32   H     H_    0.448545 0.679453 0.952360 0.340476
H33   H     H_    0.320546 0.451798 0.949650 0.340690
H34   H     H_    0.547076 0.953039 0.688710 0.144886
H35   H     H_    0.551417 0.320546 0.952328 0.340477
H36   H     H_    0.179454 0.948565 0.547656 0.340477
H37   H     H_    0.952209 0.820546 0.550670 0.340712
H38   H     H_    0.820546 0.050936 0.548094 0.340510
H39   H     H_    0.048198 0.179454 0.550353 0.340690
H40   H     H_    0.179454 0.051436 0.452344 0.340478
H41   H     H_    0.951803 0.179454 0.449646 0.340688
H42   H     H_    0.820546 0.949065 0.451906 0.340508
H43   H     H_    0.047791 0.820546 0.449331 0.340714
H44   H     H_    0.953053 0.547090 0.311291 0.144924
H45   H     H_    0.452924 0.953039 0.311289 0.144883
H46   H     H_    0.046947 0.452910 0.311290 0.144921
H47   H     H_    0.547076 0.046961 0.311290 0.144887
H48   H     H_    0.453038 0.952926 0.188710 0.144884
N1    N     N_1   0.924603 0.421041 0.600086 -0.255474
N2    N     N_1   0.921040 0.575396 0.100087 -0.255469
N3    N     N_1   0.575423 0.078935 0.100089 -0.255524
N4    N     N_1   0.078959 0.424604 0.100087 -0.255471
N5    N     N_1   0.424576 0.078934 0.899912 -0.255517
N6    N     N_1   0.921040 0.424605 0.899913 -0.255472
N7    N     N_1   0.575424 0.921066 0.899911 -0.255524
N8    N     N_1   0.078960 0.575396 0.899913 -0.255467
N9    N     N_1   0.421064 0.075422 0.600088 -0.255519
N10   N     N_1   0.075396 0.578959 0.600087 -0.255471
N11   N     N_1   0.578936 0.924578 0.600088 -0.255526
N12   N     N_1   0.924603 0.578959 0.399913 -0.255475
N13   N     N_1   0.421064 0.924579 0.399911 -0.255525
N14   N     N_1   0.075397 0.421042 0.399913 -0.255470
N15   N     N_1   0.578937 0.075421 0.399912 -0.255519
N16   N     N_1   0.424577 0.921065 0.100088 -0.255518
O1    O     O_R   0.940210 0.534560 0.999910 -0.570446
O2    O     O_R   0.034560 0.559790 0.499910 -0.570450
O3    O     O_R   0.559790 0.965440 0.499910 -0.570497
O4    O     O_R   0.965440 0.440210 0.499910 -0.570456
O5    O     O_R   0.440210 0.965440 0.500090 -0.570505
O6    O     O_R   0.034560 0.440210 0.500090 -0.570455
O7    O     O_R   0.559790 0.034560 0.500090 -0.570496
O8    O     O_R   0.965440 0.559790 0.500090 -0.570451
O9    O     O_R   0.000060 0.534560 0.945550 -0.573429
O10   O     O_R   0.534560 0.999940 0.945550 -0.573434
O11   O     O_R   0.999940 0.465440 0.945550 -0.573430
O12   O     O_R   0.534560 0.059790 0.999910 -0.570505
O13   O     O_R   0.465440 0.000060 0.945550 -0.573434
O14   O     O_R   0.000060 0.465440 0.054450 -0.573431
O15   O     O_R   0.534560 0.000060 0.054450 -0.573435
O16   O     O_R   0.999940 0.534560 0.054450 -0.573430
O17   O     O_R   0.465440 0.999940 0.054450 -0.573435
O18   O     O_R   0.500060 0.034560 0.445550 -0.573434
O19   O     O_R   0.034560 0.499940 0.445550 -0.573430
O20   O     O_R   0.499940 0.965440 0.445550 -0.573435
O21   O     O_R   0.965440 0.500060 0.445550 -0.573429
O22   O     O_R   0.500060 0.965440 0.554450 -0.573435
O23   O     O_R   0.059790 0.465440 0.999910 -0.570455
O24   O     O_R   0.034560 0.500060 0.554450 -0.573430
O25   O     O_R   0.499940 0.034560 0.554450 -0.573436
O26   O     O_R   0.965440 0.499940 0.554450 -0.573431
O27   O     O_R   0.500080 0.440090 0.968430 -0.574977
O28   O     O_R   0.440090 0.499920 0.968430 -0.575101
O29   O     O_R   0.499920 0.559910 0.968430 -0.574975
O30   O     O_R   0.559910 0.500080 0.968430 -0.575123
O31   O     O_R   0.500080 0.559910 0.031570 -0.574976
O32   O     O_R   0.440090 0.500080 0.031570 -0.575101
O33   O     O_R   0.499920 0.440090 0.031570 -0.574976
O34   O     O_R   0.465440 0.940210 0.999910 -0.570503
O35   O     O_R   0.559910 0.499920 0.031570 -0.575123
O36   O     O_R   0.000080 0.940090 0.468430 -0.575114
O37   O     O_R   0.940090 0.999920 0.468430 -0.574994
O38   O     O_R   0.999920 0.059910 0.468430 -0.575100
O39   O     O_R   0.059910 0.000080 0.468430 -0.574976
O40   O     O_R   0.000080 0.059910 0.531570 -0.575101
O41   O     O_R   0.940090 0.000080 0.531570 -0.574994
O42   O     O_R   0.999920 0.940090 0.531570 -0.575113
O43   O     O_R   0.059910 0.999920 0.531570 -0.574976
O44   O     O_3   0.709926 0.450524 0.052912 -0.705817
O45   O     O_R   0.940210 0.465440 0.000090 -0.570447
O46   O     O_3   0.446511 0.290074 0.049610 -0.705828
O47   O     O_3   0.290074 0.550143 0.052396 -0.705805
O48   O     O_3   0.553526 0.709926 0.049577 -0.705840
O49   O     O_3   0.709926 0.549476 0.947088 -0.705816
O50   O     O_3   0.446473 0.709926 0.950423 -0.705827
O51   O     O_3   0.290074 0.449857 0.947604 -0.705807
O52   O     O_3   0.553488 0.290074 0.950390 -0.705840
O53   O     O_3   0.209926 0.946492 0.549593 -0.705835
O54   O     O_3   0.950286 0.790074 0.552729 -0.705824
O55   O     O_3   0.790074 0.052987 0.550050 -0.705837
O56   O     O_R   0.534560 0.940210 0.000090 -0.570506
O57   O     O_3   0.050138 0.209926 0.552400 -0.705807
O58   O     O_3   0.209926 0.053508 0.450407 -0.705828
O59   O     O_3   0.949862 0.209926 0.447600 -0.705818
O60   O     O_3   0.790074 0.947014 0.449950 -0.705845
O61   O     O_3   0.049714 0.790073 0.447271 -0.705814
O62   O     O_R   0.059790 0.534560 0.000090 -0.570455
O63   O     O_R   0.465440 0.059790 0.000090 -0.570503
O64   O     O_R   0.440210 0.034560 0.499910 -0.570504

loop_
_geom_bond_atom_site_label_1
_geom_bond_atom_site_label_2
_ccdc_geom_bond_type
C16   C173  A    
C160  H34   S    
C22   C150  S    
Cu4   O41   S    
C78   N16   T    
C34   C42   T    
C149  O13   A    
C76   N14   T    
C105  C131  T    
C147  O39   A    
C27   C158  A    
C106  C132  T    
C12   C23   A    
C45   C57   A    
C56   C79   A    
C24   C98   A    
C139  O27   A    
C49   O50   S    
Cu1   Cu6   S    
C159  H23   S    
C166  H14   S    
C72   N10   T    
Cu1   O9    S    
C46   C47   A    
Cu2   O32   S    
C111  C125  S    
C158  H12   S    
C87   H26   S    
C70   N1    T    
C97   C115  S    
C117  C126  T    
C65   C108  S    
C15   C85   S    
Cu2   Cu12  S    
C119  C128  T    
C46   C98   A    
C143  O36   A    
C164  H47   S    
Cu6   O45   S    
C96   C114  S    
C153  O19   A    
Cu5   Cu7   S    
C10   C21   A    
C144  O3    A    
Cu12  O30   S    
Cu8   O7    S    
C100  O23   A    
C112  C138  T    
C61   C104  S    
C47   C64   A    
C155  O6    A    
C151  O17   A    
C100  C124  S    
C93   C102  A    
C55   C92   A    
C57   C97   A    
C128  C144  S    
C31   C167  A    
C11   C169  A    
Cu4   O43   S    
C19   C153  S    
C44   O46   S    
C132  C140  S    
C71   N9    T    
C95   C166  A    
C91   H18   S    
C43   C61   A    
Cu12  O28   S    
C79   C99   A    
C16   C25   A    
C170  H5    S    
C88   C102  A    
Cu10  O22   S    
C73   N11   T    
Cu7   O13   S    
C2    C96   A    
C47   O48   S    
C27   C160  A    
C163  H46   S    
C142  O30   A    
C134  C141  S    
H37   O54   S    
C15   C172  A    
C13   C97   A    
C156  O24   A    
Cu9   O6    S    
C6    C163  A    
C10   C168  A    
C4    C161  A    
C52   C91   A    
C153  O21   A    
C102  C119  S    
C79   H22   S    
H35   O52   S    
C140  O28   A    
C5    C20   A    
C6    C19   A    
Cu4   O40   S    
C33   C42   S    
C107  C134  T    
C38   C39   T    
Cu9   Cu11  S    
C74   N12   T    
C67   C110  S    
C59   C67   A    
C87   C101  A    
C162  H45   S    
Cu7   O34   S    
Cu5   O10   S    
Cu8   Cu10  S    
C29   C38   S    
C32   C41   S    
C35   C43   A    
C18   C154  S    
C157  C174  A    
C7    C77   S    
C14   C25   A    
C49   C64   A    
C57   H11   S    
C50   C63   A    
C51   C62   A    
C140  O32   A    
C28   C161  A    
C11   C82   S    
H39   O57   S    
C88   H25   S    
C120  C129  T    
C54   O55   S    
H29   O47   S    
C108  C135  T    
C48   O49   S    
C89   O12   A    
C156  O26   A    
C99   C117  S    
C70   C174  S    
C155  O4    A    
C122  O5    A    
C173  H8    S    
C89   O63   A    
C55   C69   A    
C56   O58   S    
C114  C123  T    
C135  C147  S    
C116  C125  T    
C118  C127  T    
C150  O16   A    
C35   H9    S    
Cu4   O42   S    
C53   C94   A    
C29   C162  A    
C154  O25   A    
C30   C165  A    
C14   C171  A    
C100  O62   A    
C6    C76   S    
C159  C176  A    
Cu8   O18   S    
Cu10  O3    S    
Cu5   O12   S    
C28   C37   S    
C138  C146  S    
Cu6   O11   S    
C111  O34   A    
C30   C39   S    
C21   C151  S    
C32   C172  A    
C130  C142  S    
C1    C121  S    
C131  C139  S    
C8    C165  A    
C52   C65   A    
C13   C50   A    
C158  C175  A    
C113  C121  T    
C52   O53   S    
C91   C99   A    
Cu11  O4    S    
C93   H20   S    
C28   C163  A    
C24   H15   S    
Cu7   O17   S    
C103  C120  S    
C14   C84   S    
C68   C96   A    
C1    O45   A    
C59   O60   S    
C69   C112  S    
Cu10  O5    S    
Cu5   O56   S    
C31   C40   S    
Cu3   O38   S    
C154  O22   A    
C144  O7    A    
C54   C93   A    
H36   O53   S    
C150  O14   A    
H42   O60   S    
C60   C66   A    
Cu2   O33   S    
C104  C130  T    
C43   O44   S    
C16   C86   S    
C29   C164  A    
C36   C41   T    
C1    O1    A    
H28   O46   S    
C127  C133  S    
Cu9   O24   S    
H30   O48   S    
C129  C155  S    
C31   C169  A    
H32   O50   S    
H38   O55   S    
H33   O51   S    
C81   N3    T    
C12   C83   S    
C5    C75   S    
C137  C145  S    
H27   O44   S    
Cu2   O31   S    
C26   C159  A    
C63   C106  S    
C58   C90   A    
C141  O29   A    
C145  O37   A    
Cu11  O21   S    
C151  O15   A    
C101  C118  S    
C37   C40   T    
C33   C171  A    
C149  O10   A    
Cu9   O2    S    
C17   C174  A    
Cu12  O29   S    
C115  C124  T    
C110  C137  T    
C94   H19   S    
Cu8   O64   S    
C58   O59   S    
C133  O2    A    
C58   C69   A    
C60   O61   S    
C35   C95   A    
C27   C36   S    
C136  C143  S    
C7    C164  A    
C83   N5    T    
C10   C81   S    
C13   H16   S    
C5    C162  A    
C55   O57   S    
C30   C168  A    
C90   H24   S    
C147  O43   A    
C71   C175  S    
C25   C148  S    
C72   C176  S    
C66   C109  S    
C90   C103  A    
C20   C152  S    
C2    C51   A    
Cu9   O19   S    
Cu3   Cu4   S    
Cu10  O20   S    
C48   C166  A    
C165  H48   S    
C7    C20   A    
C172  H7    S    
C133  O8    A    
C75   N13   T    
C17   C156  S    
Cu12  O27   S    
C62   C105  S    
C168  H3    S    
C26   C157  A    
C45   O47   S    
C152  O20   A    
C51   O52   S    
C9    C22   A    
C56   C65   A    
Cu3   O36   S    
C85   N7    T    
C139  O33   A    
C3    C18   A    
C68   H10   S    
C80   N2    T    
C59   C88   A    
C141  O31   A    
C92   C103  A    
Cu5   O15   S    
C4    C19   A    
C146  O40   A    
C26   C34   S    
C94   C101  A    
C152  O18   A    
C82   N4    T    
Cu3   O39   S    
C77   N15   T    
Cu7   O63   S    
C148  O9    A    
C33   C173  A    
C4    C74   S    
H41   O59   S    
C17   C176  A    
C18   C175  A    
C15   C23   A    
C109  C136  T    
C8    C78   S    
C92   H21   S    
C171  H6    S    
C3    C73   S    
C60   C87   A    
C46   H13   S    
C111  O56   A    
Cu11  O8    S    
C9    C167  A    
Cu1   O16   S    
C23   C149  S    
C12   C170  A    
C54   C67   A    
C89   C123  S    
C44   C62   A    
Cu8   O25   S    
C45   C63   A    
C9    C80   S    
C122  C126  S    
C161  H44   S    
C98   C116  S    
H43   O61   S    
C8    C21   A    
C2    H17   S    
C53   C66   A    
C3    C160  A    
C44   C68   A    
H40   O58   S    
H31   O49   S    
C64   C107  S    
Cu11  O26   S    
C24   C49   A    
C167  H2    S    
C32   C170  A    
Cu1   O62   S    
C50   O51   S    
C143  O42   A    
Cu2   O35   S    
Cu1   O1    S    
C142  O35   A    
C11   C22   A    
C122  O64   A    
C53   O54   S    
C145  O41   A    
C146  O38   A    
C48   C61   A    
Cu6   O14   S    
C95   C113  S    
Cu3   O37   S    
C148  O11   A    
C157  H1    S    
C86   N8    T    
C84   N6    T    
C169  H4    S    
Cu6   O23   S    
