data_mof_unit_54162.cif
_audit_creation_date              2012-12-10T19:45:03-0500
_audit_creation_method            fapswitch 2.2
_symmetry_space_group_name_H-M    P1
_symmetry_Int_Tables_number       1
_space_group_crystal_system       triclinic
_cell_length_a                    15.033495
_cell_length_b                    10.865899
_cell_length_c                    13.705557
_cell_angle_alpha                 89.899579
_cell_angle_beta                  90.489662
_cell_angle_gamma                 89.595918
_cell_volume                      2238.69503917

loop_
_atom_site_label
_atom_site_type_symbol
_atom_type_description
_atom_site_fract_x
_atom_site_fract_y
_atom_site_fract_z
_atom_type_partial_charge
C1    C     C_R   0.498559 0.262175 0.499836 0.850266
C2    C     C_R   0.573695 0.876843 0.670414 0.182107
C3    C     C_R   0.471514 0.115258 0.240609 -0.065095
C4    C     C_R   0.528490 0.884741 0.759391 -0.065107
C5    C     C_R   0.437335 0.173810 0.157529 -0.142796
C6    C     C_R   0.562669 0.826189 0.842469 -0.142794
C7    C     C_R   0.358064 0.241127 0.162502 -0.214516
C8    C     C_R   0.641941 0.758871 0.837495 -0.214514
C9    C     C_R   0.467661 0.934694 0.419353 0.599224
C10   C     C_R   0.532340 0.065306 0.580646 0.599234
C11   C     C_R   0.502726 0.871665 0.500676 -0.294009
C12   C     C_R   0.501441 0.737825 0.500164 0.850235
C13   C     C_R   0.497274 0.128334 0.499324 -0.293996
C14   C     C_R   0.535605 0.937587 0.582184 -0.182836
C15   C     C_R   0.464396 0.062413 0.417815 -0.182839
C16   C     C_R   0.328972 0.502463 0.499744 0.739962
C17   C     C_R   0.671028 0.497538 0.500256 0.739995
C18   C     C_R   0.560784 0.429451 0.794199 0.764030
C19   C     C_R   0.439216 0.570548 0.205802 0.764035
C20   C     C_R   0.439126 0.570113 0.792630 -0.084075
C21   C     C_R   0.560874 0.429888 0.207370 -0.084071
C22   C     C_R   0.437597 0.571585 0.895593 -0.004102
C23   C     C_R   0.052654 0.306918 0.587528 0.538005
C24   C     C_R   0.562403 0.428416 0.104407 -0.004100
C25   C     C_R   0.499968 0.499868 0.948203 0.038310
C26   C     C_R   0.500032 0.500132 0.051797 0.038309
C27   C     C_R   0.562297 0.427927 0.897287 -0.125840
C28   C     C_R   0.437703 0.572074 0.102713 -0.125848
C29   C     C_R   0.375705 0.643385 0.946955 -0.202188
C30   C     C_R   0.624295 0.356616 0.053045 -0.202184
C31   C     C_R   0.375710 0.643642 0.049447 -0.131113
C32   C     C_R   0.624290 0.356358 0.950553 -0.131122
C33   C     C_R   0.811459 0.592687 0.459470 -0.064409
C34   C     C_R   0.947346 0.693057 0.412434 0.537988
C35   C     C_R   0.188541 0.407308 0.540519 -0.064417
C36   C     C_R   0.767423 0.493377 0.500580 -0.130768
C37   C     C_R   0.232577 0.506623 0.499417 -0.130794
C38   C     C_R   0.814628 0.390059 0.536439 -0.032524
C39   C     C_R   0.185372 0.609936 0.463548 -0.032522
C40   C     C_R   0.908829 0.394724 0.541337 -0.062299
C41   C     C_R   0.091171 0.605260 0.458637 -0.062286
C42   C     C_R   0.953128 0.497304 0.499633 -0.097315
C43   C     C_R   0.046873 0.502683 0.500346 -0.097321
C44   C     C_R   0.903814 0.594749 0.457039 -0.036996
C45   C     C_R   0.311268 0.248620 0.250455 0.036875
C46   C     C_R   0.096186 0.405239 0.542940 -0.036988
C47   C     C_R   0.960280 0.302521 0.588592 0.579884
C48   C     C_R   0.039720 0.697448 0.411363 0.579932
C49   C     C_2   0.764347 0.275839 0.557932 0.486832
C50   C     C_2   0.235651 0.724161 0.442059 0.486858
C51   C     C_2   0.226683 0.318496 0.253227 0.414386
C52   C     C_2   0.773320 0.681503 0.746767 0.414368
C53   C     C_R   0.688736 0.751379 0.749541 0.036876
C54   C     C_R   0.345613 0.188975 0.334081 -0.050909
C55   C     C_R   0.654389 0.811025 0.665916 -0.050911
C56   C     C_R   0.426307 0.123156 0.329585 0.182106
Cu1   Cu    Cu3+1 0.500010 0.499980 0.597420 1.014629
Cu2   Cu    Cu3+1 0.499990 0.500020 0.402580 1.014641
F1    F     F_    0.433046 0.872131 0.342125 -0.618089
F2    F     F_    0.566955 0.127869 0.657874 -0.618097
F3    F     F_    0.620041 0.359940 0.744357 -0.641703
F4    F     F_    0.379957 0.640059 0.255644 -0.641674
F5    F     F_    0.922551 0.210948 0.641068 -0.565616
F6    F     F_    0.077449 0.788989 0.358853 -0.565593
F7    F     F_    0.099759 0.215331 0.632211 -0.596941
F8    F     F_    0.900241 0.784631 0.367737 -0.596936
H1    H     H_    0.772877 0.668814 0.429460 0.179884
H2    H     H_    0.667008 0.713129 0.902534 0.142561
H3    H     H_    0.310552 0.194548 0.402718 0.152407
H4    H     H_    0.689449 0.805453 0.597279 0.152408
H5    H     H_    0.533695 0.064731 0.235950 0.145126
H6    H     H_    0.466309 0.935268 0.764050 0.145119
H7    H     H_    0.472776 0.167923 0.089264 0.159101
H8    H     H_    0.527230 0.832074 0.910735 0.159101
H9    H     H_    0.702110 0.280390 0.596849 0.160428
H10   H     H_    0.297924 0.719607 0.403208 0.160360
H11   H     H_    0.204747 0.370823 0.189799 0.075571
H12   H     H_    0.227123 0.331182 0.570531 0.179881
H13   H     H_    0.795258 0.629177 0.810195 0.075570
H14   H     H_    0.392032 0.625601 0.751286 0.164201
H15   H     H_    0.607969 0.374399 0.248713 0.164210
H16   H     H_    0.327356 0.699541 0.907869 0.158284
H17   H     H_    0.672644 0.300459 0.092131 0.158288
H18   H     H_    0.327102 0.700010 0.086838 0.210109
H19   H     H_    0.672898 0.299990 0.913163 0.210100
H20   H     H_    0.332997 0.286869 0.097462 0.142559
N1    N     N_R   0.499960 0.499900 0.743810 -0.235235
N2    N     N_R   0.500040 0.500100 0.256190 -0.235242
O1    O     O_R   0.500000 0.319630 0.582270 -0.488990
O2    O     O_2   0.210928 0.823491 0.473793 -0.453049
O3    O     O_2   0.179939 0.317470 0.325571 -0.528931
O4    O     O_2   0.820062 0.682528 0.674422 -0.528938
O5    O     O_R   0.500000 0.680370 0.417730 -0.488990
O6    O     O_R   0.499990 0.319660 0.417730 -0.608340
O7    O     O_R   0.500010 0.680340 0.582270 -0.608343
O8    O     O_R   0.370260 0.499960 0.582280 -0.590892
O9    O     O_R   0.629740 0.500040 0.417720 -0.590884
O10   O     O_R   0.370250 0.499990 0.417740 -0.542578
O11   O     O_R   0.629750 0.500010 0.582260 -0.542588
O12   O     O_2   0.789027 0.176524 0.526130 -0.453097

loop_
_geom_bond_atom_site_label_1
_geom_bond_atom_site_label_2
_ccdc_geom_bond_type
C40   C47   A    
C38   C40   A    
C22   C29   A    
C2    C4    A    
Cu2   O10   S    
C34   F8    S    
C39   C41   A    
C38   C49   S    
Cu1   O1    S    
C7    C45   A    
C35   C37   A    
Cu2   O5    S    
C24   C26   A    
C2    C55   A    
C47   F5    S    
C11   C14   A    
C48   F6    S    
C7    H20   S    
C45   C51   S    
C19   F4    S    
Cu1   O11   S    
C20   N1    A    
C33   C36   A    
C30   H17   S    
C51   O3    D    
C50   O2    D    
C1    O6    A    
Cu1   O8    S    
C49   H9    S    
C12   O7    A    
C17   C36   S    
C52   H13   S    
C16   C37   S    
C40   C42   A    
C21   N2    A    
C23   C46   A    
C5    H7    S    
C41   C43   A    
Cu2   O9    S    
C42   C44   A    
C6    H8    S    
C53   C55   A    
C54   C56   A    
C16   O8    A    
C23   C47   A    
C20   H14   S    
C34   C44   A    
C4    C6    A    
C19   N2    A    
C10   C14   A    
C5    C7    A    
C6    C8    A    
C25   C26   A    
C22   C25   A    
C31   H18   S    
Cu1   N1    S    
C9    F1    S    
C10   F2    S    
C51   H11   S    
C50   H10   S    
C9    C11   A    
C3    C56   A    
C19   C28   A    
C17   O11   A    
C20   C22   A    
C45   C54   A    
C8    H2    S    
C13   C15   A    
C12   O5    A    
C52   O4    D    
C1    C13   S    
C42   C43   A    
C4    H6    S    
C52   C53   S    
C33   H1    S    
C1    O1    A    
C27   C32   A    
C33   C44   A    
C28   C31   A    
C18   C27   A    
C21   H15   S    
C3    C5    A    
C10   C13   A    
Cu2   N2    S    
C8    C53   A    
C11   C12   S    
C18   F3    S    
C3    H5    S    
C25   C27   A    
C35   H12   S    
C26   C28   A    
C18   N1    A    
C15   C56   S    
C23   F7    S    
C36   C38   A    
C9    C15   A    
C29   H16   S    
C37   C39   A    
C49   O12   D    
C30   C32   A    
C16   O10   A    
Cu1   Cu2   S    
C54   H3    S    
C32   H19   S    
C41   C48   A    
Cu2   O6    S    
C2    C14   S    
C43   C46   A    
C24   C30   A    
C55   H4    S    
C39   C50   S    
C34   C48   A    
C29   C31   A    
Cu1   O7    S    
C21   C24   A    
C35   C46   A    
C17   O9    A    
