data_mof_unit_65849.cif
_audit_creation_date              2013-03-05T16:51:21-0500
_audit_creation_method            fapswitch 2.2
_symmetry_space_group_name_H-M    P1
_symmetry_Int_Tables_number       1
_space_group_crystal_system       triclinic
_cell_length_a                    15.795559
_cell_length_b                    15.096104
_cell_length_c                    15.760742
_cell_angle_alpha                 90.059379
_cell_angle_beta                  89.923783
_cell_angle_gamma                 89.990576
_cell_volume                      3758.16562203

loop_
_atom_site_label
_atom_site_type_symbol
_atom_site_description
_atom_site_fract_x
_atom_site_fract_y
_atom_site_fract_z
_atom_type_partial_charge
O1    O     O_R   0.378020 0.573650 0.500000 -0.596655
O2    O     O_R   0.378020 0.426350 0.500000 -0.582133
C1    C     C_R   0.338703 0.500006 0.499583 0.893891
O3    O     O_R   0.500000 0.573700 0.377120 -0.595114
O4    O     O_R   0.500000 0.426300 0.377120 -0.586487
C2    C     C_R   0.499873 0.499937 0.337897 0.899413
Zn1   Zn    Zn3+2 0.500000 0.598370 0.499970 1.075178
Zn2   Zn    Zn3+2 0.500000 0.401630 0.499970 1.079400
O5    O     O_R   0.621980 0.573680 0.499960 -0.600970
O6    O     O_R   0.621980 0.426320 0.499960 -0.615132
O7    O     O_R   0.500000 0.573630 0.622840 -0.599317
O8    O     O_R   0.500000 0.426370 0.622840 -0.595847
C3    C     C_R   0.661298 0.499994 0.499893 0.886501
C4    C     C_R   0.499962 0.500045 0.662138 0.894548
C5    C     C_3   0.444551 0.587339 0.048739 0.167168
C6    C     C_3   0.437018 0.413028 0.047560 0.183132
C7    C     C_3   0.431853 0.424771 0.948248 -0.416973
C8    C     C_3   0.457025 0.589692 0.949642 -0.438335
H1    H     H_    0.398316 0.607297 0.914951 0.225977
H2    H     H_    0.366874 0.443480 0.928053 0.238242
H3    H     H_    0.445193 0.362294 0.913441 0.233640
H4    H     H_    0.502564 0.642191 0.930226 0.216704
C9    C     C_1   0.497483 0.500134 0.750881 -0.106292
C10   C     C_3   0.486629 0.497935 0.082695 -0.022765
C11   C     C_3   0.491341 0.499770 0.917387 0.164142
C12   C     C_3   0.581410 0.485753 0.952604 -0.343349
C13   C     C_3   0.579891 0.491473 0.049883 -0.482693
C14   C     C_1   0.494712 0.500077 0.826041 -0.024293
C15   C     C_1   0.491136 0.498759 0.174314 0.048701
C16   C     C_1   0.495709 0.499607 0.249345 -0.018159
H5    H     H_    0.618792 0.548100 0.071601 0.250777
H6    H     H_    0.612654 0.432499 0.076512 0.204135
H7    H     H_    0.625423 0.536849 0.927085 0.212569
H8    H     H_    0.605935 0.419838 0.932514 0.224689
C17   C     C_R   0.955889 0.580402 0.469158 -0.200256
C18   C     C_R   0.955930 0.419630 0.468683 -0.203821
H9    H     H_    0.920597 0.641978 0.471107 0.203937
H10   H     H_    0.920670 0.358039 0.470269 0.201814
C19   C     C_R   0.913110 0.500002 0.473362 0.027615
C20   C     C_R   0.043948 0.418423 0.463098 0.278837
C21   C     C_R   0.043904 0.581651 0.463581 0.279699
C22   C     C_R   0.087755 0.500041 0.463643 -0.103597
C23   C     C_1   0.824484 0.499978 0.483898 0.025509
C24   C     C_1   0.176372 0.500024 0.476928 0.135325
C25   C     C_1   0.250610 0.500013 0.488754 -0.043672
C26   C     C_1   0.749798 0.499975 0.492429 -0.134269
C27   C     C_R   0.489300 0.952543 0.421203 -0.114462
C28   C     C_R   0.486987 0.047312 0.421559 -0.119044
C29   C     C_R   0.502471 0.905055 0.497857 -0.188295
C30   C     C_R   0.497016 0.094949 0.498699 -0.187200
C31   C     C_R   0.512639 0.952963 0.574443 0.244538
C32   C     C_R   0.509890 0.047199 0.574864 0.244375
C33   C     C_1   0.500911 0.806956 0.499163 0.285536
C34   C     C_1   0.498912 0.193045 0.499481 0.279388
N1    N     N_1   0.500020 0.270550 0.499980 -0.060468
N2    N     N_1   0.500020 0.729450 0.499980 -0.060556
N3    N     N_R   0.522640 0.905874 0.653071 0.233328
O9    O     O_R   0.475160 0.925157 0.718055 -0.282225
O10   O     O_R   0.578817 0.843237 0.659939 -0.349009
N4    N     N_R   0.523563 0.094453 0.652929 0.232825
O11   O     O_R   0.588173 0.075386 0.700694 -0.288867
O12   O     O_R   0.471902 0.157056 0.676344 -0.336204
N5    N     N_R   0.353205 0.588896 0.071745 0.236819
O13   O     O_R   0.293735 0.587341 0.014624 -0.323656
O14   O     O_R   0.330468 0.591493 0.151197 -0.272716
N6    N     N_R   0.350660 0.404885 0.083932 0.244271
O15   O     O_R   0.339955 0.404158 0.165859 -0.274068
O16   O     O_R   0.288087 0.376932 0.037299 -0.301364
C35   C     C_2   0.484111 0.327325 0.070809 0.916171
O17   O     O_2   0.488504 0.304584 0.145180 -0.569637
O18   O     O_R   0.523292 0.275086 0.008715 -0.791316
H11   H     H_    0.552379 0.221043 0.033311 0.373172
C36   C     C_2   0.486421 0.670632 0.086596 0.900513
O19   O     O_2   0.447636 0.717652 0.136608 -0.528609
O20   O     O_R   0.568447 0.695211 0.062629 -0.814379
H12   H     H_    0.588278 0.751421 0.091718 0.380895
N7    N     N_R   0.087523 0.665514 0.460401 0.227514
O21   O     O_R   0.158390 0.673575 0.418909 -0.322930
O22   O     O_R   0.052091 0.736421 0.491300 -0.321854
N8    N     N_R   0.087612 0.334584 0.459422 0.228499
O23   O     O_R   0.158491 0.326719 0.417893 -0.308246
O24   O     O_R   0.052214 0.263535 0.489892 -0.320717
C37   C     C_2   0.477867 0.096941 0.340448 1.004205
O25   O     O_2   0.428438 0.159103 0.335574 -0.537521
O26   O     O_R   0.526258 0.072683 0.269774 -0.764184
H13   H     H_    0.514450 0.111281 0.218520 0.379470
C38   C     C_2   0.474062 0.902773 0.341021 1.009038
O27   O     O_2   0.519836 0.840616 0.321535 -0.584938
O28   O     O_R   0.406970 0.926918 0.288051 -0.731829
H14   H     H_    0.403134 0.888277 0.235541 0.392319

loop_
_geom_bond_atom_site_label_1
_geom_bond_atom_site_label_2
_geom_bond_distance
_ccdc_geom_bond_type
C5    C8    1.574402 S    
N6    O16   1.302520 A    
C38   O27   1.223175 D    
N5    O14   1.302803 A    
C21   C22   1.413247 A    
C10   C13   1.563623 S    
C27   C29   1.420987 A    
N7    O21   1.301444 A    
C11   C14   1.440606 S    
Zn1   O7    1.972586 S    
C12   C13   1.535685 S    
C30   C34   1.481211 S    
C17   H9    1.084212 S    
C21   N7    1.442322 S    
C3    C26   1.402691 S    
O7    C4    1.272412 A    
N3    O10   1.301301 A    
C7    H2    1.111536 S    
N4    O12   1.301321 A    
C8    H1    1.109550 S    
C36   O19   1.223884 D    
C35   O18   1.399753 S    
O5    C3    1.273912 A    
C10   C15   1.445871 S    
C32   N4    1.438139 S    
C12   H8    1.113265 S    
C37   O25   1.223167 D    
C6    C7    1.577639 S    
C29   C31   1.415820 A    
C30   C32   1.415757 A    
C20   N8    1.442337 S    
C31   N3    1.438162 S    
C20   C22   1.413244 A    
N6    O15   1.302095 A    
C6    C10   1.601137 S    
C8    H4    1.113217 S    
C36   O20   1.399356 S    
C8    C11   1.546794 S    
C22   C24   1.415616 S    
Zn1   N2    1.978799 S    
O3    Zn1   1.971320 S    
C17   C21   1.393045 A    
Zn2   N1    1.978799 S    
N7    O22   1.301613 A    
C13   H5    1.107079 S    
C31   C32   1.423264 A    
C18   C20   1.393070 A    
N8    O24   1.301602 A    
C19   C23   1.409501 S    
C11   C12   1.542440 S    
O26   H13   1.014006 S    
C1    C25   1.402135 S    
C7    H3    1.110607 S    
N4    O11   1.301341 A    
O1    C1    1.273535 A    
C27   C38   1.489404 S    
C4    C9    1.399154 S    
C17   C19   1.390829 A    
O20   H12   1.013911 S    
C15   C16   1.184899 T    
C12   H7    1.113621 S    
C27   C28   1.431111 A    
Zn2   O8    1.971826 S    
C9    C14   1.185335 T    
O3    C2    1.273069 A    
C5    C10   1.597462 S    
C37   O26   1.398522 S    
O8    C4    1.272468 A    
C38   O28   1.398481 S    
C6    N6    1.484098 S    
C24   C25   1.187589 T    
C33   N2    1.170210 T    
Zn1   O5    1.962402 S    
C34   N1    1.170177 T    
C5    C36   1.540839 S    
C13   H6    1.112539 S    
O1    Zn1   1.962608 S    
C18   C19   1.390846 A    
O2    Zn2   1.962487 S    
C6    C35   1.537153 S    
N8    O23   1.301456 A    
O6    C3    1.273922 A    
O4    Zn2   1.972078 S    
C28   C37   1.489537 S    
C7    C11   1.549733 S    
C18   H10   1.084205 S    
O2    C1    1.273536 A    
O18   H11   1.013886 S    
N3    O9    1.301336 A    
O4    C2    1.272516 A    
C29   C33   1.481284 S    
C28   C30   1.420958 A    
C35   O17   1.223783 D    
C2    C16   1.397282 S    
C23   C26   1.187167 T    
N5    O13   1.302163 A    
Zn2   O6    1.962522 S    
C5    N5    1.487430 S    
O28   H14   1.013907 S    
