data_mof_unit_37537.cif
_audit_creation_date              2012-12-10T17:16:47-0500
_audit_creation_method            fapswitch 2.2
_symmetry_space_group_name_H-M    P1
_symmetry_Int_Tables_number       1
_space_group_crystal_system       triclinic
_cell_length_a                    23.433984
_cell_length_b                    12.952443
_cell_length_c                    11.828784
_cell_angle_alpha                 99.201689
_cell_angle_beta                  93.686387
_cell_angle_gamma                 92.371589
_cell_volume                      3531.95679726

loop_
_atom_site_label
_atom_site_type_symbol
_atom_type_description
_atom_site_fract_x
_atom_site_fract_y
_atom_site_fract_z
_atom_type_partial_charge
C1    C     C_R   0.500609 0.299672 0.478737 0.828945
C2    C     C_R   0.499442 0.700270 0.520908 0.819979
C3    C     C_R   0.242865 0.588408 0.536609 0.544167
C4    C     C_R   0.756955 0.410079 0.463750 0.542187
C5    C     C_R   0.302561 0.587374 0.537504 -0.298814
C6    C     C_R   0.697259 0.411435 0.462623 -0.248655
C7    C     C_R   0.329154 0.494416 0.500650 -0.167999
C8    C     C_R   0.670837 0.504745 0.499088 -0.155348
C9    C     C_R   0.296123 0.399601 0.465556 -0.078400
C10   C     C_R   0.704034 0.599479 0.533494 -0.067199
C11   C     C_R   0.236322 0.401008 0.466818 -0.138765
C12   C     C_R   0.763825 0.597650 0.532437 -0.120129
C13   C     C_R   0.209859 0.494397 0.502657 0.218000
C14   C     C_R   0.790132 0.503958 0.497343 0.213121
C15   C     C_R   0.495099 0.813057 0.531887 -0.114737
C16   C     C_R   0.503977 0.186470 0.465595 -0.120122
C17   C     C_R   0.538171 0.022800 0.371635 -0.276862
C18   C     C_R   0.459866 0.976481 0.623613 -0.252538
C19   C     C_R   0.533037 0.131071 0.375983 0.496378
C20   C     C_R   0.464610 0.868169 0.619392 0.508700
C21   C     C_R   0.478108 0.133965 0.544406 -0.276951
C22   C     C_R   0.518917 0.864398 0.449336 -0.306702
C23   C     C_R   0.391404 0.498554 0.500188 0.780723
C24   C     C_R   0.608594 0.501140 0.499751 0.786838
C25   C     C_R   0.483420 0.027245 0.540336 0.105609
C26   C     C_R   0.513464 0.971167 0.453121 0.116265
C27   C     C_R   0.439082 0.412093 0.026282 0.412187
C28   C     C_R   0.547329 0.612653 0.976993 0.412171
C29   C     C_R   0.446983 0.416913 0.146082 0.047049
C30   C     C_R   0.544716 0.598320 0.855747 0.054262
C31   C     C_R   0.525685 0.540233 0.155266 0.082081
C32   C     C_R   0.477646 0.453754 0.844424 0.108720
C33   C     C_R   0.517788 0.540323 0.033877 -0.151496
C34   C     C_R   0.478038 0.467500 0.967381 -0.131570
C35   C     C_R   0.876618 0.501099 0.396128 0.627693
C36   C     C_R   0.123364 0.496698 0.603826 0.623320
C37   C     C_R   0.882725 0.506239 0.599144 0.546669
C38   C     C_R   0.117265 0.491849 0.400849 0.549289
C39   C     C_R   0.942411 0.502647 0.601549 -0.004860
C40   C     C_R   0.057573 0.495239 0.398414 -0.003648
C41   C     C_R   0.969845 0.501349 0.498891 -0.026138
C42   C     C_R   0.030136 0.496440 0.501057 -0.027819
C43   C     C_R   0.937061 0.505117 0.394461 -0.057593
C44   C     C_R   0.062920 0.492642 0.605482 -0.054207
C45   C     C_R   0.974632 0.497420 0.704157 -0.221712
C46   C     C_R   0.025349 0.500418 0.295799 -0.222456
C47   C     C_R   0.033906 0.488678 0.707012 -0.022419
C48   C     C_R   0.966070 0.509065 0.292926 -0.027696
Cu1   Cu    Cu3+1 0.504210 0.507730 0.615930 0.957539
Cu2   Cu    Cu3+1 0.495790 0.492270 0.384070 0.959586
H1    H     H_    0.953230 0.495482 0.782491 0.183194
H2    H     H_    0.046751 0.502398 0.217471 0.180876
H3    H     H_    0.328241 0.659345 0.566016 0.155602
H4    H     H_    0.671487 0.339399 0.434162 0.181293
H5    H     H_    0.209842 0.329514 0.440904 0.200258
H6    H     H_    0.790421 0.669067 0.557864 0.199996
H7    H     H_    0.542047 0.821129 0.382287 0.152191
H8    H     H_    0.453273 0.176295 0.608344 0.197998
H9    H     H_    0.562610 0.979446 0.307079 0.140437
H10   H     H_    0.438556 0.021517 0.692190 0.174801
N1    N     N_R   0.851336 0.504316 0.497558 -0.459073
N2    N     N_R   0.148650 0.493686 0.502421 -0.455948
N3    N     N_R   0.510550 0.519360 0.790130 -0.282772
N4    N     N_R   0.489450 0.480640 0.209870 -0.273287
O1    O     O_R   0.502990 0.354470 0.582000 -0.607623
O2    O     O_R   0.497010 0.645530 0.418000 -0.631553
O3    O     O_R   0.495870 0.341410 0.386200 -0.515406
O4    O     O_R   0.504130 0.658590 0.613800 -0.527050
O5    O     O_R   0.421440 0.506500 0.597920 -0.593594
O6    O     O_R   0.578560 0.493500 0.402080 -0.565447
O7    O     O_R   0.414320 0.493440 0.402120 -0.612448
O8    O     O_R   0.585680 0.506560 0.597880 -0.610156
O9    O     O_2   0.842992 0.490914 0.297789 -0.449829
O10   O     O_2   0.156990 0.506756 0.702157 -0.477922
O11   O     O_2   0.855976 0.509626 0.697309 -0.526024
O12   O     O_2   0.144028 0.488782 0.302732 -0.536496
C49   C     C_2   0.446871 0.360664 0.775954 0.530372
H11   H     H_    0.417085 0.366827 0.704169 0.058664
O13   O     O_2   0.454885 0.274159 0.800676 -0.542098
C50   C     C_2   0.576807 0.595575 0.220639 0.571936
H12   H     H_    0.573104 0.652690 0.296456 0.039097
O14   O     O_2   0.624524 0.576471 0.189771 -0.490197
C51   C     C_2   0.581764 0.668252 0.801867 0.565018
H13   H     H_    0.617500 0.637836 0.756111 0.049708
O15   O     O_2   0.574138 0.761875 0.812720 -0.518607
C52   C     C_2   0.408332 0.350198 0.200065 0.551136
H14   H     H_    0.368460 0.379610 0.230283 0.036945
O16   O     O_2   0.418824 0.259205 0.203321 -0.540375
O17   O     O_3   0.391656 0.354883 0.968913 -0.550981
C53   C     C_3   0.347117 0.423600 0.958623 -0.302191
H15   H     H_    0.359016 0.484704 0.906790 0.149488
H16   H     H_    0.334702 0.460887 0.044353 0.149647
H17   H     H_    0.309002 0.377733 0.913360 0.227500
O18   O     O_3   0.578977 0.698713 0.038118 -0.543051
C54   C     C_3   0.541209 0.778068 0.072972 -0.262063
H18   H     H_    0.512208 0.754762 0.136384 0.115640
H19   H     H_    0.515481 0.799502 0.998551 0.202219
H20   H     H_    0.566910 0.849166 0.115375 0.187834
C55   C     C_2   0.061720 0.468833 0.816954 0.478303
H21   H     H_    0.049637 0.512234 0.897411 0.045384
O19   O     O_2   0.094619 0.398414 0.819289 -0.479266
C56   C     C_2   0.938252 0.528876 0.182976 0.487174
H22   H     H_    0.950338 0.485464 0.102528 0.045979
O20   O     O_2   0.905347 0.599285 0.180625 -0.464319
O21   O     O_3   0.216480 0.679573 0.575403 -0.565107
C57   C     C_3   0.218184 0.745186 0.491249 -0.284011
H23   H     H_    0.197983 0.705085 0.406967 0.183337
H24   H     H_    0.262774 0.773756 0.481840 0.151177
H25   H     H_    0.193374 0.814736 0.518934 0.208664
O22   O     O_3   0.783133 0.318550 0.425651 -0.556299
C58   C     C_3   0.782869 0.255210 0.512119 -0.253276
H26   H     H_    0.738535 0.227864 0.525528 0.164836
H27   H     H_    0.804562 0.296775 0.594411 0.178980
H28   H     H_    0.807027 0.184817 0.484344 0.209748
C59   C     C_2   0.323487 0.299011 0.430901 0.401461
H29   H     H_    0.369727 0.295741 0.435698 0.052268
O23   O     O_2   0.294631 0.218034 0.396730 -0.515284
C60   C     C_2   0.676852 0.700447 0.567068 0.422665
H30   H     H_    0.630628 0.704136 0.561501 0.037577
O24   O     O_2   0.705844 0.781291 0.601117 -0.505430
O25   O     O_3   0.442826 0.815070 0.701968 -0.551560
C61   C     C_3   0.386196 0.841411 0.723292 -0.303336
H31   H     H_    0.359934 0.849156 0.643402 0.144483
H32   H     H_    0.386221 0.914097 0.787395 0.187240
H33   H     H_    0.365399 0.777638 0.760962 0.201697
O26   O     O_3   0.561007 0.186161 0.302295 -0.573613
C62   C     C_3   0.548144 0.139683 0.186599 -0.180361
H34   H     H_    0.502448 0.111024 0.168564 0.179760
H35   H     H_    0.576956 0.075201 0.161838 0.147133
H36   H     H_    0.556031 0.199754 0.131454 0.209693

loop_
_geom_bond_atom_site_label_1
_geom_bond_atom_site_label_2
_ccdc_geom_bond_type
C16   C21   A    
Cu1   N3    S    
Cu1   O4    S    
C27   C29   A    
Cu2   N4    S    
C41   C42   A    
C23   O5    A    
C54   H18   S    
C22   H7    S    
C20   O25   S    
C54   H20   S    
C24   O6    A    
C31   C50   S    
C39   C41   A    
C38   O12   S    
C49   H11   S    
C3    O21   S    
C40   C46   A    
O26   C62   S    
Cu1   O1    S    
C51   H13   S    
C17   C26   A    
C5    H3    S    
C2    O4    A    
C52   O16   D    
C57   H23   S    
C45   H1    S    
C59   H29   S    
C46   H2    S    
C47   C55   S    
C28   O18   S    
C45   C47   A    
C30   C51   S    
O22   C58   S    
C21   C25   A    
C1    O3    A    
C32   C49   S    
C60   H30   S    
C15   C22   A    
C35   O9    S    
C13   N2    S    
C58   H26   S    
C59   O23   D    
Cu1   O8    S    
C1    O1    A    
C31   C33   A    
C35   C43   A    
C43   C48   A    
C3    C13   A    
C44   C47   A    
C39   C45   A    
C40   C42   A    
C37   O11   S    
C29   N4    A    
Cu1   O5    S    
C30   N3    A    
C41   C43   A    
C56   H22   S    
C18   C25   A    
C42   C44   A    
C6    H4    S    
C36   N2    A    
C49   O13   D    
C27   C34   A    
C15   C20   A    
C46   C48   A    
C9    C59   S    
C23   O7    A    
C4    C6    A    
C5    C7    A    
C52   H14   S    
C6    C8    A    
C3    C5    A    
C25   C26   A    
C14   N1    S    
C32   C34   A    
Cu2   O7    S    
C62   H35   S    
C10   C60   S    
Cu2   O2    S    
C53   H16   S    
C55   H21   S    
C48   C56   S    
C33   C34   A    
C29   C52   S    
C58   H27   S    
C1    C16   S    
C56   O20   D    
C2    C15   S    
C9    C11   A    
O25   C61   S    
C12   H6    S    
C10   C12   A    
C17   H9    S    
C50   O14   D    
C51   O15   D    
C12   C14   A    
C28   C33   A    
C36   C44   A    
C61   H32   S    
C62   H34   S    
C11   H5    S    
C24   O8    A    
C53   H17   S    
Cu2   O3    S    
C18   H10   S    
C7    C9    A    
C4    O22   S    
C36   O10   S    
C55   O19   D    
C31   N4    A    
C32   N3    A    
C50   H12   S    
C2    O2    A    
C37   N1    A    
C54   H19   S    
O21   C57   S    
C19   O26   S    
C61   H33   S    
C28   C30   A    
Cu2   O6    S    
C62   H36   S    
C21   H8    S    
C37   C39   A    
C38   C40   A    
C11   C13   A    
C53   H15   S    
C57   H24   S    
C35   N1    A    
C16   C19   A    
C7    C23   S    
C17   C19   A    
C27   O17   S    
C58   H28   S    
C18   C20   A    
C4    C14   A    
O18   C54   S    
C60   O24   D    
C8    C24   S    
C8    C10   A    
Cu1   Cu2   S    
C22   C26   A    
C61   H31   S    
O17   C53   S    
C38   N2    A    
C57   H25   S    
