data_mof_unit_17832.cif
_audit_creation_date              2013-03-05T16:10:15-0500
_audit_creation_method            fapswitch 2.2
_symmetry_space_group_name_H-M    P1
_symmetry_Int_Tables_number       1
_space_group_crystal_system       triclinic
_cell_length_a                    9.899528
_cell_length_b                    10.703554
_cell_length_c                    13.084417
_cell_angle_alpha                 91.434015
_cell_angle_beta                  69.927931
_cell_angle_gamma                 90.363237
_cell_volume                      1301.80574822

loop_
_atom_site_label
_atom_site_type_symbol
_atom_site_description
_atom_site_fract_x
_atom_site_fract_y
_atom_site_fract_z
_atom_type_partial_charge
O1    O     O_R   0.385370 0.683250 0.500010 -0.628514
O2    O     O_R   0.614700 0.683220 0.500010 -0.624031
C1    C     C_R   0.499983 0.739962 0.500723 0.873184
O3    O     O_R   0.328400 0.499990 0.653620 -0.560823
O4    O     O_R   0.557730 0.499960 0.653620 -0.613329
C2    C     C_R   0.419614 0.498856 0.704800 0.871503
Zn1   Zn    Zn3+2 0.346870 0.500020 0.500000 1.064712
Zn2   Zn    Zn3+2 0.653130 0.499980 0.500000 0.982819
O5    O     O_R   0.385300 0.316780 0.499990 -0.558169
O6    O     O_R   0.614630 0.316750 0.499990 -0.621921
O7    O     O_R   0.442270 0.500040 0.346380 -0.550080
O8    O     O_R   0.671600 0.500010 0.346380 -0.622398
C3    C     C_R   0.499527 0.260084 0.500530 0.899490
C4    C     C_R   0.580622 0.499969 0.295838 0.899591
C5    C     C_R   0.778997 0.381288 0.014728 -0.030232
H1    H     H_    0.823691 0.382240 0.163674 0.179062
H2    H     H_    0.866962 0.317471 0.976545 0.221395
C6    C     C_R   0.634411 0.490916 0.178174 -0.099127
C7    C     C_R   0.258297 0.596845 0.877688 0.258676
C8    C     C_R   0.268064 0.668902 0.965135 -0.231988
C9    C     C_R   0.383427 0.653704 0.002273 0.265338
C10   C     C_R   0.475630 0.547377 0.965372 -0.003035
C11   C     C_R   0.468548 0.477399 0.874865 -0.059869
C12   C     C_R   0.572611 0.506497 0.015831 0.079618
C13   C     C_R   0.680862 0.415629 0.963623 -0.007298
C14   C     C_R   0.678492 0.353514 0.868081 0.418005
C15   C     C_R   0.565491 0.377756 0.831211 -0.187882
C16   C     C_R   0.550170 0.540059 0.123929 -0.055676
C17   C     C_R   0.755507 0.418940 0.121999 -0.199859
C18   C     C_R   0.370729 0.512630 0.823873 -0.180175
H3    H     H_    0.456493 0.593228 0.171565 0.190277
H4    H     H_    0.191367 0.743711 0.998961 0.229527
H5    H     H_    0.554859 0.319829 0.765398 0.206623
C19   C     C_R   0.629466 0.936311 0.481177 -0.155876
H6    H     H_    0.730820 0.887790 0.464387 0.173444
C20   C     C_R   0.629279 0.064198 0.480801 -0.135663
H7    H     H_    0.730639 0.112953 0.463783 0.183594
C21   C     C_R   0.499272 0.127588 0.501156 -0.035475
C22   C     C_R   0.369361 0.063896 0.522399 -0.105439
H8    H     H_    0.268062 0.112515 0.539118 0.191138
C23   C     C_R   0.369551 0.935954 0.522799 -0.141017
H9    H     H_    0.268241 0.887125 0.539839 0.173744
C24   C     C_R   0.499709 0.872548 0.501772 -0.029254
C25   C     C_R   0.957684 0.428750 0.427091 -0.106719
H10   H     H_    0.925399 0.375358 0.368066 0.179292
C26   C     C_R   0.101223 0.426954 0.425212 0.483461
N1    N     N_R   0.142790 0.500030 0.500030 -0.146310
C27   C     C_R   0.039003 0.571349 0.573977 -0.079079
H11   H     H_    0.066878 0.629584 0.632424 0.201643
C28   C     C_R   0.895552 0.571191 0.574017 -0.043938
H12   H     H_    0.815332 0.628737 0.633227 0.163269
N2    N     N_R   0.857180 0.499940 0.500010 -0.115213
S1    S     S_3+6 0.215908 0.338647 0.310568 0.039043
O9    O     O_2   0.129538 0.233892 0.285171 -0.298450
O10   O     O_2   0.259661 0.423907 0.215385 -0.341928
O11   O     O_3   0.363447 0.272860 0.320890 -0.531166
H13   H     H_    0.420231 0.243435 0.246121 0.382451
S2    S     S_3+6 0.804844 0.236434 0.797961 0.028287
O12   O     O_2   0.954395 0.288815 0.766515 -0.279214
O13   O     O_2   0.791810 0.127756 0.871282 -0.253947
O14   O     O_3   0.774589 0.186708 0.684692 -0.569939
H14   H     H_    0.855890 0.129833 0.646707 0.382769
N3    N     N_R   0.141211 0.617646 0.839040 0.209156
O15   O     O_R   0.087181 0.729100 0.844023 -0.377014
O16   O     O_R   0.072464 0.522536 0.817211 -0.353312
N4    N     N_R   0.414660 0.754290 0.065676 0.195785
O17   O     O_R   0.310700 0.819337 0.134333 -0.353512
O18   O     O_R   0.546543 0.792191 0.043989 -0.340022

loop_
_geom_bond_atom_site_label_1
_geom_bond_atom_site_label_2
_geom_bond_distance
_ccdc_geom_bond_type
O1    C1    1.286145 A    
O4    Zn2   1.905032 S    
C28   N2    1.369468 A    
N3    O16   1.300453 A    
C5    H2    1.079972 S    
C11   C15   1.411029 A    
C9    N4    1.438784 S    
C14   S2    1.775211 S    
C23   H9    1.083705 S    
C4    C6    1.446952 S    
N4    O18   1.301690 A    
C7    C8    1.394341 A    
Zn2   O8    1.954842 S    
C8    C9    1.397887 A    
C25   N2    1.342565 A    
S2    O14   1.683060 S    
C27   C28   1.419902 A    
O2    C1    1.288344 A    
C14   C15   1.389900 A    
C6    C16   1.380740 A    
C22   C23   1.369589 A    
C6    C17   1.396224 A    
O1    Zn1   1.995534 S    
S1    O9    1.504305 D    
C15   H5    1.082453 S    
Zn1   O7    1.905033 S    
C23   C24   1.398197 A    
C1    C24   1.418865 S    
C3    C21   1.418397 S    
O4    C2    1.299904 A    
O3    Zn1   1.954841 S    
C26   S1    1.790581 S    
C20   C21   1.398007 A    
C20   H7    1.083774 S    
C2    C18   1.468042 S    
O8    C4    1.287354 A    
C5    C17   1.391178 A    
C19   C20   1.368993 A    
S1    O10   1.501030 D    
O14   H14   0.990898 S    
O7    C4    1.300567 A    
C10   C12   1.415606 A    
S2    O12   1.502791 D    
O3    C2    1.295986 A    
C5    C13   1.410232 A    
O11   H13   0.990764 S    
C19   C24   1.396046 A    
S2    O13   1.503046 D    
N3    O15   1.301431 A    
C11   C18   1.409177 A    
C16   H3    1.079138 S    
C21   C22   1.396056 A    
C12   C13   1.427750 A    
H1    C17   1.083499 S    
Zn2   O6    1.995536 S    
C19   H6    1.083645 S    
C8    H4    1.082967 S    
S1    O11   1.673472 S    
C7    N3    1.435277 S    
C22   H8    1.083811 S    
Zn1   O5    2.000230 S    
Zn2   N2    2.020046 S    
C26   N1    1.404837 A    
C27   H11   1.080890 S    
O5    C3    1.288949 A    
N4    O17   1.301561 A    
C28   H12   1.081790 S    
C13   C14   1.408440 A    
C9    C10   1.429922 A    
C7    C18   1.410738 A    
C10   C11   1.407217 A    
O2    Zn2   2.000230 S    
C25   H10   1.081764 S    
C12   C16   1.392423 A    
C25   C26   1.412959 A    
N1    C27   1.365710 A    
O6    C3    1.285394 A    
Zn1   N1    2.020162 S    
