data_mof_unit_36054.cif
_audit_creation_date              2012-12-10T18:43:04-0500
_audit_creation_method            fapswitch 2.2
_symmetry_space_group_name_H-M    P1
_symmetry_Int_Tables_number       1
_space_group_crystal_system       triclinic
_cell_length_a                    8.709999
_cell_length_b                    19.406805
_cell_length_c                    18.301674
_cell_angle_alpha                 89.414696
_cell_angle_beta                  96.403814
_cell_angle_gamma                 91.396378
_cell_volume                      3073.28851951

loop_
_atom_site_label
_atom_site_type_symbol
_atom_type_description
_atom_site_fract_x
_atom_site_fract_y
_atom_site_fract_z
_atom_type_partial_charge
C1    C     C_R   0.500616 0.367712 0.500238 0.863187
C2    C     C_R   0.501540 0.632367 0.499815 0.852334
C3    C     C_R   0.415308 0.964017 0.545829 -0.103409
C4    C     C_R   0.598255 0.036855 0.453634 -0.119386
C5    C     C_R   0.416992 0.035774 0.545165 -0.194950
C6    C     C_R   0.597446 0.965078 0.454672 -0.195785
C7    C     C_R   0.508019 0.072458 0.498885 0.141644
C8    C     C_R   0.506506 0.928243 0.501037 0.139872
C9    C     C_R   0.461894 0.442160 0.722905 0.059465
C10   C     C_R   0.632021 0.512489 0.282575 0.059199
C11   C     C_R   0.490572 0.440845 0.800594 0.317524
C12   C     C_R   0.633393 0.499100 0.206665 0.309436
C13   C     C_R   0.513476 0.503691 0.839212 0.031151
C14   C     C_R   0.491592 0.494103 0.160681 0.022094
C15   C     C_R   0.535661 0.563625 0.797546 -0.267063
C16   C     C_R   0.355955 0.489784 0.195743 -0.255483
C17   C     C_R   0.538414 0.559808 0.721019 0.083435
C18   C     C_R   0.363801 0.487890 0.272897 0.041676
C19   C     C_R   0.608814 0.545130 0.970815 -0.035047
C20   C     C_R   0.385310 0.457961 0.027965 -0.016882
C21   C     C_R   0.591064 0.544365 0.046505 -0.180005
C22   C     C_R   0.389280 0.465970 0.951479 -0.169932
C23   C     C_R   0.204952 0.496370 0.482342 0.884960
C24   C     C_R   0.795228 0.502444 0.517844 0.891556
C25   C     C_R   0.487206 0.498380 0.077430 0.012729
C26   C     C_R   0.504548 0.506054 0.921448 0.004623
C27   C     C_2   0.042318 0.481337 0.477608 -0.258045
C28   C     C_2   0.958333 0.515038 0.523575 -0.239473
C29   C     C_R   0.476095 0.745371 0.434421 -0.140779
C30   C     C_R   0.550035 0.255405 0.564446 -0.167134
C31   C     C_R   0.477799 0.816966 0.435491 -0.246535
C32   C     C_R   0.550325 0.183734 0.563694 -0.244542
C33   C     C_R   0.506353 0.852414 0.502225 0.016089
C34   C     C_R   0.508498 0.148039 0.497991 0.012434
C35   C     C_R   0.534265 0.815864 0.569284 0.488047
C36   C     C_R   0.467888 0.184491 0.432070 0.469354
C37   C     C_R   0.536596 0.743240 0.566874 -0.282753
C38   C     C_R   0.461377 0.256615 0.434164 -0.275508
C39   C     C_R   0.504600 0.708048 0.500106 -0.063145
C40   C     C_R   0.503433 0.292244 0.499948 -0.076413
Cu1   Cu    Cu3+1 0.499960 0.500000 0.573360 1.021246
Cu2   Cu    Cu3+1 0.500040 0.500000 0.426640 1.004100
H1    H     H_    0.552773 0.613315 0.823901 0.150993
H2    H     H_    0.243524 0.487245 0.163967 0.172754
H3    H     H_    0.566361 0.606161 0.691893 0.142262
H4    H     H_    0.257414 0.479686 0.296920 0.190365
H5    H     H_    0.665758 0.577886 0.082422 0.218460
H6    H     H_    0.305895 0.437177 0.914632 0.214669
H7    H     H_    0.451762 0.719279 0.382232 0.176276
H8    H     H_    0.587540 0.281960 0.615237 0.185014
H9    H     H_    0.454838 0.844962 0.384064 0.161267
H10   H     H_    0.584923 0.155955 0.614278 0.163169
H11   H     H_    0.564781 0.713338 0.616244 0.143563
H12   H     H_    0.421928 0.284706 0.384465 0.169699
H13   H     H_    0.342099 0.936396 0.580841 0.141018
H14   H     H_    0.670339 0.064668 0.418204 0.129442
H15   H     H_    0.345928 0.062746 0.579981 0.140748
H16   H     H_    0.668967 0.938245 0.419970 0.142303
N1    N     N_R   0.499980 0.500020 0.683620 -0.229428
N2    N     N_R   0.500020 0.499980 0.316380 -0.236017
O1    O     O_R   0.499930 0.400180 0.561970 -0.594273
O2    O     O_R   0.500070 0.599820 0.438030 -0.555915
O3    O     O_R   0.500010 0.400190 0.438070 -0.574877
O4    O     O_R   0.499990 0.599810 0.561930 -0.599146
O5    O     O_R   0.274810 0.500000 0.547650 -0.530614
O6    O     O_R   0.725190 0.500000 0.452350 -0.575732
O7    O     O_R   0.274880 0.500000 0.423750 -0.588845
O8    O     O_R   0.725120 0.500000 0.576250 -0.548053
C41   C     C_2   0.986702 0.417724 0.435737 0.864394
O9    O     O_2   0.053744 0.399127 0.384360 -0.616787
O10   O     O_R   0.865447 0.376662 0.457649 -0.765015
H17   H     H_    0.840816 0.334972 0.425099 0.321780
C42   C     C_2   0.016607 0.575993 0.568886 0.859457
O11   O     O_2   0.105884 0.618258 0.545447 -0.610775
O12   O     O_R   0.963424 0.586295 0.637186 -0.734974
H18   H     H_    0.009226 0.629635 0.662282 0.329532
C43   C     C_2   0.744864 0.583333 0.947362 0.826762
O13   O     O_2   0.816019 0.560064 0.899569 -0.585067
O14   O     O_R   0.796095 0.644691 0.982460 -0.762505
H19   H     H_    0.891026 0.665487 0.962506 0.339106
C44   C     C_2   0.279945 0.403342 0.052449 0.809248
O15   O     O_2   0.319211 0.368226 0.106844 -0.627087
O16   O     O_R   0.137925 0.389834 0.010832 -0.775023
H20   H     H_    0.078136 0.349951 0.031170 0.320238
O17   O     O_3   0.570254 0.853930 0.633654 -0.623067
C45   C     C_3   0.528540 0.821329 0.698525 0.052348
H21   H     H_    0.565151 0.856987 0.744640 0.178826
H22   H     H_    0.594912 0.774011 0.712435 0.134035
C46   C     C_3   0.352931 0.808962 0.696884 -0.395767
H23   H     H_    0.293834 0.859052 0.689438 0.221161
H24   H     H_    0.308210 0.775033 0.650473 0.231078
C47   C     C_3   0.312888 0.774989 0.768101 -0.869047
H25   H     H_    0.368475 0.724104 0.775810 0.252079
H26   H     H_    0.185751 0.766966 0.765599 0.261176
H27   H     H_    0.352398 0.808313 0.815846 0.256588
O18   O     O_3   0.418528 0.148452 0.368262 -0.611116
C48   C     C_3   0.501679 0.169645 0.309237 0.019489
H28   H     H_    0.559416 0.123721 0.290276 0.161840
H29   H     H_    0.595317 0.209115 0.323848 0.127360
C49   C     C_3   0.388962 0.196123 0.245620 -0.319025
H30   H     H_    0.305154 0.154100 0.226952 0.226609
H31   H     H_    0.323270 0.239700 0.264430 0.229610
C50   C     C_3   0.473658 0.220392 0.181051 -0.861494
H32   H     H_    0.548639 0.266131 0.196994 0.262125
H33   H     H_    0.388176 0.234832 0.134176 0.287222
H34   H     H_    0.545462 0.178600 0.163031 0.240497
C51   C     C_2   0.369454 0.384191 0.687394 0.907252
O19   O     O_2   0.258496 0.395988 0.642496 -0.575442
O20   O     O_R   0.401324 0.316205 0.708694 -0.773407
H35   H     H_    0.326933 0.281604 0.681759 0.327462
C52   C     C_2   0.766044 0.551204 0.319982 0.913490
O21   O     O_2   0.744792 0.602495 0.355369 -0.588349
O22   O     O_R   0.916641 0.532343 0.311130 -0.754716
H36   H     H_    0.997668 0.564348 0.337649 0.329207
O23   O     O_3   0.480361 0.378576 0.837902 -0.598191
C53   C     C_3   0.628680 0.360043 0.871236 0.089626
H37   H     H_    0.611727 0.325120 0.918286 0.161654
H38   H     H_    0.699736 0.404743 0.894761 0.156361
C54   C     C_3   0.717256 0.321482 0.817076 -0.339010
H39   H     H_    0.651511 0.273790 0.798750 0.251281
H40   H     H_    0.730356 0.354455 0.768057 0.227022
C55   C     C_3   0.877566 0.302099 0.852459 -0.868428
H41   H     H_    0.946994 0.349206 0.869386 0.290438
H42   H     H_    0.938194 0.273707 0.812255 0.264407
H43   H     H_    0.868149 0.268546 0.901375 0.248564
O24   O     O_3   0.773481 0.498954 0.177255 -0.598179
C56   C     C_3   0.805493 0.431282 0.155659 0.043860
H44   H     H_    0.879353 0.435870 0.110029 0.183190
H45   H     H_    0.700334 0.400837 0.133765 0.142659
C57   C     C_3   0.894295 0.392408 0.219582 -0.270076
H46   H     H_    0.002555 0.421661 0.238155 0.271719
H47   H     H_    0.822613 0.387971 0.266056 0.228442
C58   C     C_3   0.935676 0.320243 0.197315 -0.920762
H48   H     H_    0.829692 0.289930 0.177512 0.246213
H49   H     H_    0.996360 0.293254 0.245562 0.275210
H50   H     H_    0.013521 0.323276 0.153326 0.269700

loop_
_geom_bond_atom_site_label_1
_geom_bond_atom_site_label_2
_ccdc_geom_bond_type
C22   H6    S    
O24   C56   S    
C42   O12   S    
Cu1   Cu2   S    
C6    H16   S    
C57   H47   S    
C52   O21   D    
Cu1   O1    S    
C48   H28   S    
C29   H7    S    
O17   C45   S    
C47   H25   S    
C35   C37   A    
C17   H3    S    
C45   H22   S    
C12   O24   S    
C20   C25   A    
O23   C53   S    
C1    O3    A    
C53   H37   S    
C19   C43   S    
C42   O11   D    
C23   O7    A    
C41   O10   S    
C19   C26   A    
C32   H10   S    
C21   C25   A    
C1    C40   S    
C48   H29   S    
C3    H13   S    
C2    C39   S    
C50   H33   S    
C58   H50   S    
C51   O19   D    
C31   C33   A    
C23   C27   S    
C46   H24   S    
C11   O23   S    
Cu2   O2    S    
C27   C41   S    
C24   O6    A    
C37   H11   S    
C54   H40   S    
C30   H8    S    
C38   C40   A    
C20   C44   S    
C4    H14   S    
C51   O20   S    
C4    C7    A    
C28   C42   S    
C18   H4    S    
C47   H26   S    
C44   O16   S    
C2    O4    A    
C44   O15   D    
Cu1   O8    S    
C43   O14   S    
Cu1   N1    S    
C4    C6    A    
C3    C8    A    
Cu2   N2    S    
C5    C7    A    
C45   H21   S    
Cu1   O5    S    
C43   O13   D    
C49   C50   S    
C9    N1    A    
C32   C34   A    
C10   N2    A    
O12   H18   S    
C56   H45   S    
C36   O18   S    
O16   H20   S    
C38   H12   S    
O18   C48   S    
C29   C39   A    
C49   H31   S    
C30   C40   A    
C10   C52   S    
C52   O22   S    
C16   C18   A    
C46   C47   S    
C9    C11   A    
C10   C12   A    
C17   N1    A    
C18   N2    A    
C12   C14   A    
C13   C15   A    
C58   H48   S    
C7    C34   S    
C14   C16   A    
C13   C26   S    
C57   C58   S    
C20   C22   A    
C55   H42   S    
C56   H44   S    
C27   C28   D    
C48   C49   S    
Cu2   O6    S    
O22   H36   S    
C54   C55   S    
C15   C17   A    
C16   H2    S    
C35   O17   S    
C19   C21   A    
C24   C28   S    
C31   H9    S    
C3    C5    A    
C45   C46   S    
C1    O1    A    
C6    C8    A    
C54   H39   S    
C9    C51   S    
C53   C54   S    
C5    H15   S    
C23   O5    A    
C55   H43   S    
C36   C38   A    
C57   H46   S    
C46   H23   S    
C56   C57   S    
C15   H1    S    
O10   H17   S    
C37   C39   A    
O20   H35   S    
C30   C32   A    
C11   C13   A    
Cu2   O7    S    
C49   H30   S    
C33   C35   A    
C53   H38   S    
C50   H34   S    
C34   C36   A    
C8    C33   S    
C47   H27   S    
C14   C25   S    
C41   O9    D    
C24   O8    A    
O14   H19   S    
C29   C31   A    
C22   C26   A    
C50   H32   S    
C58   H49   S    
Cu1   O4    S    
C55   H41   S    
Cu2   O3    S    
C2    O2    A    
C21   H5    S    
