data_mof_unit_54034.cif
_audit_creation_date              2012-12-11T15:09:35-0500
_audit_creation_method            fapswitch 2.2
_symmetry_space_group_name_H-M    P1
_symmetry_Int_Tables_number       1
_space_group_crystal_system       triclinic
_cell_length_a                    20.897574
_cell_length_b                    7.128189
_cell_length_c                    14.03286
_cell_angle_alpha                 89.997141
_cell_angle_beta                  98.034232
_cell_angle_gamma                 90.00385
_cell_volume                      2069.84344733

loop_
_atom_site_label
_atom_site_type_symbol
_atom_type_description
_atom_site_fract_x
_atom_site_fract_y
_atom_site_fract_z
_atom_type_partial_charge
O1    O     O_R   0.447130 0.507140 0.597350 -0.541964
O2    O     O_R   0.552870 0.007140 0.402650 -0.541934
O3    O     O_R   0.578910 0.181280 0.586990 -0.544739
O4    O     O_R   0.421090 0.681280 0.413010 -0.544711
C1    C     C_R   0.604493 0.344497 0.607375 0.753188
C2    C     C_R   0.395507 0.844493 0.392626 0.753167
O5    O     O_R   0.449230 0.177860 0.608640 -0.531259
O6    O     O_R   0.550770 0.677860 0.391360 -0.531150
O7    O     O_R   0.422260 0.000770 0.424450 -0.531385
O8    O     O_R   0.577740 0.500770 0.575550 -0.531404
C3    C     C_R   0.432917 0.346590 0.634786 0.896892
C4    C     C_R   0.567083 0.846607 0.365213 0.896799
O9    O     O_3   0.491310 0.336980 0.439550 -0.384330
O10   O     O_3   0.508690 0.836980 0.560450 -0.384435
V1    V     V_3+5 0.501610 0.064760 0.511210 1.611775
V2    V     V_3+5 0.498390 0.564760 0.488790 1.611916
C5    C     C_R   0.621188 0.943545 0.126259 0.598580
C6    C     C_R   0.378858 0.442551 0.873887 0.598637
H1    H     H_    0.706436 0.960916 0.001833 0.176491
H2    H     H_    0.293621 0.459380 0.998356 0.176513
C7    C     C_R   0.607753 0.859388 0.288921 -0.420726
C8    C     C_R   0.392243 0.359291 0.711071 -0.420835
C9    C     C_R   0.921566 0.845782 0.306298 0.478303
C10   C     C_R   0.078432 0.346561 0.693686 0.478376
C11   C     C_R   0.884981 0.857915 0.381474 0.564729
C12   C     C_R   0.115027 0.359106 0.618542 0.564732
C13   C     C_R   0.817905 0.875507 0.362794 0.531852
C14   C     C_R   0.182109 0.376452 0.637252 0.531895
C15   C     C_R   0.785301 0.869373 0.266869 -0.072212
C16   C     C_R   0.214707 0.369610 0.733159 -0.072208
C17   C     C_R   0.823577 0.875510 0.190480 -0.098986
C18   C     C_R   0.176434 0.375322 0.809555 -0.099015
C19   C     C_R   0.716430 0.871327 0.243765 -0.034578
C20   C     C_R   0.283577 0.371287 0.756259 -0.034632
C21   C     C_R   0.688295 0.916451 0.148215 -0.190997
C22   C     C_R   0.311737 0.415762 0.851889 -0.191063
C23   C     C_R   0.727264 0.931513 0.075421 -0.040536
C24   C     C_R   0.272777 0.430460 0.924715 -0.040560
C25   C     C_R   0.793456 0.903990 0.095445 -0.096143
C26   C     C_R   0.206571 0.403174 0.904643 -0.096135
C27   C     C_R   0.674093 0.824904 0.310694 0.574568
C28   C     C_R   0.325884 0.325171 0.689237 0.574619
C29   C     C_R   0.581585 0.922347 0.197475 0.498599
C30   C     C_R   0.418448 0.421641 0.802627 0.498444
C31   C     C_R   0.891621 0.859927 0.211057 -0.331559
C32   C     C_R   0.108379 0.360029 0.788943 -0.331594
H3    H     H_    0.821111 0.912109 0.035845 0.092392
H4    H     H_    0.178922 0.410975 0.964259 0.092373
C33   C     C_1   0.166586 0.857088 0.168335 -0.126452
C34   C     C_1   0.833414 0.357078 0.831665 -0.126453
C35   C     C_1   0.218982 0.854817 0.219458 0.062519
C36   C     C_1   0.781017 0.354812 0.780543 0.062521
C37   C     C_1   0.280730 0.853397 0.279493 0.077625
C38   C     C_1   0.719270 0.353401 0.720507 0.077609
C39   C     C_1   0.333097 0.851100 0.330699 -0.089249
C40   C     C_1   0.666902 0.351110 0.669302 -0.089289
O11   O     O_R   0.922300 0.202240 0.924350 -0.538471
O12   O     O_R   0.077700 0.702240 0.075650 -0.538415
O13   O     O_R   0.050780 0.535130 0.891350 -0.541469
O14   O     O_R   0.949220 0.035130 0.108650 -0.541501
C41   C     C_R   0.067527 0.368012 0.865510 0.842096
C42   C     C_R   0.932468 0.867996 0.134486 0.842059
O15   O     O_R   0.921100 0.531560 0.912990 -0.538074
O16   O     O_R   0.078900 0.031560 0.087010 -0.538127
O17   O     O_R   0.947120 0.708470 0.097370 -0.539596
O18   O     O_R   0.052880 0.208470 0.902630 -0.539641
C43   C     C_R   0.895877 0.363543 0.893444 0.737123
C44   C     C_R   0.104123 0.863548 0.106555 0.737136
O19   O     O_3   0.008710 0.375800 0.060400 -0.377172
O20   O     O_3   0.991290 0.875800 0.939600 -0.377183
V3    V     V_3+5 0.998380 0.648080 0.988790 1.536755
V4    V     V_3+5 0.001620 0.148080 0.011210 1.536548
F1    F     F_    0.517280 0.957420 0.176535 -0.602574
F2    F     F_    0.482777 0.456348 0.823631 -0.602567
F3    F     F_    0.594084 0.994051 0.036247 -0.588143
F4    F     F_    0.405992 0.492436 0.963993 -0.588120
F5    F     F_    0.695093 0.732196 0.393703 -0.609665
F6    F     F_    0.304832 0.232989 0.606082 -0.609657
F7    F     F_    0.986886 0.831809 0.326445 -0.580706
F8    F     F_    0.013104 0.332904 0.673514 -0.580742
F9    F     F_    0.787190 0.922371 0.438355 -0.559949
F10   F     F_    0.212848 0.423793 0.561782 -0.559980
F11   F     F_    0.915065 0.861162 0.473647 -0.522275
F12   F     F_    0.084948 0.363055 0.526385 -0.522272

loop_
_geom_bond_atom_site_label_1
_geom_bond_atom_site_label_2
_ccdc_geom_bond_type
C5    F3    S    
C29   F1    S    
C16   C18   A    
C9    C31   A    
C33   C44   S    
C13   C15   A    
C1    C40   S    
O1    C3    A    
C2    C39   S    
O16   V4    S    
O2    C4    A    
C2    O7    A    
O5    C3    A    
C8    C30   A    
O16   C44   A    
C21   C23   A    
C10   C12   A    
C27   F5    S    
O12   V3    S    
O14   V4    S    
C15   C19   A    
C31   C42   S    
O14   C42   A    
O19   V3    S    
H1    C23   S    
C7    C29   A    
C41   O18   A    
C10   F8    S    
O18   V4    S    
C33   C35   T    
C20   C28   A    
C34   C36   T    
O20   V3    S    
C34   C43   S    
O5    V1    S    
O6    V2    S    
O11   C43   A    
C36   C38   S    
C38   C40   T    
C37   C39   T    
O15   C43   A    
O13   C41   A    
C16   C20   A    
C32   C41   S    
C14   F10   S    
C13   F9    S    
O4    C2    A    
O17   V3    S    
C4    C7    S    
C35   C37   S    
O4    V2    S    
O19   V4    S    
C5    C29   A    
C6    C30   A    
H2    C24   S    
O6    C4    A    
O1    V2    S    
C30   F2    S    
O2    V1    S    
C7    C27   A    
O12   C44   A    
O15   V3    S    
C28   F6    S    
O3    V1    S    
C25   H3    S    
C26   H4    S    
C12   F12   S    
C42   O17   A    
C18   C32   A    
O3    C1    A    
C11   C13   A    
C3    C8    S    
C12   C14   A    
C19   C27   A    
C22   C24   A    
O7    V1    S    
C10   C32   A    
C1    O8    A    
C23   C25   A    
O8    V2    S    
C24   C26   A    
C8    C28   A    
C14   C16   A    
C19   C21   A    
C17   C25   A    
C20   C22   A    
C18   C26   A    
O11   V4    S    
C9    C11   A    
C15   C17   A    
C17   C31   A    
O9    V2    S    
O13   V3    S    
C11   F11   S    
O10   V1    S    
O20   V4    S    
C5    C21   A    
C9    F7    S    
C6    C22   A    
C6    F4    S    
