data_mof_unit_55374.cif
_audit_creation_date              2012-12-10T18:01:45-0500
_audit_creation_method            fapswitch 2.2
_symmetry_space_group_name_H-M    P1
_symmetry_Int_Tables_number       1
_space_group_crystal_system       triclinic
_cell_length_a                    10.912226
_cell_length_b                    9.513236
_cell_length_c                    19.354985
_cell_angle_alpha                 89.995962
_cell_angle_beta                  90.122798
_cell_angle_gamma                 90.162647
_cell_volume                      2009.23952795

loop_
_atom_site_label
_atom_site_type_symbol
_atom_type_description
_atom_site_fract_x
_atom_site_fract_y
_atom_site_fract_z
_atom_type_partial_charge
C1    C     C_R   0.261789 0.499837 0.501162 0.876692
C2    C     C_R   0.062316 0.628386 0.496125 0.331505
C3    C     C_R   0.870980 0.501566 0.502781 -0.405828
C4    C     C_R   0.127322 0.500146 0.503257 -0.410798
C5    C     C_R   0.445272 0.074139 0.447749 -0.050040
C6    C     C_R   0.557483 0.925766 0.551367 -0.021811
C7    C     C_R   0.556874 0.074526 0.551567 0.008712
C8    C     C_R   0.443594 0.925434 0.448278 -0.047688
C9    C     C_R   0.480947 0.625694 0.254932 -0.206479
C10   C     C_R   0.497732 0.372701 0.745113 -0.202841
C11   C     C_R   0.501268 0.627402 0.745139 -0.194744
C12   C     C_R   0.737613 0.500397 0.500820 0.876051
C13   C     C_R   0.512440 0.373641 0.254926 -0.196640
C14   C     C_R   0.480829 0.625775 0.182957 -0.159107
C15   C     C_R   0.497903 0.372622 0.817083 -0.158448
C16   C     C_R   0.500888 0.627377 0.817115 -0.158856
C17   C     C_R   0.511825 0.373584 0.182956 -0.159245
C18   C     C_R   0.496461 0.499727 0.146241 0.059585
C19   C     C_R   0.499271 0.499976 0.853813 0.060693
C20   C     C_R   0.497645 0.499812 0.291507 -0.025209
C21   C     C_R   0.499729 0.500043 0.708531 -0.022100
C22   C     C_3   0.140215 0.180680 0.459039 0.107748
C23   C     C_R   0.498645 0.499937 0.929950 0.409550
C24   C     C_3   0.025595 0.117485 0.425167 -0.335135
C25   C     C_3   0.060372 0.044449 0.357753 -0.937469
C26   C     C_3   0.858978 0.739227 0.392472 0.110726
C27   C     C_3   0.762467 0.847419 0.371558 -0.315343
C28   C     C_3   0.742529 0.848960 0.293488 -0.952314
C29   C     C_3   0.845288 0.298319 0.622141 0.097394
C30   C     C_3   0.867801 0.169232 0.666928 -0.353604
C31   C     C_3   0.822324 0.191169 0.740617 -0.926990
C32   C     C_3   0.147928 0.795808 0.566614 0.135873
C33   C     C_3   0.036005 0.849659 0.606373 -0.368112
C34   C     C_R   0.497016 0.499810 0.070103 0.409578
C35   C     C_3   0.069378 0.878777 0.681703 -0.946573
C36   C     C_R   0.499346 0.499984 0.367414 0.771734
C37   C     C_R   0.499959 0.500009 0.632599 0.757094
C38   C     C_R   0.060704 0.373664 0.513679 0.346942
C39   C     C_R   0.936378 0.624334 0.485526 0.305372
C40   C     C_R   0.934768 0.380385 0.523302 0.317802
Cu1   Cu    Cu3+1 0.500000 0.640660 0.500000 0.938958
Cu2   Cu    Cu3+1 0.500000 0.359340 0.500000 0.951235
H1    H     H_    0.468383 0.724383 0.281881 0.151482
H2    H     H_    0.604009 0.870054 0.592412 0.121927
H3    H     H_    0.602310 0.130419 0.592959 0.118385
H4    H     H_    0.397584 0.869487 0.407037 0.133964
H5    H     H_    0.204775 0.093258 0.468821 0.172587
H6    H     H_    0.185178 0.253946 0.421945 0.125872
H7    H     H_    0.982012 0.040523 0.460675 0.270027
H8    H     H_    0.958568 0.201572 0.413039 0.211463
H9    H     H_    0.111835 0.117414 0.323565 0.247933
H10   H     H_    0.976726 0.011182 0.329806 0.262640
H11   H     H_    0.117763 0.950678 0.368576 0.273520
H12   H     H_    0.496091 0.272901 0.718191 0.144899
H13   H     H_    0.825584 0.633773 0.375209 0.109657
H14   H     H_    0.946781 0.762606 0.365715 0.152411
H15   H     H_    0.674531 0.820891 0.397013 0.254775
H16   H     H_    0.790492 0.953804 0.389259 0.225776
H17   H     H_    0.827547 0.881468 0.266423 0.258613
H18   H     H_    0.668499 0.924297 0.280355 0.255799
H19   H     H_    0.715529 0.742841 0.275034 0.269458
H20   H     H_    0.746822 0.326638 0.624882 0.155282
H21   H     H_    0.899429 0.387365 0.644679 0.110905
H22   H     H_    0.820420 0.076522 0.644148 0.219654
H23   H     H_    0.502727 0.727255 0.718253 0.144482
H24   H     H_    0.967855 0.148911 0.668195 0.247276
H25   H     H_    0.868042 0.283815 0.764386 0.266606
H26   H     H_    0.843516 0.096804 0.772156 0.260277
H27   H     H_    0.721665 0.207220 0.740749 0.255288
H28   H     H_    0.217699 0.881064 0.565067 0.166723
H29   H     H_    0.190369 0.707330 0.595782 0.130703
H30   H     H_    0.001485 0.947246 0.581695 0.251791
H31   H     H_    0.961615 0.769890 0.605733 0.222902
H32   H     H_    0.108073 0.783081 0.706264 0.260066
H33   H     H_    0.986028 0.908840 0.710833 0.263892
H34   H     H_    0.525241 0.274912 0.281843 0.147213
H35   H     H_    0.137582 0.965442 0.684986 0.266532
H36   H     H_    0.468336 0.724675 0.156200 0.154449
H37   H     H_    0.496470 0.272657 0.843822 0.153406
H38   H     H_    0.502131 0.727297 0.843896 0.152445
H39   H     H_    0.524072 0.274684 0.156195 0.152687
H40   H     H_    0.401199 0.129756 0.405840 0.110974
N1    N     N_R   0.500000 0.852070 0.500000 -0.170164
N2    N     N_R   0.500000 0.147930 0.500000 -0.153086
N3    N     N_R   0.504245 0.377366 0.034385 -0.240345
N4    N     N_R   0.491504 0.622393 0.965666 -0.240453
N5    N     N_R   0.504950 0.377419 0.965683 -0.239800
N6    N     N_R   0.490653 0.622329 0.034371 -0.240138
O1    O     O_R   0.319640 0.618740 0.500000 -0.557687
O2    O     O_3   0.877026 0.745573 0.464786 -0.565338
O3    O     O_3   0.875919 0.266082 0.552693 -0.569619
O4    O     O_3   0.119158 0.758941 0.497262 -0.578614
O5    O     O_R   0.680360 0.381260 0.500000 -0.552131
O6    O     O_R   0.680360 0.618740 0.500000 -0.546916
O7    O     O_R   0.319640 0.381260 0.500000 -0.558612
O8    O     O_R   0.499980 0.618820 0.400140 -0.599403
O9    O     O_R   0.500020 0.381180 0.599860 -0.595689
O10   O     O_R   0.500020 0.618820 0.599860 -0.600371
O11   O     O_R   0.499980 0.381180 0.400140 -0.596660
O12   O     O_3   0.116923 0.245001 0.523773 -0.567588

loop_
_geom_bond_atom_site_label_1
_geom_bond_atom_site_label_2
_ccdc_geom_bond_type
Cu1   O1    S    
C29   H21   S    
C35   H32   S    
C30   H22   S    
Cu2   O5    S    
Cu1   Cu2   S    
C14   C18   A    
C22   H6    S    
C26   H13   S    
C37   O9    A    
C15   C19   A    
C35   H33   S    
C26   C27   S    
C7    H3    S    
C25   H11   S    
C10   C15   A    
C30   C31   S    
N4    N6    A    
Cu1   O8    S    
C8    N1    A    
C3    C12   S    
C33   H30   S    
C2    C39   A    
C15   H37   S    
C23   N4    A    
C39   O2    S    
C28   H19   S    
N3    N5    A    
C7    N2    A    
C3    C39   A    
C23   N5    A    
C12   O6    A    
C37   O10   A    
C32   H29   S    
C28   H18   S    
C10   C21   A    
C24   H8    S    
C31   H26   S    
C9    H1    S    
C22   O12   S    
Cu2   O7    S    
Cu2   N2    S    
C24   C25   S    
C38   O12   S    
C27   H15   S    
Cu2   O9    S    
C5    N2    A    
C19   C23   S    
C32   H28   S    
C35   H35   S    
C16   H38   S    
C34   N3    A    
C2    C4    A    
C9    C14   A    
C25   H9    S    
C29   C30   S    
C11   C16   A    
C36   O8    A    
C9    C20   A    
Cu1   O6    S    
C13   H34   S    
C1    O7    A    
C17   C18   A    
C34   N6    A    
C2    O4    S    
C18   C34   S    
C30   H24   S    
C33   H31   S    
C4    C38   A    
C3    C40   A    
C22   C24   S    
C12   O5    A    
C29   O3    S    
C28   H17   S    
C24   H7    S    
C29   H20   S    
C1    O1    A    
C6    N1    A    
C13   C20   A    
C27   H16   S    
C26   H14   S    
C5    C8    A    
C6    C7    A    
C26   O2    S    
C13   C17   A    
C1    C4    S    
C32   C33   S    
C25   H10   S    
Cu2   O11   S    
C38   C40   A    
C5    H40   S    
C32   O4    S    
C16   C19   A    
C33   C35   S    
C11   C21   A    
C22   H5    S    
C36   O11   A    
C17   H39   S    
C14   H36   S    
C40   O3    S    
C10   H12   S    
C8    H4    S    
C31   H25   S    
C20   C36   S    
C31   H27   S    
C21   C37   S    
C27   C28   S    
Cu1   O10   S    
C6    H2    S    
C11   H23   S    
Cu1   N1    S    
