data_mof_unit_8778.cif
_audit_creation_date              2012-12-10T17:35:50-0500
_audit_creation_method            fapswitch 2.2
_symmetry_space_group_name_H-M    P1
_symmetry_Int_Tables_number       1
_space_group_crystal_system       triclinic
_cell_length_a                    10.497952
_cell_length_b                    12.179519
_cell_length_c                    12.867592
_cell_angle_alpha                 91.811728
_cell_angle_beta                  92.755076
_cell_angle_gamma                 86.473511
_cell_volume                      1639.5591144

loop_
_atom_site_label
_atom_site_type_symbol
_atom_type_description
_atom_site_fract_x
_atom_site_fract_y
_atom_site_fract_z
_atom_type_partial_charge
Br1   Br    Br    0.499244 0.709690 0.165587 -0.371430
Br2   Br    Br    0.747522 0.461267 0.830440 -0.342394
Br3   Br    Br    0.734139 0.245750 0.661947 -0.340443
Br4   Br    Br    0.263082 0.752334 0.338369 -0.312914
C1    C     C_R   0.494071 0.520846 0.699306 0.957536
C2    C     C_R   0.615346 0.158788 0.584404 0.344321
C3    C     C_R   0.561267 0.856323 0.535217 0.052896
C4    C     C_R   0.439024 0.143675 0.463979 0.043066
C5    C     C_R   0.546419 0.974624 0.534272 -0.075178
C6    C     C_R   0.453124 0.025131 0.465095 -0.074569
C7    C     C_R   0.742105 0.500067 0.499905 0.946774
C8    C     C_R   0.258005 0.499990 0.501630 0.934003
C9    C     C_3   0.965535 0.394838 0.496201 -0.148538
C10   C     C_3   0.034609 0.604854 0.507949 -0.185447
C11   C     C_3   0.048285 0.445881 0.584719 -0.016756
C12   C     C_R   0.511095 0.480029 0.300360 0.955633
C13   C     C_3   0.951941 0.553603 0.419529 -0.014611
C14   C     C_3   0.123196 0.499896 0.503616 -0.078240
C15   C     C_3   0.877112 0.499763 0.500425 -0.061272
C16   C     C_3   0.042258 0.449598 0.414139 -0.211866
C17   C     C_3   0.957731 0.550022 0.589967 -0.209611
C18   C     C_R   0.531579 0.471051 0.189416 -0.172567
C19   C     C_R   0.482094 0.532749 0.809497 -0.135593
C20   C     C_R   0.369139 0.598067 0.960776 -0.205043
C21   C     C_R   0.612112 0.374938 0.035232 -0.113831
C22   C     C_R   0.375197 0.590901 0.852043 -0.133764
C23   C     C_R   0.572888 0.474376 0.872104 0.251542
C24   C     C_R   0.597536 0.377944 0.143705 -0.143400
C25   C     C_2   0.099582 0.384542 0.678598 1.027950
C26   C     C_2   0.894400 0.612069 0.326307 1.007616
C27   C     C_2   0.658770 0.288781 0.208521 1.042296
C28   C     C_2   0.269260 0.640999 0.784894 0.896651
C29   C     C_2   0.262104 0.663250 0.010552 1.087764
C30   C     C_2   0.682446 0.279860 0.984441 1.046229
C31   C     C_2   0.323730 0.198700 0.415113 0.958049
C32   C     C_2   0.677268 0.801441 0.583250 0.959874
C33   C     C_2   0.300333 0.996640 0.308536 0.992823
C34   C     C_R   0.479696 0.556283 0.126708 0.240945
C35   C     C_2   0.698704 0.002440 0.691223 0.943167
C36   C     C_R   0.546973 0.457946 0.974998 0.002948
C37   C     C_R   0.460547 0.534961 0.021534 0.016005
C38   C     C_R   0.376399 0.955175 0.400702 -0.156921
C39   C     C_R   0.622360 0.044285 0.599279 -0.138860
C40   C     C_R   0.383456 0.840531 0.415874 0.365491
H1    H     H_    0.933969 0.309412 0.491859 0.203481
H2    H     H_    0.680583 0.159839 0.873494 0.384766
H3    H     H_    0.131959 0.219972 0.413160 0.346090
H4    H     H_    0.869101 0.781714 0.584950 0.342970
H5    H     H_    0.301654 0.063042 0.167068 0.379871
H6    H     H_    0.872750 0.974042 0.761833 0.372891
H7    H     H_    0.066404 0.690201 0.512360 0.207702
H8    H     H_    0.080365 0.409932 0.342237 0.198885
H9    H     H_    0.919203 0.590030 0.661552 0.222599
H10   H     H_    0.252906 0.332679 0.768409 0.363330
H11   H     H_    0.789443 0.601932 0.191390 0.376390
H12   H     H_    0.783140 0.246701 0.327029 0.350095
H13   H     H_    0.212075 0.751895 0.676532 0.346526
H14   H     H_    0.292024 0.802898 0.936923 0.333369
N1    N     N_R   0.523490 0.207800 0.519350 -0.170914
N2    N     N_R   0.476510 0.792200 0.480650 -0.164972
O1    O     O_R   0.506270 0.421700 0.658830 -0.568809
O2    O     O_R   0.230812 0.374950 0.702703 -0.803157
O3    O     O_2   0.910359 0.709661 0.316440 -0.509302
O4    O     O_R   0.823016 0.554189 0.250985 -0.775939
O5    O     O_2   0.630844 0.193597 0.191949 -0.545971
O6    O     O_R   0.748756 0.314018 0.287938 -0.766566
O7    O     O_2   0.160589 0.612446 0.792664 -0.607082
O8    O     O_R   0.292240 0.724121 0.717000 -0.746708
O9    O     O_2   0.202019 0.621120 0.076110 -0.508686
O10   O     O_R   0.229857 0.772472 0.984833 -0.694760
O11   O     O_2   0.789588 0.249224 0.017355 -0.538724
O12   O     O_R   0.493730 0.578300 0.341170 -0.569867
O13   O     O_R   0.625001 0.225050 0.899249 -0.745197
O14   O     O_2   0.330175 0.250024 0.335732 -0.589040
O15   O     O_R   0.205593 0.186308 0.457522 -0.777017
O16   O     O_2   0.671553 0.748664 0.661840 -0.559679
O17   O     O_R   0.795140 0.815698 0.541152 -0.757275
O18   O     O_2   0.183792 0.995361 0.305009 -0.523684
O19   O     O_R   0.363074 0.036949 0.225626 -0.710041
O20   O     O_2   0.644530 0.965613 0.763392 -0.560617
O21   O     O_R   0.831817 0.005150 0.695234 -0.720507
O22   O     O_R   0.491200 0.609310 0.646410 -0.551785
O23   O     O_R   0.508800 0.390690 0.353590 -0.594166
O24   O     O_R   0.693580 0.406210 0.506230 -0.583707
O25   O     O_R   0.306420 0.593790 0.493770 -0.603060
O26   O     O_R   0.678510 0.593830 0.493810 -0.638544
O27   O     O_R   0.321490 0.406170 0.506190 -0.599417
O28   O     O_2   0.025482 0.343534 0.734271 -0.509204
Zn1   Zn    Zn3+2 0.510060 0.374730 0.508290 1.065018
Zn2   Zn    Zn3+2 0.489940 0.625270 0.491710 1.070082

loop_
_geom_bond_atom_site_label_1
_geom_bond_atom_site_label_2
_ccdc_geom_bond_type
C27   O6    S    
C17   H9    S    
C31   O14   D    
C22   C28   S    
C20   C37   A    
C26   O4    S    
C11   C14   S    
C3    C32   S    
C10   C14   S    
C12   O12   A    
Br3   C2    S    
C21   C24   A    
C33   O19   S    
C7    C15   S    
C8    O25   A    
C10   C17   S    
C15   C17   S    
C20   C22   A    
C32   O17   S    
C4    N1    A    
C6    C38   A    
C7    O26   A    
C18   C34   A    
C13   C16   S    
C27   O5    D    
N1    Zn1   S    
C19   C22   A    
C33   C38   S    
C25   O28   D    
C32   O16   D    
Br2   C23   S    
C19   C23   A    
C5    C6    A    
C9    C16   S    
C29   O9    D    
C21   C30   S    
C28   O8    S    
C18   C24   A    
C26   O3    D    
C13   C26   S    
C10   C13   S    
C38   C40   A    
O1    Zn1   S    
C11   C25   S    
O23   Zn1   S    
C5    C39   A    
C9    C15   S    
C35   O21   S    
C34   C37   A    
O26   Zn2   S    
H14   O10   S    
C35   C39   S    
Br4   C40   S    
C12   O23   A    
H5    O19   S    
C4    C31   S    
H4    O17   S    
O12   Zn2   S    
C10   H7    S    
C1    C19   S    
C23   C36   A    
C31   O15   S    
H11   O4    S    
C1    O1    A    
C29   O10   S    
C28   O7    D    
Br1   C34   S    
C4    C6    A    
C36   C37   A    
C2    C39   A    
O27   Zn1   S    
O24   Zn1   S    
H13   O8    S    
C3    N2    A    
C3    C5    A    
C25   O2    S    
C12   C18   S    
C8    O27   A    
C2    N1    A    
C24   C27   S    
O25   Zn2   S    
N2    Zn2   S    
C7    O24   A    
H10   O2    S    
C33   O18   D    
C20   C29   S    
O22   Zn2   S    
C35   O20   D    
C9    C11   S    
H3    O15   S    
C21   C36   A    
C9    H1    S    
C1    O22   A    
C40   N2    A    
H12   O6    S    
C13   C15   S    
C14   C16   S    
C30   O13   S    
C11   C17   S    
C16   H8    S    
C8    C14   S    
C30   O11   D    
H2    O13   S    
H6    O21   S    
