data_mof_unit_64421.cif
_audit_creation_date              2013-03-05T15:55:26-0500
_audit_creation_method            fapswitch 2.2
_symmetry_space_group_name_H-M    P1
_symmetry_Int_Tables_number       1
_space_group_crystal_system       triclinic
_cell_length_a                    8.210177
_cell_length_b                    16.491427
_cell_length_c                    18.820301
_cell_angle_alpha                 96.979201
_cell_angle_beta                  92.953034
_cell_angle_gamma                 93.444307
_cell_volume                      2520.31939253

loop_
_atom_site_label
_atom_site_type_symbol
_atom_site_description
_atom_site_fract_x
_atom_site_fract_y
_atom_site_fract_z
_atom_type_partial_charge
P1    P     P_3+3 0.048660 0.430750 0.339650 0.465614
O1    O     O_2   0.875590 0.454550 0.328720 -0.362087
O2    O     O_3   0.127960 0.455900 0.416100 -0.416414
O3    O     O_3   0.634460 0.601950 0.371690 -0.406801
O4    O     O_2   0.781502 0.561763 0.251478 -0.358152
O5    O     O_3   0.027839 0.323850 0.321369 -0.573049
O6    O     O_3   0.591068 0.680610 0.245739 -0.486051
H1    H     H_    0.716024 0.740111 0.338679 0.154781
C1    C     C_3   0.613000 0.825935 0.275850 -0.950445
H2    H     H_    0.615572 0.875586 0.321483 0.220521
H3    H     H_    0.725801 0.833235 0.246465 0.257613
P2    P     P_3+3 0.638170 0.686040 0.555200 0.481660
P3    P     P_3+3 0.073538 0.750025 0.407191 0.480150
O7    O     O_2   0.810360 0.697790 0.534100 -0.394846
O8    O     O_3   0.049190 0.643760 0.407000 -0.317157
O9    O     O_2   0.943123 0.788792 0.454462 -0.399470
O10   O     O_3   0.652935 0.712602 0.648425 -0.633242
O11   O     O_3   0.016710 0.771306 0.320809 -0.644168
C2    C     C_3   0.146138 0.755930 0.276155 1.043093
H4    H     H_    0.255348 0.796897 0.295955 -0.135794
C3    C     C_3   0.095331 0.773753 0.201024 0.364639
H5    H     H_    0.985051 0.734097 0.179847 0.094562
H6    H     H_    0.066814 0.838895 0.202385 -0.008801
C4    C     C_3   0.204278 0.711402 0.619752 0.423017
H7    H     H_    0.323169 0.690134 0.603461 0.106422
H8    H     H_    0.110627 0.695820 0.574750 0.122038
C5    C     C_3   0.219933 0.803950 0.638932 -0.986212
H9    H     H_    0.317209 0.821403 0.682248 0.273065
H10   H     H_    0.251735 0.834087 0.591581 0.227602
Ba1   Ba    Ba6+2 0.843980 0.537940 0.465850 1.591126
C6    C     C_3   0.990095 0.289766 0.383435 0.434558
H11   H     H_    0.876083 0.313375 0.403469 0.093004
H12   H     H_    0.089820 0.304335 0.425771 0.133063
C7    C     C_3   0.967818 0.197207 0.364994 -0.973816
H13   H     H_    0.946040 0.167749 0.413763 0.227031
H14   H     H_    0.079695 0.173547 0.341525 0.262806
C8    C     C_3   0.731194 0.653014 0.681600 1.251961
H15   H     H_    0.841733 0.635613 0.654138 -0.037332
C9    C     C_3   0.780867 0.687718 0.758837 -1.027571
H16   H     H_    0.871536 0.740694 0.759946 0.233260
H17   H     H_    0.836084 0.640467 0.787710 0.228089
H18   H     H_    0.671990 0.708162 0.786932 0.267813
P4    P     P_3+3 0.141040 0.569320 0.660360 0.496746
O12   O     O_2   0.314110 0.545480 0.671320 -0.264192
O13   O     O_3   0.061730 0.544170 0.583900 -0.422860
O14   O     O_3   0.555240 0.398120 0.628310 -0.353492
O15   O     O_3   0.159572 0.676073 0.680287 -0.570352
P5    P     P_3+3 0.124030 0.250387 0.596652 0.454635
O16   O     O_3   0.629280 0.402460 0.464250 -0.386608
O17   O     O_3   0.140510 0.356300 0.593010 -0.368171
O18   O     O_2   0.255945 0.212130 0.549912 -0.389135
O19   O     O_3   0.185140 0.234936 0.684075 -0.489597
Ba2   Ba    Ba6+2 0.345840 0.462130 0.534150 1.585882
P6    P     P_3+3 0.613788 0.586214 0.277909 0.517780
C10   C     C_3   0.603959 0.743180 0.303828 0.508614
H19   H     H_    0.495296 0.738457 0.335935 0.058740
H20   H     H_    0.505239 0.831063 0.238971 0.292198
O20   O     O_3   0.560420 0.597610 0.535760 -0.352824
C11   C     C_3   0.476884 0.329121 0.316586 0.439397
H21   H     H_    0.357905 0.343827 0.338661 0.095942
H22   H     H_    0.560255 0.385391 0.321694 0.092324
C12   C     C_3   0.445526 0.296708 0.237565 -1.003238
H23   H     H_    0.368890 0.238177 0.231725 0.277592
H24   H     H_    0.379972 0.341208 0.209100 0.209187
H25   H     H_    0.563332 0.286107 0.212621 0.266989
P7    P     P_3+3 0.560133 0.299294 0.444118 0.435095
O21   O     O_2   0.379340 0.302240 0.465940 -0.368924
O22   O     O_3   0.549079 0.268817 0.351585 -0.565075
C13   C     C_3   0.061375 0.258997 0.729390 0.397148
H26   H     H_    0.012893 0.317925 0.717883 0.063642
H27   H     H_    0.960961 0.210012 0.723615 0.050590
C14   C     C_3   0.130256 0.270972 0.806761 -0.878020
H28   H     H_    0.031837 0.287563 0.843102 0.203756
H29   H     H_    0.181002 0.213622 0.820713 0.255496
P8    P     P_3+3 0.575597 0.401348 0.721732 0.527113
C15   C     C_3   0.592053 0.246312 0.692319 0.529299
H30   H     H_    0.721756 0.263224 0.683654 -0.053982
O23   O     O_2   0.440245 0.453150 0.754056 -0.338360
O24   O     O_3   0.529649 0.303004 0.744061 -0.520836
H31   H     H_    0.518556 0.242789 0.640712 0.145752
H32   H     H_    0.630103 0.116741 0.676830 0.222500
C16   C     C_3   0.582132 0.162154 0.717606 -0.970878
H33   H     H_    0.453144 0.142987 0.725774 0.286952
H34   H     H_    0.656182 0.163710 0.768889 0.250167
N1    N     N_R   0.206480 0.520455 0.951493 -0.061890
N2    N     N_R   0.259759 0.522099 0.020059 -0.057276
C17   C     C_2   0.307360 0.512717 0.294263 -0.297328
C18   C     C_3   0.444773 0.508179 0.243807 0.100448
C19   C     C_2   0.381558 0.515183 0.167481 -0.115764
C20   C     C_2   0.220805 0.497135 0.146847 0.024065
C21   C     C_2   0.106977 0.475788 0.203431 -0.177786
C22   C     C_1   0.162184 0.478193 0.271674 0.310652
N3    N     N_R   0.003258 0.470206 0.047490 -0.077743
N4    N     N_R   0.950129 0.468334 0.978891 -0.076783
C23   C     C_R   0.050269 0.493340 0.929081 0.165692
C24   C     C_R   0.159634 0.496922 0.069824 0.177313
C25   C     C_R   0.086969 0.523391 0.800506 -0.229095
C26   C     C_R   0.031160 0.516597 0.727474 0.265223
C27   C     C_R   0.780478 0.445353 0.755247 0.273995
C28   C     C_R   0.834602 0.451683 0.827845 -0.297945
C29   C     C_R   0.990646 0.489315 0.851589 0.029292
C30   C     C_R   0.881850 0.474614 0.705563 -0.422953
H35   H     H_    0.469302 0.528955 0.128678 0.143889
H36   H     H_    0.979808 0.457035 0.188186 0.151787
H37   H     H_    0.755223 0.427038 0.865293 0.158003
H38   H     H_    0.327965 0.543884 0.348529 0.160036
C31   C     C_R   0.380185 0.732323 0.470006 -0.492912
C32   C     C_R   0.528415 0.758776 0.507091 0.290370
C33   C     C_R   0.582989 0.841918 0.513925 -0.253380
C34   C     C_R   0.486883 0.899165 0.483893 0.163421
C35   C     C_R   0.333622 0.871402 0.449517 -0.332722
C36   C     C_R   0.279769 0.788344 0.443590 0.230208
C37   C     C_R   0.618859 0.147154 0.491489 -0.246218
C38   C     C_R   0.668467 0.230431 0.496583 0.280510
C39   C     C_R   0.718004 0.092293 0.523355 0.160611
N5    N     N_2   0.535286 0.984649 0.488801 -0.071669
N6    N     N_2   0.672774 0.006371 0.519414 -0.072127
C40   C     C_R   0.813690 0.260305 0.534528 -0.503066
H39   H     H_    0.505746 0.125504 0.461164 0.160385
H40   H     H_    0.255463 0.914592 0.428503 0.153799
C41   C     C_R   0.918350 0.207121 0.562510 0.208370
C42   C     C_R   0.869976 0.123205 0.557906 -0.315205
H41   H     H_    0.697792 0.861572 0.543664 0.163465
H42   H     H_    0.951187 0.081944 0.579831 0.156248
H43   H     H_    0.338021 0.668403 0.465865 0.165748
H44   H     H_    0.851259 0.324690 0.537253 0.163319
H45   H     H_    0.102121 0.825885 0.657448 0.260930
H46   H     H_    0.861874 0.180717 0.325716 0.274987
F1    F     F_    0.625454 0.584941 0.681445 -0.673869
F2    F     F_    0.220818 0.758573 0.155948 -0.650417
H47   H     H_    0.228500 0.321100 0.814379 0.285003
F3    F     F_    0.183468 0.674796 0.272473 -0.694933
H48   H     H_    0.203548 0.556001 0.817361 0.171433
H49   H     H_    0.839751 0.469117 0.649661 0.178806

loop_
_geom_bond_atom_site_label_1
_geom_bond_atom_site_label_2
_geom_bond_distance
_ccdc_geom_bond_type
P7    O22   1.749058 S    
C17   C18   1.511092 S    
N3    N4    1.337427 A    
C5    H10   1.106957 S    
O2    Ba2   2.767589 S    
C31   C36   1.393294 A    
Ba1   O13   2.766945 S    
C2    H4    1.109438 S    
C15   O24   1.404495 S    
C25   H48   1.082295 S    
C21   H36   1.084815 S    
C10   H19   1.107127 S    
H32   C16   1.109887 S    
C9    H17   1.108154 S    
N1    N2    1.337601 A    
C32   C33   1.405235 A    
C28   H37   1.082473 S    
C8    H15   1.103040 S    
P3    O11   1.750425 S    
C14   H47   1.110724 S    
C2    C3    1.521419 S    
C4    H8    1.109413 S    
O11   C2    1.404401 S    
P3    C36   1.839091 S    
C7    H13   1.106921 S    
N5    N6    1.252479 D    
P1    O1    1.507296 D    
C13   H27   1.110620 S    
C34   C35   1.409407 A    
C28   C29   1.415721 A    
C12   H24   1.108396 S    
O19   C13   1.404572 S    
C37   H39   1.082446 S    
C5    H45   1.110867 S    
O12   Ba2   2.805673 S    
P4    Ba2   3.367851 S    
P5    O18   1.546044 D    
C35   C36   1.403264 A    
C39   N6    1.435134 S    
P2    O10   1.752106 S    
C31   C32   1.390402 A    
C6    H12   1.107051 S    
C1    C10   1.520459 S    
O6    C10   1.404267 S    
C1    H2    1.110699 S    
C7    H14   1.110860 S    
P2    Ba1   3.382122 S    
P5    O17   1.753704 S    
O5    C6    1.397274 S    
O13   Ba2   2.905949 S    
C11   H21   1.109691 S    
C39   C42   1.413840 A    
C3    H5    1.111143 S    
C19   H35   1.085688 S    
N4    C23   1.362886 A    
O7    Ba1   2.824268 S    
H1    C10   1.109412 S    
O14   P8    1.751583 S    
C25   C26   1.415351 A    
C9    H18   1.110808 S    
Ba1   Ba2   4.501089 S    
C11   H22   1.110912 S    
O17   Ba2   2.724664 S    
O16   P7    1.750881 S    
P1    O5    1.750951 S    
O4    P6    1.547454 D    
C15   H30   1.109787 S    
C31   H43   1.081903 S    
C14   H29   1.110616 S    
C15   C16   1.519963 S    
C21   C22   1.334951 D    
P2    C32   1.838581 S    
C33   H41   1.082382 S    
C26   C30   1.388780 A    
C35   H40   1.082940 S    
P1    O2    1.546643 S    
C40   C41   1.393248 A    
O2    Ba1   2.905044 S    
P4    O12   1.507584 D    
C30   H49   1.081746 S    
C12   H23   1.110767 S    
C11   O22   1.401439 S    
C1    H3    1.110678 S    
C6    H11   1.102012 S    
C4    C5    1.521182 S    
P8    C27   1.840322 S    
C6    C7    1.521541 S    
O10   C8    1.397134 S    
C4    H7    1.102572 S    
P4    O13   1.546836 S    
C41   C42   1.407724 A    
C38   C40   1.389422 A    
N2    C24   1.363158 A    
Ba1   O16   2.757712 S    
P2    O7    1.495811 D    
P1    C22   1.842828 S    
C16   H34   1.110617 S    
P3    O8    1.751398 S    
P4    C26   1.858851 S    
C42   H42   1.082708 S    
C34   N5    1.432174 S    
P5    C41   1.845421 S    
C13   C14   1.520203 S    
O8    Ba1   2.723869 S    
C37   C38   1.399270 A    
C2    F3    1.384904 S    
C11   C12   1.521390 S    
P7    C38   1.832802 S    
C12   H25   1.110666 S    
O3    P6    1.750384 S    
C4    O15   1.396739 S    
C15   H31   1.110178 S    
C14   H28   1.110678 S    
Ba2   O20   2.757110 S    
C20   C24   1.509010 S    
N3    C24   1.360352 A    
C27   C28   1.404419 A    
O1    Ba1   2.805107 S    
C3    H6    1.110724 S    
P2    O20   1.550000 S    
C8    C9    1.521704 S    
C33   C34   1.416548 A    
P6    C18   1.867220 S    
N1    C23   1.360971 A    
C20   C21   1.511789 S    
C17   H38   1.086299 S    
P4    O15   1.750620 S    
O16   Ba2   2.896607 S    
Ba1   O20   2.897526 S    
O14   Ba2   2.751214 S    
P1    Ba1   3.367167 S    
C8    F1    1.376873 S    
P7    O21   1.562346 D    
C1    H20   1.109783 S    
C13   H26   1.112876 S    
Ba2   O21   2.824415 S    
P8    O23   1.546690 D    
C25   C29   1.421878 A    
C3    F2    1.383213 S    
C9    H16   1.110705 S    
P5    O19   1.748121 S    
C27   C30   1.393372 A    
C18   C19   1.522134 S    
C7    H46   1.110610 S    
C16   H33   1.110586 S    
P3    O9    1.545598 D    
C5    H9    1.110655 S    
C40   H44   1.082103 S    
O6    P6    1.754159 S    
C19   C20   1.361317 D    
C17   C22   1.316431 D    
P8    O24   1.748616 S    
O3    Ba1   2.751821 S    
C23   C29   1.506655 S    
C37   C39   1.418049 A    
