data_mof_unit_49848.cif
_audit_creation_date              2012-12-10T17:15:49-0500
_audit_creation_method            fapswitch 2.2
_symmetry_space_group_name_H-M    P1
_symmetry_Int_Tables_number       1
_space_group_crystal_system       triclinic
_cell_length_a                    10.180702
_cell_length_b                    10.72722
_cell_length_c                    10.508094
_cell_angle_alpha                 90.928201
_cell_angle_beta                  95.320325
_cell_angle_gamma                 79.996166
_cell_volume                      1125.27884416

loop_
_atom_site_label
_atom_site_type_symbol
_atom_type_description
_atom_site_fract_x
_atom_site_fract_y
_atom_site_fract_z
_atom_type_partial_charge
C1    C     C_R   0.444372 0.504298 0.265241 0.847706
C2    C     C_R   0.618171 0.039905 0.463385 0.100132
C3    C     C_R   0.514228 0.122896 0.520908 -0.125896
C4    C     C_R   0.405610 0.075178 0.565765 -0.030357
C5    C     C_R   0.396113 0.950663 0.543597 -0.273002
C6    C     C_R   0.490802 0.873202 0.477400 -0.121298
C7    C     C_2   0.414231 0.493354 0.127903 -0.259172
C8    C     C_2   0.488845 0.398607 0.064455 -0.000534
C9    C     C_2   0.584575 0.464004 0.872401 -0.223596
C10   C     C_2   0.495117 0.407733 0.927434 -0.094778
C11   C     C_2   0.074976 0.480338 0.499278 -0.198346
C12   C     C_R   0.504904 0.258973 0.510485 0.961387
C13   C     C_2   0.930998 0.492422 0.527026 0.042084
C14   C     C_R   0.555716 0.488745 0.735327 0.853823
C15   C     C_R   0.495936 0.739724 0.488559 0.890403
C16   C     C_R   0.745607 0.069401 0.444454 -0.165696
C17   C     C_R   0.832590 0.995892 0.365146 -0.092987
C18   C     C_R   0.792365 0.888931 0.303779 -0.013339
C19   C     C_R   0.674888 0.850866 0.336562 -0.104298
C20   C     C_R   0.593970 0.920664 0.424505 0.061845
H1    H     H_    0.115206 0.400726 0.441207 0.189471
H2    H     H_    0.875182 0.411874 0.363821 0.231340
H3    H     H_    0.784471 0.143560 0.498355 0.186173
H4    H     H_    0.644858 0.767660 0.291011 0.176894
H5    H     H_    0.317498 0.912387 0.584593 0.199258
H6    H     H_    0.412411 0.377536 0.870168 0.232594
N1    N     N_2   0.157290 0.551390 0.551110 -0.167813
N2    N     N_2   0.842740 0.448550 0.448960 -0.192493
O1    O     O_R   0.568950 0.489660 0.307530 -0.568115
O2    O     O_R   0.348880 0.522640 0.340350 -0.612584
O3    O     O_R   0.610060 0.300270 0.483590 -0.622393
O4    O     O_R   0.389990 0.333260 0.516410 -0.590931
O5    O     O_R   0.651120 0.477360 0.659650 -0.616803
O6    O     O_R   0.431050 0.510340 0.692470 -0.545051
O7    O     O_R   0.610010 0.666740 0.483590 -0.556570
O8    O     O_R   0.389940 0.699730 0.516410 -0.608732
Zn1   Zn    Zn3+2 0.646940 0.477980 0.478090 1.032327
Zn2   Zn    Zn3+2 0.353060 0.522020 0.521910 1.043325
C21   C     C_2   0.303517 0.147176 0.643438 0.452161
H7    H     H_    0.202629 0.125819 0.635725 0.073161
O9    O     O_2   0.332671 0.224834 0.722113 -0.593569
C22   C     C_2   0.315126 0.597669 0.064557 0.440974
H8    H     H_    0.278483 0.680971 0.119552 0.071880
O10   O     O_2   0.270440 0.591002 0.953253 -0.515998
C23   C     C_2   0.896183 0.543554 0.653015 0.506290
H9    H     H_    0.949729 0.498565 0.738956 0.025860
O11   O     O_2   0.816325 0.641493 0.661931 -0.533372
C24   C     C_2   0.109070 0.675487 0.595716 1.065980
O12   O     O_2   0.171339 0.718823 0.685858 -0.588518
O13   O     O_R   0.997018 0.750691 0.532076 -0.774999
H10   H     H_    0.974120 0.836705 0.573650 0.341610
C25   C     C_2   0.965809 0.031326 0.352840 0.861878
O14   O     O_2   0.978255 0.142739 0.357716 -0.646749
O15   O     O_R   0.078172 0.937721 0.340820 -0.810963
H11   H     H_    0.162863 0.974152 0.334858 0.346525
C26   C     C_2   0.870114 0.816635 0.205552 0.479176
H12   H     H_    0.944212 0.857139 0.160018 0.098107
O16   O     O_2   0.850994 0.711037 0.172763 -0.536769
C27   C     C_2   0.563190 0.279870 0.126529 0.994071
O17   O     O_2   0.524738 0.239042 0.221742 -0.661154
O18   O     O_R   0.673139 0.210991 0.071191 -0.763423
H13   H     H_    0.713898 0.130967 0.120425 0.333917
C28   C     C_2   0.702838 0.506238 0.942437 0.476015
H14   H     H_    0.762059 0.561107 0.892756 0.096916
O19   O     O_2   0.735995 0.480503 0.054856 -0.502982

loop_
_geom_bond_atom_site_label_1
_geom_bond_atom_site_label_2
_ccdc_geom_bond_type
N1    C24   S    
C14   O6    A    
C9    C14   S    
C28   O19   D    
C13   N2    D    
C11   N1    D    
C8    C27   S    
C6    C20   A    
C9    C10   D    
C19   C20   A    
C4    C21   S    
C18   C26   S    
C10   H6    S    
C14   O5    A    
C24   O13   S    
C19   H4    S    
C27   O17   D    
C21   O9    D    
H2    N2    S    
C23   H9    S    
C12   O4    A    
O8    Zn2   S    
C13   C23   S    
C11   C13   S    
O18   H13   S    
C22   O10   D    
N2    Zn1   S    
C5    H5    S    
C4    C5    A    
C17   C25   S    
C1    O1    A    
C1    O2    A    
O7    Zn1   S    
C26   O16   D    
C17   C18   A    
C16   H3    S    
C2    C3    A    
O4    Zn2   S    
C23   O11   D    
C12   O3    A    
C5    C6    A    
C27   O18   S    
C22   H8    S    
N1    Zn2   S    
C2    C20   A    
C28   H14   S    
C15   O7    A    
O3    Zn1   S    
C15   O8    A    
C7    C8    D    
C2    C16   A    
C25   O14   D    
O2    Zn2   S    
C8    C10   S    
C18   C19   A    
C7    C22   S    
O1    Zn1   S    
C21   H7    S    
C26   H12   S    
O15   H11   S    
C24   O12   D    
C3    C12   S    
O13   H10   S    
C6    C15   S    
C1    C7    S    
C9    C28   S    
C11   H1    S    
O5    Zn1   S    
C3    C4    A    
C25   O15   S    
C16   C17   A    
O6    Zn2   S    
