data_mof_unit_37021.cif
_audit_creation_date              2012-12-10T17:24:47-0500
_audit_creation_method            fapswitch 2.2
_symmetry_space_group_name_H-M    P1
_symmetry_Int_Tables_number       1
_space_group_crystal_system       triclinic
_cell_length_a                    23.514084
_cell_length_b                    10.861419
_cell_length_c                    9.584916
_cell_angle_alpha                 89.263803
_cell_angle_beta                  89.641478
_cell_angle_gamma                 93.256951
_cell_volume                      2443.73668572

loop_
_atom_site_label
_atom_site_type_symbol
_atom_type_description
_atom_site_fract_x
_atom_site_fract_y
_atom_site_fract_z
_atom_type_partial_charge
Br1   Br    Br    0.408295 0.312865 0.844896 -0.508092
Br2   Br    Br    0.948663 0.893759 0.545161 -0.420270
C1    C     C_R   0.503219 0.262484 0.501826 0.831521
C2    C     C_R   0.122957 0.614534 0.514756 0.595388
C3    C     C_R   0.238900 0.497166 0.376451 -0.185260
C4    C     C_R   0.390960 0.499846 0.500421 0.855017
C5    C     C_R   0.298079 0.496551 0.375551 -0.205199
C6    C     C_R   0.328328 0.501371 0.501363 -0.099077
C7    C     C_R   0.298300 0.507668 0.628139 -0.289323
C8    C     C_R   0.238529 0.511662 0.629588 0.546500
C9    C     C_R   0.209111 0.503876 0.502649 0.280776
C10   C     C_R   0.760577 0.478496 0.374701 -0.107943
C11   C     C_R   0.701239 0.476474 0.375554 -0.247078
C12   C     C_R   0.964579 0.285172 0.469511 -0.120790
C13   C     C_R   0.671555 0.500807 0.498960 -0.048813
C14   C     C_R   0.702224 0.526389 0.621614 -0.193844
C15   C     C_R   0.761549 0.528447 0.620464 -0.083956
C16   C     C_R   0.495675 0.736822 0.500045 0.775726
C17   C     C_R   0.790913 0.504595 0.497068 0.342587
C18   C     C_R   0.512436 0.110484 0.768609 -0.133162
C19   C     C_R   0.495650 0.046606 0.890488 -0.130126
C20   C     C_R   0.467647 0.931035 0.882275 -0.133751
C21   C     C_R   0.461458 0.874524 0.753260 -0.141946
C22   C     C_R   0.483731 0.933306 0.629999 0.078125
C23   C     C_R   0.023755 0.284501 0.470423 -0.134879
C24   C     C_R   0.500925 0.059464 0.635413 0.101057
C25   C     C_R   0.505903 0.127816 0.507465 -0.120432
C26   C     C_R   0.506400 0.065108 0.380626 -0.190763
C27   C     C_R   0.501538 0.937776 0.378769 -0.185480
C28   C     C_R   0.608988 0.500276 0.499628 0.774511
C29   C     C_R   0.490871 0.870490 0.502471 -0.117352
C30   C     C_R   0.576749 0.663286 0.140794 -0.349675
C31   C     C_R   0.616139 0.741324 0.067368 0.398683
C32   C     C_R   0.615134 0.743202 0.922830 0.407908
C33   C     C_R   0.576940 0.663367 0.852610 -0.328258
C34   C     C_R   0.056986 0.394898 0.485048 -0.023459
C35   C     C_R   0.537847 0.580341 0.923509 0.100558
C36   C     C_R   0.537803 0.580296 0.072981 0.143440
C37   C     C_R   0.463929 0.424220 0.076728 -0.091997
C38   C     C_R   0.463541 0.424098 0.929305 0.316833
C39   C     C_R   0.882646 0.616503 0.509829 0.571001
C40   C     C_R   0.877884 0.397641 0.482949 0.544940
C41   C     C_R   0.937321 0.396250 0.483101 -0.012101
C42   C     C_R   0.970037 0.508300 0.497773 -0.055122
C43   C     C_R   0.942905 0.620908 0.511406 -0.088097
C44   C     C_3   0.690001 0.763443 0.221576 -0.205825
C45   C     C_R   0.030125 0.507078 0.498824 -0.014614
C46   C     C_3   0.630416 0.919213 0.794597 -0.224787
C47   C     C_3   0.228455 0.607323 0.841169 -0.259175
C48   C     C_R   0.063356 0.617766 0.513695 -0.075893
C49   C     C_R   0.036580 0.728941 0.526949 -0.181417
C50   C     C_R   0.977280 0.732092 0.525870 0.299816
C51   C     C_R   0.116677 0.396110 0.486493 0.578377
Cu1   Cu    Cu3+1 0.500000 0.499990 0.640660 0.963289
Cu2   Cu    Cu3+1 0.500000 0.500010 0.359340 0.942061
H1    H     H_    0.940260 0.198203 0.458147 0.220917
H2    H     H_    0.506144 0.892094 0.279819 0.168218
H3    H     H_    0.434448 0.362462 0.134585 0.167637
H4    H     H_    0.043324 0.197167 0.459772 0.205727
H5    H     H_    0.578142 0.672072 0.250526 0.231515
H6    H     H_    0.580160 0.670667 0.742486 0.232676
H7    H     H_    0.061812 0.814794 0.538283 0.216058
H8    H     H_    0.215995 0.492584 0.278810 0.164021
H9    H     H_    0.320055 0.491487 0.276326 0.175621
H10   H     H_    0.321234 0.508373 0.725593 0.188991
H11   H     H_    0.783062 0.460163 0.278926 0.148494
H12   H     H_    0.678653 0.456196 0.279677 0.165455
H13   H     H_    0.708710 0.684705 0.167762 0.150654
H14   H     H_    0.668495 0.732234 0.320312 0.144784
H15   H     H_    0.725826 0.829018 0.249894 0.216547
H16   H     H_    0.611746 0.974155 0.878844 0.170901
H17   H     H_    0.597772 0.892587 0.715532 0.141683
H18   H     H_    0.663760 0.979264 0.741230 0.199648
H19   H     H_    0.239818 0.694951 0.783087 0.174832
H20   H     H_    0.265427 0.576856 0.901462 0.156374
H21   H     H_    0.194671 0.627047 0.917654 0.201858
H22   H     H_    0.680476 0.545660 0.718143 0.170943
H23   H     H_    0.784786 0.548361 0.715482 0.150670
H24   H     H_    0.511495 0.114448 0.281981 0.163954
H25   H     H_    0.536341 0.197146 0.781988 0.166575
H26   H     H_    0.503600 0.087856 0.991251 0.139757
H27   H     H_    0.452188 0.883536 0.976244 0.139557
H28   H     H_    0.438356 0.785680 0.751567 0.163708
N1    N     N_R   0.851967 0.506329 0.496303 -0.479263
N2    N     N_R   0.148204 0.504836 0.501355 -0.450255
N3    N     N_R   0.500540 0.501210 0.147910 -0.194228
N4    N     N_R   0.500560 0.501290 0.852040 -0.201510
O1    O     O_R   0.500000 0.319640 0.618810 -0.553446
O2    O     O_R   0.582120 0.500020 0.618760 -0.599311
O3    O     O_R   0.582120 0.500050 0.381190 -0.596954
O4    O     O_2   0.854427 0.720466 0.520702 -0.467169
O5    O     O_3   0.652451 0.825735 0.134916 -0.554507
O6    O     O_3   0.655902 0.815063 0.849688 -0.545325
O7    O     O_3   0.207165 0.512702 0.752803 -0.563553
O8    O     O_2   0.846040 0.290986 0.470716 -0.510037
O9    O     O_2   0.143061 0.289640 0.473771 -0.509429
O10   O     O_2   0.155494 0.720035 0.528573 -0.532145
O11   O     O_R   0.500000 0.319660 0.381240 -0.582300
O12   O     O_R   0.417880 0.499950 0.618810 -0.545764
O13   O     O_R   0.417880 0.499980 0.381240 -0.586077
O14   O     O_R   0.500000 0.680340 0.618760 -0.612205
O15   O     O_R   0.500000 0.680360 0.381190 -0.594461

loop_
_geom_bond_atom_site_label_1
_geom_bond_atom_site_label_2
_ccdc_geom_bond_type
C12   H1    S    
Cu1   O14   S    
C32   O6    S    
C28   O3    A    
C5    C6    A    
Cu2   O15   S    
C24   C25   A    
C21   H28   S    
C36   N3    A    
C20   H27   S    
C38   N4    A    
C26   C27   A    
C33   C35   A    
C22   C24   A    
C3    C9    A    
Cu2   O3    S    
Cu1   N4    S    
C44   O5    S    
C8    O7    S    
C13   C14   A    
C3    H8    S    
C34   C45   A    
C32   C33   A    
C16   O15   A    
C26   H24   S    
C44   H14   S    
C34   C51   A    
Br1   C38   S    
C14   C15   A    
Cu2   O13   S    
C21   C22   A    
C47   H20   S    
C30   C36   A    
C47   O7    S    
C7    C8    A    
C42   C45   A    
Cu2   O11   S    
C19   C20   A    
C51   O9    S    
C49   H7    S    
C46   H17   S    
C28   O2    A    
C31   C32   A    
C45   C48   A    
C46   O6    S    
C18   H25   S    
C49   C50   A    
C40   N1    A    
Cu1   O2    S    
C31   O5    S    
C37   C38   A    
C3    C5    A    
C6    C7    A    
C4    C6    S    
C2    N2    A    
C43   C50   A    
C37   H3    S    
C10   H11   S    
C40   O8    S    
C2    C48   A    
C16   O14   A    
C4    O13   A    
C41   C42   A    
C44   H13   S    
C35   C36   A    
C48   C49   A    
C47   H21   S    
C33   H6    S    
C10   C11   A    
Br2   C50   S    
C39   O4    S    
C19   H26   S    
C11   C13   A    
Cu1   O12   S    
C40   C41   A    
C30   H5    S    
C46   H16   S    
C17   N1    S    
C42   C43   A    
C13   C28   S    
C11   H12   S    
Cu1   Cu2   S    
C1    O1    A    
C47   H19   S    
C46   H18   S    
C35   N4    A    
C27   H2    S    
C30   C31   A    
Cu2   N3    S    
C1    C25   S    
C22   C29   A    
C27   C29   A    
C4    O12   A    
Cu1   O1    S    
C39   N1    A    
C1    O11   A    
C18   C24   A    
C9    N2    S    
C10   C17   A    
C15   H23   S    
C15   C17   A    
C12   C23   A    
C7    H10   S    
C5    H9    S    
C44   H15   S    
C8    C9    A    
C23   C34   A    
C18   C19   A    
C25   C26   A    
C39   C43   A    
C20   C21   A    
C14   H22   S    
C51   N2    A    
C16   C29   S    
C23   H4    S    
C37   N3    A    
C2    O10   S    
C12   C41   A    
