data_mof_unit_37910.cif
_audit_creation_date              2013-03-05T15:50:50-0500
_audit_creation_method            fapswitch 2.2
_symmetry_space_group_name_H-M    P1
_symmetry_Int_Tables_number       1
_space_group_crystal_system       triclinic
_cell_length_a                    9.704715
_cell_length_b                    10.766233
_cell_length_c                    15.888709
_cell_angle_alpha                 88.220356
_cell_angle_beta                  71.585728
_cell_angle_gamma                 89.657607
_cell_volume                      1574.32922748

loop_
_atom_site_label
_atom_site_type_symbol
_atom_site_description
_atom_site_fract_x
_atom_site_fract_y
_atom_site_fract_z
_atom_type_partial_charge
O1    O     O_R   0.118810 0.319640 0.500010 -0.586996
O2    O     O_R   0.881240 0.319660 0.500000 -0.584622
C1    C     C_R   0.998779 0.262888 0.504079 0.765632
O3    O     O_R   0.055570 0.499980 0.629840 -0.598145
O4    O     O_R   0.818000 0.500010 0.629830 -0.572346
C2    C     C_R   0.915118 0.495685 0.671075 0.763352
Cu1   Cu    Cu3+1 0.140660 0.499990 0.500010 0.942917
Cu2   Cu    Cu3+1 0.859340 0.500010 0.499990 0.942467
O5    O     O_R   0.118760 0.680340 0.500000 -0.585390
O6    O     O_R   0.881190 0.680360 0.499990 -0.583458
O7    O     O_R   0.182000 0.499990 0.370170 -0.539830
O8    O     O_R   0.944430 0.500020 0.370160 -0.567216
C3    C     C_R   0.998693 0.736677 0.502802 0.763974
C4    C     C_R   0.083105 0.490539 0.329268 0.822543
C5    C     C_R   0.862326 0.461624 0.765672 -0.066194
C6    C     C_R   0.125536 0.464615 0.233733 -0.166155
C7    C     C_R   0.883298 0.321548 0.882166 -0.164752
C8    C     C_R   0.945172 0.381594 0.800618 -0.173345
C9    C     C_R   0.717958 0.486030 0.815295 -0.230063
C10   C     C_R   0.654404 0.428649 0.899611 0.104966
C11   C     C_R   0.741030 0.348677 0.933976 0.094650
C12   C     C_R   0.506322 0.444421 0.949621 -0.019543
C13   C     C_R   0.457818 0.405931 0.040659 0.034675
C14   C     C_R   0.545114 0.323663 0.073191 0.250579
C15   C     C_R   0.683539 0.293803 0.018540 -0.296371
C16   C     C_R   0.402531 0.486744 0.909988 -0.290385
C17   C     C_R   0.254193 0.484799 0.957864 0.253228
C18   C     C_R   0.210557 0.454184 0.049457 0.031975
C19   C     C_R   0.315204 0.436122 0.092459 0.017125
C20   C     C_R   0.065603 0.429005 0.099309 0.189290
C21   C     C_R   0.019715 0.445776 0.190624 0.211738
C22   C     C_R   0.271959 0.445458 0.185358 -0.260639
H1    H     H_    0.947690 0.254139 0.904616 0.168594
H2    H     H_    0.055599 0.360296 0.762638 0.165595
C23   C     C_R   0.075843 0.119733 0.644734 -0.265205
H3    H     H_    0.073198 0.219598 0.648693 0.159001
C24   C     C_R   0.117253 0.050117 0.709181 0.307741
C25   C     C_R   0.115747 0.919674 0.707454 0.236737
C26   C     C_R   0.069091 0.861041 0.644147 -0.305115
C27   C     C_R   0.033759 0.929677 0.577029 0.043005
C28   C     C_R   0.036955 0.060865 0.576942 0.036297
C29   C     C_R   0.999280 0.128442 0.509186 -0.059708
C30   C     C_R   0.969164 0.066818 0.441037 -0.189938
H4    H     H_    0.961248 0.892355 0.383311 0.175818
C31   C     C_R   0.972631 0.938939 0.439767 -0.205452
C32   C     C_R   0.997988 0.870286 0.508578 -0.076712
C33   C     C_R   0.689735 0.690304 0.406719 -0.212294
H5    H     H_    0.804794 0.679337 0.382063 0.218284
C34   C     C_R   0.633701 0.805156 0.390043 0.225330
C35   C     C_R   0.483613 0.815941 0.409482 0.129197
C36   C     C_R   0.403890 0.705336 0.417821 0.210499
C37   C     C_R   0.447464 0.598181 0.458326 0.119763
C38   C     C_R   0.596918 0.595075 0.456113 0.112166
N1    N     N_R   0.648320 0.501210 0.499140 -0.173297
C39   C     C_R   0.553434 0.407349 0.539584 -0.057739
C40   C     C_R   0.407305 0.406212 0.537869 -0.075094
N2    N     N_R   0.352470 0.501290 0.499110 -0.176370
H6    H     H_    0.744607 0.225112 0.042363 0.160928
N3    N     N_2   0.981106 0.350020 0.065488 -0.427935
H7    H     H_    0.952484 0.390159 0.014359 0.293117
C41   C     C_3   0.040277 0.225350 0.049839 -0.732128
H8    H     H_    0.961168 0.161340 0.036942 0.209705
H9    H     H_    0.065353 0.187495 0.109257 0.234445
H10   H     H_    0.140718 0.226119 0.991661 0.232186
H11   H     H_    0.948252 0.117862 0.386715 0.132806
N4    N     N_2   0.148829 0.111064 0.779495 -0.442819
H12   H     H_    0.135179 0.057163 0.836364 0.274142
C42   C     C_3   0.281527 0.183342 0.754481 -0.734876
H13   H     H_    0.295438 0.225121 0.814365 0.232148
H14   H     H_    0.276721 0.260058 0.707804 0.217553
H15   H     H_    0.376778 0.123908 0.723481 0.232949
N5    N     N_2   0.162027 0.845934 0.769095 -0.452094
H16   H     H_    0.101224 0.765965 0.788674 0.252537
C43   C     C_3   0.315726 0.818474 0.739135 -0.685230
H17   H     H_    0.344663 0.764451 0.791764 0.224973
H18   H     H_    0.380698 0.905464 0.724719 0.241421
H19   H     H_    0.343707 0.762433 0.678402 0.226601
H20   H     H_    0.064204 0.760725 0.647531 0.171312
H21   H     H_    0.590591 0.331038 0.572613 0.141076
N6    N     N_2   0.728462 0.906894 0.352499 -0.420953
H22   H     H_    0.683949 0.994109 0.365630 0.288357
C44   C     C_3   0.817807 0.893371 0.261023 -0.780068
H23   H     H_    0.887187 0.977308 0.238097 0.226349
H24   H     H_    0.749075 0.882332 0.217562 0.229985
H25   H     H_    0.890083 0.811457 0.254651 0.230257
H26   H     H_    0.352196 0.442637 0.219454 0.205817
N7    N     N_2   0.414959 0.933820 0.411714 -0.427794
H27   H     H_    0.312322 0.936200 0.457118 0.269217
C45   C     C_3   0.420670 0.993625 0.327896 -0.717970
H28   H     H_    0.337091 0.954048 0.302223 0.218578
H29   H     H_    0.528761 0.984425 0.277507 0.241599
H30   H     H_    0.397862 0.094142 0.338394 0.246289
N8    N     N_2   0.334366 0.691477 0.352363 -0.343973
H31   H     H_    0.260229 0.760271 0.352187 0.248068
C46   C     C_3   0.433648 0.673819 0.263729 -0.715480
H32   H     H_    0.371358 0.666811 0.216392 0.220762
H33   H     H_    0.498426 0.588041 0.262406 0.230523
H34   H     H_    0.508642 0.754297 0.241127 0.221144
H35   H     H_    0.338210 0.328035 0.567368 0.135667
N9    N     N_2   0.867674 0.441167 0.237557 -0.399836
H36   H     H_    0.804151 0.480096 0.202499 0.244465
C47   C     C_3   0.812973 0.321161 0.277213 -0.606424
H37   H     H_    0.698482 0.330712 0.320023 0.216678
H38   H     H_    0.877590 0.285283 0.318928 0.226460
H39   H     H_    0.816732 0.253576 0.225180 0.219054
N10   N     N_2   0.151140 0.518558 0.914050 -0.436753
H40   H     H_    0.190111 0.516120 0.845721 0.255162
C48   C     C_3   0.068120 0.629833 0.944946 -0.724155
H41   H     H_    0.984540 0.641866 0.911190 0.230513
H42   H     H_    0.141015 0.712208 0.930734 0.241784
H43   H     H_    0.009916 0.623671 0.017160 0.225335
H44   H     H_    0.657602 0.550101 0.786850 0.143741
N11   N     N_2   0.486398 0.253839 0.154238 -0.437407
H45   H     H_    0.560482 0.226810 0.185606 0.247596
C49   C     C_3   0.385986 0.155755 0.151824 -0.696524
H46   H     H_    0.296562 0.151050 0.215863 0.231632
H47   H     H_    0.443384 0.065205 0.140826 0.216796
H48   H     H_    0.336646 0.172381 0.098153 0.236370
H49   H     H_    0.432552 0.510865 0.840077 0.141560

loop_
_geom_bond_atom_site_label_1
_geom_bond_atom_site_label_2
_geom_bond_distance
_ccdc_geom_bond_type
C5    C8    1.393250 A    
N4    C42   1.446149 S    
N7    H27   1.029610 S    
C1    C29   1.447301 S    
N8    H31   1.030054 S    
C28   C29   1.420840 A    
C46   H32   1.108197 S    
C39   C40   1.427117 A    
C46   H34   1.110171 S    
Cu1   Cu2   2.730229 S    
C33   C34   1.399118 A    
C9    H44   1.079923 S    
C40   N2    1.368074 A    
C6    C21   1.421417 A    
Cu1   O7    1.973320 S    
C16   C17   1.399648 A    
C43   H18   1.108904 S    
C13   C19   1.410729 A    
C18   C19   1.401347 A    
C23   C24   1.407301 A    
C19   C22   1.407950 A    
C20   C21   1.393944 A    
O7    C4    1.324052 A    
N10   H40   1.031808 S    
C49   H46   1.109262 S    
C48   H41   1.109784 S    
C47   H39   1.110082 S    
C41   H9    1.112048 S    
O5    C3    1.299249 A    
C2    C5    1.462044 S    
C5    C9    1.401504 A    
C23   H3    1.078632 S    
C42   H13   1.110998 S    
C49   H47   1.110781 S    
C43   H19   1.112472 S    
C13   C14   1.417275 A    
C45   H29   1.106474 S    
C29   C30   1.394613 A    
C30   H11   1.080741 S    
C33   C38   1.411706 A    
C42   H14   1.103504 S    
N4    H12   1.031255 S    
N3    H7    1.021353 S    
N8    C46   1.450844 S    
C24   N4    1.427175 S    
C41   H8    1.104902 S    
C7    H1    1.078780 S    
O3    Cu1   1.964938 S    
C35   C36   1.403782 A    
C8    H2    1.078096 S    
C25   C26   1.394942 A    
C25   N5    1.420066 S    
N3    C41   1.454114 S    
C43   H17   1.110222 S    
C36   C37   1.429659 A    
C26   H20   1.080279 S    
C16   H49   1.079222 S    
N5    C43   1.446985 S    
Cu2   N1    2.052156 S    
C26   C27   1.407087 A    
N5    H16   1.029409 S    
C17   N10   1.427140 S    
C31   C32   1.385585 A    
C7    C11   1.400454 A    
O1    C1    1.301109 A    
C41   H10   1.111322 S    
C27   C32   1.413013 A    
C24   C25   1.405750 A    
C39   H21   1.081514 S    
C33   H5    1.067326 S    
Cu2   O8    1.964938 S    
C49   H48   1.111752 S    
C22   H26   1.079783 S    
C20   N3    1.414022 S    
N9    C47   1.447208 S    
C7    C8    1.385059 A    
C21   N9    1.427980 S    
C14   C15   1.391841 A    
C45   H30   1.110387 S    
C47   H38   1.107032 S    
C30   C31   1.377603 A    
C35   N7    1.426032 S    
C36   N8    1.418930 S    
N6    C44   1.449462 S    
C27   C28   1.412869 A    
C10   C12   1.417568 A    
C44   H23   1.111105 S    
C44   H24   1.110378 S    
N7    C45   1.446285 S    
C4    C6    1.477042 S    
O3    C2    1.312993 A    
C15   H6    1.077282 S    
C37   C38   1.439897 A    
N11   H45   1.031932 S    
Cu1   O5    1.952025 S    
C11   C15   1.395225 A    
N1    C39   1.370769 A    
O1    Cu1   1.954494 S    
C12   C13   1.421448 A    
O2    Cu2   1.952025 S    
H4    C31   1.076836 S    
O8    C4    1.301463 A    
N6    H22   1.030634 S    
O6    C3    1.308481 A    
O4    Cu2   1.973320 S    
C46   H33   1.111045 S    
C38   N1    1.379851 A    
C6    C22   1.403163 A    
C44   H25   1.110529 S    
C48   H43   1.107356 S    
C9    C10   1.409934 A    
C18   C20   1.402523 A    
O2    C1    1.309530 A    
O4    C2    1.306802 A    
N10   C48   1.449292 S    
C42   H15   1.109684 S    
N9    H36   1.032153 S    
C48   H42   1.110015 S    
C47   H37   1.110536 S    
C23   C28   1.416487 A    
C37   N2    1.396446 A    
C14   N11   1.424592 S    
C10   C11   1.413624 A    
Cu2   O6    1.954494 S    
C34   C35   1.395153 A    
C12   C16   1.412861 A    
C17   C18   1.410089 A    
C34   N6    1.423438 S    
C3    C32   1.444075 S    
C40   H35   1.077690 S    
C45   H28   1.108976 S    
Cu1   N2    2.051212 S    
N11   C49   1.450730 S    
