data_mof_unit_38197.cif
_audit_creation_date              2012-12-10T16:33:53-0500
_audit_creation_method            fapswitch 2.2
_symmetry_space_group_name_H-M    P1
_symmetry_Int_Tables_number       1
_space_group_crystal_system       triclinic
_cell_length_a                    28.274343
_cell_length_b                    18.647055
_cell_length_c                    17.012276
_cell_angle_alpha                 89.999957
_cell_angle_beta                  60.73827
_cell_angle_gamma                 89.999984
_cell_volume                      7824.90073706

loop_
_atom_site_label
_atom_site_type_symbol
_atom_type_description
_atom_site_fract_x
_atom_site_fract_y
_atom_site_fract_z
_atom_type_partial_charge
C1    C     C_R   0.700844 0.266278 0.676578 0.938111
C2    C     C_R   0.298972 0.733500 0.323472 0.938395
C3    C     C_R   0.299156 0.266278 0.323422 0.938112
C4    C     C_R   0.701028 0.733500 0.676527 0.938395
C5    C     C_R   0.200844 0.766278 0.676578 0.938111
C6    C     C_R   0.798972 0.233500 0.323472 0.938394
C7    C     C_R   0.799156 0.766278 0.323422 0.938112
C8    C     C_R   0.201028 0.233500 0.676527 0.938395
C9    C     C_R   0.058251 0.371827 0.469343 -0.239517
C10   C     C_R   0.941791 0.628111 0.530550 -0.255432
C11   C     C_R   0.941749 0.371827 0.530656 -0.239518
C12   C     C_R   0.058209 0.628112 0.469451 -0.255431
C13   C     C_R   0.558252 0.871827 0.469341 -0.239517
C14   C     C_R   0.441790 0.128111 0.530550 -0.255431
C15   C     C_R   0.441749 0.871827 0.530655 -0.239518
C16   C     C_R   0.558209 0.128112 0.469451 -0.255430
C17   C     C_R   0.714503 0.254018 0.959760 0.043800
C18   C     C_R   0.273142 0.725040 0.051723 0.054417
C19   C     C_R   0.285496 0.254019 0.040241 0.043796
C20   C     C_R   0.726858 0.725039 0.948276 0.054417
C21   C     C_R   0.214503 0.754018 0.959760 0.043803
C22   C     C_R   0.773142 0.225040 0.051723 0.054419
C23   C     C_R   0.785498 0.754017 0.040239 0.043806
C24   C     C_R   0.226857 0.225041 0.948277 0.054418
C25   C     C_R   0.702634 0.192643 0.014450 0.394581
C26   C     C_R   0.285871 0.785477 0.995165 0.450705
C27   C     C_R   0.297366 0.192645 0.985548 0.394578
C28   C     C_R   0.714129 0.785476 0.004834 0.450706
C29   C     C_R   0.202634 0.692643 0.014450 0.394583
C30   C     C_R   0.785871 0.285477 0.995165 0.450704
C31   C     C_R   0.797366 0.692642 0.985549 0.394589
C32   C     C_R   0.214126 0.285477 0.004838 0.450705
C33   C     C_R   0.730825 0.179699 0.061718 -0.236012
C34   C     C_R   0.256178 0.800049 0.950780 -0.222536
C35   C     C_R   0.269176 0.179701 0.938280 -0.236014
C36   C     C_R   0.743822 0.800048 0.049219 -0.222540
C37   C     C_R   0.230824 0.679699 0.061719 -0.236013
C38   C     C_R   0.756179 0.300049 0.950780 -0.222537
C39   C     C_R   0.769176 0.679698 0.938280 -0.236013
C40   C     C_R   0.243819 0.300049 0.049224 -0.222536
C41   C     C_R   0.640677 0.321073 0.950672 0.382296
C42   C     C_R   0.343440 0.653439 0.066883 0.427570
C43   C     C_R   0.359322 0.321075 0.049328 0.382298
C44   C     C_R   0.656560 0.653438 0.933117 0.427569
C45   C     C_R   0.140677 0.821072 0.950673 0.382298
C46   C     C_R   0.843440 0.153438 0.066883 0.427572
C47   C     C_R   0.859324 0.821071 0.049326 0.382295
C48   C     C_R   0.156559 0.153439 0.933118 0.427572
C49   C     C_R   0.616006 0.345710 0.899957 -0.176195
C50   C     C_R   0.376542 0.642547 0.107607 -0.192387
C51   C     C_R   0.383993 0.345711 0.100043 -0.176193
C52   C     C_R   0.623458 0.642547 0.892393 -0.192388
C53   C     C_R   0.116006 0.845710 0.899957 -0.176197
C54   C     C_R   0.876542 0.142547 0.107607 -0.192389
C55   C     C_R   0.883995 0.845710 0.100042 -0.176200
C56   C     C_R   0.123458 0.142547 0.892393 -0.192388
C57   C     C_R   0.633348 0.321256 0.813954 -0.377765
C58   C     C_R   0.364389 0.675410 0.187448 -0.361385
C59   C     C_R   0.366652 0.321256 0.186046 -0.377767
C60   C     C_R   0.635611 0.675410 0.812551 -0.361385
C61   C     C_R   0.133348 0.821256 0.813954 -0.377768
C62   C     C_R   0.864389 0.175410 0.187448 -0.361384
C63   C     C_R   0.866652 0.821256 0.186046 -0.377765
C64   C     C_R   0.135611 0.175410 0.812551 -0.361384
C65   C     C_R   0.676864 0.275352 0.773788 -0.151966
C66   C     C_R   0.320617 0.720599 0.227601 -0.148594
C67   C     C_R   0.323136 0.275352 0.226211 -0.151966
C68   C     C_R   0.679383 0.720598 0.772399 -0.148593
C69   C     C_R   0.176864 0.775352 0.773788 -0.151965
C70   C     C_R   0.820617 0.220599 0.227601 -0.148593
C71   C     C_R   0.823136 0.775352 0.226211 -0.151965
C72   C     C_R   0.179383 0.220599 0.772399 -0.148594
C73   C     C_R   0.700607 0.246529 0.824466 0.401059
C74   C     C_R   0.293508 0.743393 0.179542 0.406322
C75   C     C_R   0.299392 0.246529 0.175534 0.401060
C76   C     C_R   0.706492 0.743393 0.820458 0.406323
C77   C     C_R   0.200607 0.746529 0.824466 0.401058
C78   C     C_R   0.793508 0.243393 0.179542 0.406322
C79   C     C_R   0.799393 0.746528 0.175534 0.401057
C80   C     C_R   0.206491 0.243393 0.820458 0.406320
C81   C     C_R   0.683703 0.271999 0.911975 -0.050167
C82   C     C_R   0.304177 0.707904 0.099574 -0.055288
C83   C     C_R   0.316296 0.272000 0.088026 -0.050166
C84   C     C_R   0.695823 0.707903 0.900426 -0.055288
C85   C     C_R   0.183703 0.771999 0.911975 -0.050167
C86   C     C_R   0.804177 0.207903 0.099574 -0.055290
C87   C     C_R   0.816298 0.771997 0.088024 -0.050167
C88   C     C_R   0.195822 0.207904 0.900427 -0.055289
C89   C     C_R   0.697030 0.128409 0.515618 0.910084
C90   C     C_R   0.302953 0.871584 0.484426 0.913026
C91   C     C_R   0.302970 0.128409 0.484382 0.910084
C92   C     C_R   0.697047 0.871584 0.515574 0.913027
C93   C     C_R   0.197030 0.628409 0.515618 0.910084
C94   C     C_R   0.802953 0.371584 0.484426 0.913026
C95   C     C_R   0.802970 0.628409 0.484382 0.910084
C96   C     C_R   0.197047 0.371585 0.515574 0.913026
C97   C     C_R   0.077381 0.094895 0.930739 0.952876
C98   C     C_R   0.925296 0.900989 0.066543 0.909458
C99   C     C_R   0.922619 0.094895 0.069261 0.952876
C100  C     C_R   0.074704 0.900989 0.933457 0.909461
C101  C     C_R   0.577381 0.594895 0.930739 0.952876
C102  C     C_R   0.425296 0.400989 0.066543 0.909470
C103  C     C_R   0.422619 0.594895 0.069260 0.952876
C104  C     C_R   0.574704 0.400989 0.933457 0.909469
C105  C     C_R   0.552007 0.999964 0.490909 0.035842
C106  C     C_R   0.447993 0.999964 0.509090 0.035842
C107  C     C_R   0.052007 0.499964 0.490909 0.035842
C108  C     C_R   0.947993 0.499964 0.509091 0.035842
C109  C     C_R   0.526704 0.065556 0.492914 0.028856
C110  C     C_R   0.473285 0.934366 0.507113 0.026698
C111  C     C_R   0.473296 0.065556 0.507086 0.028855
C112  C     C_R   0.526716 0.934367 0.492884 0.026697
C113  C     C_R   0.026704 0.565556 0.492914 0.028855
C114  C     C_R   0.973285 0.434367 0.507114 0.026698
C115  C     C_R   0.973296 0.565556 0.507086 0.028855
C116  C     C_R   0.026715 0.434367 0.492885 0.026697
C117  C     C_R   0.629506 0.935017 0.481990 -0.005243
C118  C     C_R   0.370531 0.064943 0.517915 -0.002987
C119  C     C_R   0.370494 0.935017 0.518008 -0.005243
C120  C     C_R   0.629469 0.064943 0.482085 -0.002987
C121  C     C_R   0.129506 0.435017 0.481991 -0.005243
C122  C     C_R   0.870531 0.564943 0.517915 -0.002987
C123  C     C_R   0.870494 0.435017 0.518009 -0.005243
C124  C     C_R   0.129469 0.564943 0.482085 -0.002987
C125  C     C_R   0.673160 0.935902 0.501943 -0.094148
C126  C     C_R   0.326865 0.064080 0.497995 -0.095186
C127  C     C_R   0.326840 0.935902 0.498057 -0.094149
C128  C     C_R   0.673135 0.064080 0.502005 -0.095186
C129  C     C_R   0.173160 0.435902 0.501943 -0.094149
C130  C     C_R   0.826865 0.564080 0.497995 -0.095186
C131  C     C_R   0.826840 0.435902 0.498057 -0.094149
C132  C     C_R   0.173135 0.564080 0.502005 -0.095186
C133  C     C_R   0.692821 0.999992 0.514170 -0.281324
C134  C     C_R   0.307179 0.999992 0.485830 -0.281324
C135  C     C_R   0.192821 0.499992 0.514170 -0.281324
C136  C     C_R   0.807179 0.499992 0.485830 -0.281324
C137  C     C_R   0.603156 0.999972 0.486736 -0.014045
C138  C     C_R   0.396844 0.999972 0.513264 -0.014045
C139  C     C_R   0.103156 0.499972 0.486736 -0.014045
C140  C     C_R   0.896844 0.499972 0.513264 -0.014045
C141  C     C_R   0.111086 0.373761 0.455205 0.401203
C142  C     C_R   0.888979 0.626195 0.544632 0.400656
C143  C     C_R   0.888915 0.373761 0.544794 0.401203
C144  C     C_R   0.111020 0.626195 0.455368 0.400657
C145  C     C_R   0.611086 0.873761 0.455204 0.401204
C146  C     C_R   0.388979 0.126195 0.544632 0.400656
C147  C     C_R   0.388915 0.873761 0.544793 0.401203
C148  C     C_R   0.611020 0.126195 0.455369 0.400657
H1    H     H_    0.724684 0.999995 0.532221 0.206009
H2    H     H_    0.275316 0.999995 0.467779 0.206009
H3    H     H_    0.224684 0.499995 0.532221 0.206010
H4    H     H_    0.775316 0.499995 0.467779 0.206010
H5    H     H_    0.044574 0.323509 0.451265 0.188148
H6    H     H_    0.955456 0.676427 0.548657 0.182571
H7    H     H_    0.955426 0.323509 0.548734 0.188148
H8    H     H_    0.044543 0.676427 0.451344 0.182571
H9    H     H_    0.544575 0.823510 0.451262 0.188148
H10   H     H_    0.455456 0.176426 0.548657 0.182572
H11   H     H_    0.455427 0.823509 0.548732 0.188148
H12   H     H_    0.544543 0.176427 0.451345 0.182571
H13   H     H_    0.765917 0.347180 0.908379 0.191115
H14   H     H_    0.219576 0.633988 0.106371 0.188579
H15   H     H_    0.234080 0.347178 0.091627 0.191117
H16   H     H_    0.780424 0.633988 0.893629 0.188578
H17   H     H_    0.265916 0.847179 0.908378 0.191115
H18   H     H_    0.719577 0.133988 0.106370 0.188579
H19   H     H_    0.734084 0.847178 0.091621 0.191114
H20   H     H_    0.280425 0.133992 0.893626 0.188581
H21   H     H_    0.614966 0.342129 0.775672 0.215915
H22   H     H_    0.387391 0.662427 0.221231 0.219948
H23   H     H_    0.385034 0.342129 0.224328 0.215915
H24   H     H_    0.612609 0.662427 0.778769 0.219948
H25   H     H_    0.114966 0.842129 0.775672 0.215915
H26   H     H_    0.887392 0.162428 0.221230 0.219948
H27   H     H_    0.885034 0.842130 0.224328 0.215915
H28   H     H_    0.112609 0.162427 0.778769 0.219948
O1    O     O_R   0.746490 0.236330 0.638080 -0.528664
O2    O     O_R   0.253510 0.763670 0.361920 -0.530672
O3    O     O_R   0.253510 0.236330 0.361920 -0.528664
O4    O     O_R   0.746490 0.763670 0.638080 -0.530672
O5    O     O_R   0.246490 0.736330 0.638080 -0.528664
O6    O     O_R   0.753510 0.263670 0.361920 -0.530672
O7    O     O_R   0.753510 0.736330 0.361920 -0.528664
O8    O     O_R   0.246490 0.263670 0.638080 -0.530672
O9    O     O_R   0.674170 0.186160 0.516270 -0.599945
O10   O     O_R   0.325830 0.813840 0.483730 -0.597495
O11   O     O_R   0.325830 0.186160 0.483730 -0.599946
O12   O     O_R   0.674170 0.813840 0.516270 -0.597495
O13   O     O_R   0.174170 0.686160 0.516270 -0.599946
O14   O     O_R   0.825830 0.313840 0.483730 -0.597495
O15   O     O_R   0.825830 0.686160 0.483730 -0.599946
O16   O     O_R   0.174170 0.313840 0.516270 -0.597495
O17   O     O_R   0.739960 0.127620 0.525000 -0.628437
O18   O     O_R   0.260040 0.872380 0.475000 -0.628957
O19   O     O_R   0.260040 0.127620 0.475000 -0.628436
O20   O     O_R   0.739960 0.872380 0.525000 -0.628957
O21   O     O_R   0.239960 0.627620 0.525000 -0.628436
O22   O     O_R   0.760040 0.372380 0.475000 -0.628957
O23   O     O_R   0.760040 0.627620 0.475000 -0.628436
O24   O     O_R   0.239960 0.372380 0.525000 -0.628957
O25   O     O_R   0.680700 0.294870 0.629350 -0.651520
O26   O     O_R   0.319300 0.705130 0.370650 -0.645805
O27   O     O_R   0.319300 0.294870 0.370650 -0.651520
O28   O     O_R   0.680700 0.705130 0.629350 -0.645805
O29   O     O_R   0.180700 0.794870 0.629350 -0.651521
O30   O     O_R   0.819300 0.205130 0.370650 -0.645805
O31   O     O_R   0.819300 0.794870 0.370650 -0.651521
O32   O     O_R   0.180700 0.205130 0.629350 -0.645805
O33   O     O_R   0.062020 0.072840 0.007170 -0.574144
O34   O     O_R   0.937980 0.927160 0.992830 -0.596214
O35   O     O_R   0.937980 0.072840 0.992830 -0.574145
O36   O     O_R   0.062020 0.927160 0.007170 -0.596213
O37   O     O_R   0.562020 0.572840 0.007170 -0.574145
O38   O     O_R   0.437980 0.427160 0.992830 -0.596214
O39   O     O_R   0.437980 0.572840 0.992830 -0.574146
O40   O     O_R   0.562020 0.427160 0.007170 -0.596213
O41   O     O_R   0.947860 0.073950 0.109290 -0.625156
O42   O     O_R   0.052140 0.926050 0.890710 -0.639506
O43   O     O_R   0.052140 0.073950 0.890710 -0.625156
O44   O     O_R   0.947860 0.926050 0.109290 -0.639506
O45   O     O_R   0.447860 0.573950 0.109290 -0.625156
O46   O     O_R   0.552140 0.426050 0.890710 -0.639508
O47   O     O_R   0.552140 0.573950 0.890710 -0.625156
O48   O     O_R   0.447860 0.426050 0.109290 -0.639508
Zn1   Zn    Zn3+2 0.792340 0.208750 0.507670 1.094706
Zn2   Zn    Zn3+2 0.207660 0.791250 0.492330 1.082892
Zn3   Zn    Zn3+2 0.207660 0.208750 0.492330 1.094705
Zn4   Zn    Zn3+2 0.792340 0.791250 0.507670 1.082892
Zn5   Zn    Zn3+2 0.292340 0.708750 0.507670 1.094706
Zn6   Zn    Zn3+2 0.707660 0.291250 0.492330 1.082893
Zn7   Zn    Zn3+2 0.707660 0.708750 0.492330 1.094705
Zn8   Zn    Zn3+2 0.292340 0.291250 0.507670 1.082893
Zn9   Zn    Zn3+2 0.505960 0.500000 0.080520 0.986907
Zn10  Zn    Zn3+2 0.494040 0.500000 0.919480 0.986904
Zn11  Zn    Zn3+2 0.005960 0.000000 0.080520 0.986911
Zn12  Zn    Zn3+2 0.994040 0.000000 0.919480 0.986913
Cl1   Cl    Cl    0.156152 0.312982 0.373419 -0.546395
Cl2   Cl    Cl    0.843949 0.686889 0.626484 -0.570737
Cl3   Cl    Cl    0.843849 0.312981 0.626580 -0.546392
Cl4   Cl    Cl    0.156051 0.686889 0.373516 -0.570735
Cl5   Cl    Cl    0.656152 0.812982 0.373418 -0.546395
Cl6   Cl    Cl    0.343949 0.186889 0.626484 -0.570735
Cl7   Cl    Cl    0.343849 0.812981 0.626579 -0.546392
Cl8   Cl    Cl    0.656051 0.186889 0.373516 -0.570735
Cl9   Cl    Cl    0.653188 0.130435 0.024271 -0.555825
Cl10  Cl    Cl    0.339039 0.843748 0.978061 -0.494786
Cl11  Cl    Cl    0.346814 0.130439 0.975724 -0.555827
Cl12  Cl    Cl    0.660962 0.843747 0.021939 -0.494786
Cl13  Cl    Cl    0.153189 0.630434 0.024270 -0.555825
Cl14  Cl    Cl    0.839039 0.343748 0.978061 -0.494785
Cl15  Cl    Cl    0.846811 0.630432 0.975730 -0.555824
Cl16  Cl    Cl    0.160957 0.343746 0.021945 -0.494787
O49   O     O_3   0.627069 0.350596 0.033796 -0.616596
C149  C     C_3   0.584648 0.310184 0.102168 0.154999
H29   H     H_    0.599876 0.257430 0.110146 0.185404
H30   H     H_    0.550503 0.301476 0.088001 0.140709
C150  C     C_3   0.562772 0.350315 0.190992 -0.761020
H31   H     H_    0.529725 0.318815 0.245641 0.208059
H32   H     H_    0.595656 0.358651 0.207949 0.272172
H33   H     H_    0.546488 0.403266 0.185855 0.247619
O50   O     O_3   0.350581 0.613699 0.993011 -0.574309
C151  C     C_3   0.324704 0.546359 0.023120 0.065289
H34   H     H_    0.283268 0.551323 0.082005 0.118926
H35   H     H_    0.348506 0.510747 0.043061 0.166130
C152  C     C_3   0.319950 0.510285 0.947115 -0.588368
H36   H     H_    0.360922 0.501419 0.888550 0.251283
H37   H     H_    0.299268 0.457694 0.970259 0.227411
H38   H     H_    0.295953 0.544567 0.926096 0.270780
O51   O     O_3   0.372928 0.350600 0.966206 -0.616599
C153  C     C_3   0.415348 0.310188 0.897831 0.155006
H39   H     H_    0.400118 0.257439 0.889847 0.185407
H40   H     H_    0.449492 0.301472 0.912000 0.140709
C154  C     C_3   0.437229 0.350327 0.809012 -0.761034
H41   H     H_    0.470273 0.318825 0.754360 0.208060
H42   H     H_    0.404345 0.358674 0.792055 0.272169
H43   H     H_    0.453517 0.403272 0.814154 0.247624
O52   O     O_3   0.649419 0.613698 0.006989 -0.574309
C155  C     C_3   0.675295 0.546358 0.976880 0.065293
H44   H     H_    0.716733 0.551323 0.917998 0.118928
H45   H     H_    0.651495 0.510748 0.956937 0.166123
C156  C     C_3   0.680047 0.510282 0.052888 -0.588365
H46   H     H_    0.639073 0.501417 0.111451 0.251281
H47   H     H_    0.700729 0.457692 0.029744 0.227410
H48   H     H_    0.704043 0.544564 0.073910 0.270781
O53   O     O_3   0.127069 0.850595 0.033797 -0.616593
C157  C     C_3   0.084647 0.810184 0.102168 0.154987
H49   H     H_    0.099874 0.757427 0.110141 0.185405
H50   H     H_    0.050501 0.801482 0.088004 0.140711
C158  C     C_3   0.062775 0.850312 0.190993 -0.761018
H51   H     H_    0.029726 0.818812 0.245642 0.208059
H52   H     H_    0.095661 0.858640 0.207948 0.272177
H53   H     H_    0.046494 0.903265 0.185861 0.247618
O54   O     O_3   0.850580 0.113697 0.993012 -0.574308
C159  C     C_3   0.824704 0.046358 0.023123 0.065281
H54   H     H_    0.783268 0.051322 0.082009 0.118927
H55   H     H_    0.848506 0.010746 0.043062 0.166129
C160  C     C_3   0.819948 0.010283 0.947119 -0.588366
H56   H     H_    0.860920 0.001418 0.888552 0.251285
H57   H     H_    0.799267 0.957692 0.970264 0.227405
H58   H     H_    0.795949 0.044565 0.926102 0.270781
O55   O     O_3   0.872933 0.850592 0.966201 -0.616589
C161  C     C_3   0.915357 0.810181 0.897832 0.154986
H59   H     H_    0.900132 0.757421 0.889864 0.185403
H60   H     H_    0.949503 0.801486 0.911998 0.140710
C162  C     C_3   0.937227 0.850304 0.809004 -0.760999
H61   H     H_    0.970278 0.818806 0.754358 0.208055
H62   H     H_    0.904340 0.858623 0.792047 0.272178
H63   H     H_    0.953503 0.903263 0.814133 0.247615
O56   O     O_3   0.149419 0.113699 0.006990 -0.574309
C163  C     C_3   0.175296 0.046360 0.976880 0.065287
H64   H     H_    0.216733 0.051325 0.917997 0.118930
H65   H     H_    0.151495 0.010748 0.956937 0.166125
C164  C     C_3   0.180048 0.010285 0.052887 -0.588369
H66   H     H_    0.139075 0.001419 0.111450 0.251282
H67   H     H_    0.200730 0.957694 0.029742 0.227409
H68   H     H_    0.204044 0.044566 0.073908 0.270781
Cl17  Cl    Cl    0.751104 0.178772 0.781906 -0.478487
Cl18  Cl    Cl    0.246389 0.815279 0.216977 -0.488320
Cl19  Cl    Cl    0.248897 0.178772 0.218094 -0.478490
Cl20  Cl    Cl    0.753611 0.815278 0.783023 -0.488320
Cl21  Cl    Cl    0.251104 0.678772 0.781905 -0.478489
Cl22  Cl    Cl    0.746390 0.315278 0.216977 -0.488319
Cl23  Cl    Cl    0.748897 0.678771 0.218094 -0.478488
Cl24  Cl    Cl    0.253610 0.315280 0.783023 -0.488320

loop_
_geom_bond_atom_site_label_1
_geom_bond_atom_site_label_2
_ccdc_geom_bond_type
O20   Zn4   S    
C98   O44   A    
O14   Zn1   S    
C33   H18   S    
C2    O26   A    
C10   H6    S    
C79   C87   A    
C102  O48   A    
C61   C69   A    
O55   C161  S    
C156  H48   S    
C14   H10   S    
C13   C112  A    
O32   Zn3   S    
C154  H43   S    
C62   C70   A    
C6    C70   S    
C104  O46   A    
C24   C32   A    
O23   Zn7   S    
C107  C113  A    
C149  H30   S    
C101  O37   A    
C46   O54   S    
C50   C103  S    
O40   Zn9   S    
C47   O55   S    
O37   Zn9   S    
C73   C81   A    
C136  H4    S    
C16   C109  A    
C163  H65   S    
C52   C101  S    
C143  Cl3   S    
C79   Cl23  S    
C104  O40   A    
C57   C65   A    
C20   C28   A    
C27   C35   A    
C21   C29   A    
C23   C31   A    
O48   Zn9   S    
C94   O14   A    
C27   Cl11  S    
C91   O19   A    
C147  Cl7   S    
C89   O17   A    
C31   Cl15  S    
O29   Zn2   S    
C105  C112  A    
C63   C71   A    
C120  C148  A    
C153  H40   S    
O46   Zn10  S    
C157  C158  S    
C9    C116  A    
C73   Cl17  S    
C92   O20   A    
C7    O7    A    
O19   Zn3   S    
C17   C25   A    
O17   Zn1   S    
C80   C88   A    
C103  O45   A    
C157  H50   S    
C55   C98   S    
C18   C82   S    
C43   O51   S    
C30   Cl14  S    
O31   Zn4   S    
C126  C134  A    
C23   C36   A    
C77   Cl21  S    
O24   Zn8   S    
C94   O22   A    
C39   H16   S    
C118  C138  A    
C11   C143  A    
C26   Cl10  S    
C47   C87   A    
C96   C129  S    
C113  C115  A    
C16   H12   S    
C43   C83   A    
C124  C139  A    
C69   C77   A    
C127  C134  A    
C13   C145  A    
C43   C51   A    
C92   C125  S    
O41   Zn11  S    
C49   C104  S    
C71   C79   A    
C99   O35   A    
C51   C102  S    
O9    Zn6   S    
C30   C38   A    
C97   O33   A    
C6    O6    A    
C108  C115  A    
C93   C132  S    
C109  C111  A    
C28   Cl12  S    
O50   C151  S    
C164  H67   S    
C66   C74   A    
C41   O49   S    
C49   C57   A    
C144  Cl4   S    
C150  H31   S    
C52   C60   A    
C59   C67   A    
C129  C135  A    
C53   C61   A    
O6    Zn6   S    
C162  H62   S    
C55   C63   A    
C95   C130  S    
C1    C65   S    
C56   C64   A    
C64   H28   S    
C34   H17   S    
C11   H7    S    
C44   C52   A    
C9    H5    S    
O52   C155  S    
C160  H57   S    
C56   C97   S    
C12   H8    S    
C42   O50   S    
C19   C83   S    
C13   H9    S    
C35   H20   S    
C106  C111  A    
C38   H13   S    
O27   Zn8   S    
C161  H60   S    
C7    O31   A    
C131  C136  A    
C4    C68   S    
C149  C150  S    
C5    C69   S    
C29   Cl13  S    
C93   O21   A    
O54   C159  S    
C146  Cl6   S    
C158  H51   S    
C152  H37   S    
C60   C68   A    
C42   C50   A    
O26   Zn5   S    
C20   C84   S    
C54   C99   S    
C67   C75   A    
O7    Zn7   S    
C96   O24   A    
C91   O11   A    
C22   C30   A    
O45   Zn9   S    
C119  C138  A    
C89   O9    A    
C2    C66   S    
C114  C116  A    
C92   O12   A    
C151  H34   S    
O21   Zn5   S    
C68   C76   A    
C150  H33   S    
C121  C139  A    
C122  C140  A    
C72   C80   A    
C3    C67   S    
C77   C85   A    
C154  H42   S    
C17   C38   A    
O3    Zn3   S    
C110  C112  A    
C107  C116  A    
C6    O30   A    
C153  C154  S    
C19   C40   A    
O1    Zn1   S    
C148  Cl8   S    
C61   H25   S    
C155  H44   S    
C37   H14   S    
C2    O2    A    
C74   Cl18  S    
C117  C125  A    
C89   C128  S    
C25   C33   A    
C119  C127  A    
O15   Zn4   S    
C3    O27   A    
O44   Zn11  S    
O13   Zn2   S    
C18   C26   A    
C1    O25   A    
C78   C86   A    
C76   C84   A    
C151  C152  S    
C4    O4    A    
C159  H54   S    
C59   H23   S    
C119  C147  A    
C158  H53   S    
C45   O53   S    
C117  C145  A    
C10   C142  A    
C108  C114  A    
C105  C109  A    
C102  O38   A    
O16   Zn3   S    
C155  C156  S    
C90   C127  S    
C48   C88   A    
O34   Zn12  S    
O51   C153  S    
C15   C110  A    
O38   Zn10  S    
O39   Zn10  S    
C74   C82   A    
C5    O5    A    
C5    O29   A    
C53   C100  S    
C21   C85   S    
C8    C72   S    
C50   C58   A    
C121  C141  A    
C159  C160  S    
C20   C39   A    
C21   C34   A    
C54   C62   A    
C45   C53   A    
C36   H19   S    
C15   H11   S    
O53   C157  S    
O47   Zn10  S    
C90   O18   A    
C41   C81   A    
C46   C54   A    
O30   Zn1   S    
C24   C88   S    
O11   Zn8   S    
C93   O13   A    
C156  H47   S    
C103  O39   A    
C142  Cl2   S    
C14   C146  A    
C163  H64   S    
C123  C131  A    
C121  C129  A    
C44   C84   A    
C120  C128  A    
C41   C49   A    
C90   O10   A    
C94   C131  S    
O18   Zn2   S    
O28   Zn7   S    
O42   Zn12  S    
C15   C147  A    
C75   C83   A    
C164  H66   S    
O49   C149  S    
C135  H3    S    
O4    Zn4   S    
C17   C81   S    
C22   C86   S    
C4    O28   A    
C28   C36   A    
C162  H61   S    
C78   Cl22  S    
C29   C37   A    
C153  H39   S    
C120  C137  A    
C163  C164  S    
C25   Cl9   S    
C91   C126  S    
C70   C78   A    
C160  H56   S    
C42   C82   A    
O33   Zn11  S    
O10   Zn5   S    
O56   C163  S    
C98   O34   A    
C161  C162  S    
C124  C132  A    
C149  H29   S    
C58   H22   S    
C18   C37   A    
C7    C71   S    
C157  H49   S    
C106  C138  A    
C62   H26   S    
C65   C73   A    
O35   Zn12  S    
C8    O32   A    
C11   C114  A    
C3    O3    A    
C1    O1    A    
C58   C66   A    
C99   O41   A    
O5    Zn5   S    
C97   O43   A    
C19   C27   A    
C152  H36   S    
C95   O15   A    
C8    O8    A    
C64   C72   A    
C23   C87   S    
C107  C139  A    
C48   O56   S    
C130  C136  A    
C26   C34   A    
C57   H21   S    
C14   C111  A    
C24   C35   A    
C60   H24   S    
C118  C146  A    
C133  H1    S    
O8    Zn8   S    
C40   H15   S    
C108  C140  A    
C9    C141  A    
C164  H68   S    
C151  H35   S    
C156  H46   S    
C105  C137  A    
C123  C140  A    
C100  O36   A    
C12   C144  A    
C150  H32   S    
C45   C85   A    
C44   O52   S    
C162  H63   S    
C154  H41   S    
C145  Cl5   S    
O25   Zn6   S    
C80   Cl24  S    
C160  H58   S    
C155  H45   S    
C51   C59   A    
C122  C142  A    
O12   Zn7   S    
O36   Zn11  S    
C47   C55   A    
C12   C113  A    
C106  C110  A    
C125  C133  A    
C48   C56   A    
C22   C33   A    
C161  H59   S    
C141  Cl1   S    
C134  H2    S    
O43   Zn12  S    
C117  C137  A    
C75   Cl19  S    
O22   Zn6   S    
C63   H27   S    
C76   Cl20  S    
C32   Cl16  S    
C16   C148  A    
C128  C133  A    
C159  H55   S    
C101  O47   A    
C132  C135  A    
C158  H52   S    
C31   C39   A    
C32   C40   A    
C96   O16   A    
C152  H38   S    
O2    Zn2   S    
C100  O42   A    
C95   O23   A    
C123  C143  A    
C124  C144  A    
C118  C126  A    
C122  C130  A    
C10   C115  A    
C46   C86   A    
