data_mof_unit_48801.cif
_audit_creation_date              2012-12-10T17:28:38-0500
_audit_creation_method            fapswitch 2.2
_symmetry_space_group_name_H-M    P1
_symmetry_Int_Tables_number       1
_space_group_crystal_system       triclinic
_cell_length_a                    10.608971
_cell_length_b                    11.960595
_cell_length_c                    12.982196
_cell_angle_alpha                 94.839814
_cell_angle_beta                  90.401475
_cell_angle_gamma                 86.835205
_cell_volume                      1638.9242566

loop_
_atom_site_label
_atom_site_type_symbol
_atom_type_description
_atom_site_fract_x
_atom_site_fract_y
_atom_site_fract_z
_atom_type_partial_charge
C1    C     C_R   0.494285 0.523017 0.701225 0.973746
C2    C     C_R   0.433020 0.545794 0.134335 0.402947
C3    C     C_R   0.505553 0.448297 0.974778 -0.204761
C4    C     C_R   0.456298 0.547712 0.029039 -0.227316
C5    C     C_R   0.358364 0.955187 0.426536 0.264746
C6    C     C_R   0.642100 0.045468 0.573933 0.235696
C7    C     C_R   0.374136 0.837216 0.431777 0.515861
C8    C     C_R   0.622144 0.163914 0.573303 0.508436
C9    C     C_R   0.566278 0.857967 0.524680 -0.097753
C10   C     C_R   0.434743 0.141957 0.474289 -0.114484
C11   C     C_R   0.552548 0.975850 0.525561 -0.106606
C12   C     C_R   0.497363 0.476063 0.299399 1.024632
C13   C     C_R   0.446763 0.024508 0.476358 -0.094248
C14   C     C_R   0.736211 0.497557 0.477424 0.962519
C15   C     C_R   0.258418 0.498845 0.497124 0.998766
C16   C     C_R   0.887368 0.301024 0.360260 0.471722
C17   C     C_R   0.083291 0.689098 0.569749 0.493233
C18   C     C_R   0.967403 0.212426 0.317059 -0.284363
C19   C     C_R   0.021424 0.794576 0.558403 -0.287151
C20   C     C_R   0.095241 0.225689 0.308784 -0.236145
C21   C     C_R   0.923343 0.804113 0.487283 -0.300533
C22   C     C_R   0.148134 0.323988 0.351280 0.428999
C23   C     C_R   0.487613 0.457711 0.187774 -0.348779
C24   C     C_R   0.873324 0.706869 0.438583 0.482891
C25   C     C_R   0.073041 0.404989 0.413962 -0.051766
C26   C     C_R   0.927607 0.600391 0.459918 -0.048363
C27   C     C_R   0.940103 0.399556 0.408438 -0.038603
C28   C     C_R   0.046160 0.594139 0.505453 -0.057224
C29   C     C_R   0.123726 0.495981 0.477586 -0.164553
C30   C     C_R   0.866976 0.498463 0.442455 -0.119780
C31   C     C_3   0.232705 0.583509 0.197962 0.205611
C32   C     C_3   0.129257 0.668543 0.169084 -0.766852
C33   C     C_3   0.369398 0.296946 0.818741 0.108211
C34   C     C_R   0.482451 0.536097 0.814087 -0.370698
C35   C     C_3   0.366679 0.174370 0.777162 -0.818620
C36   C     C_3   0.541374 0.163101 0.142095 0.101160
C37   C     C_3   0.511353 0.085569 0.224185 -0.828305
C38   C     C_3   0.512492 0.825897 0.864641 0.115146
C39   C     C_3   0.570116 0.891041 0.783532 -0.781534
C40   C     C_R   0.430159 0.645158 0.975911 0.362888
C41   C     C_R   0.552529 0.356235 0.026927 0.348938
C42   C     C_R   0.454943 0.641585 0.868998 0.394708
C43   C     C_R   0.537983 0.357918 0.134153 0.379432
C44   C     C_R   0.497278 0.438453 0.867959 0.458923
H1    H     H_    0.883657 0.886598 0.472812 0.188404
H2    H     H_    0.188219 0.750971 0.681986 0.348367
H3    H     H_    0.299985 0.289251 0.268466 0.326796
H4    H     H_    0.753886 0.793739 0.358330 0.321531
H5    H     H_    0.221550 0.568842 0.280540 0.188823
H6    H     H_    0.217678 0.502590 0.150923 0.099657
H7    H     H_    0.140437 0.750940 0.213245 0.262005
H8    H     H_    0.035415 0.638153 0.186853 0.209185
H9    H     H_    0.133983 0.679613 0.085158 0.267904
H10   H     H_    0.307241 0.348395 0.769346 0.154148
H11   H     H_    0.330404 0.303999 0.898732 0.107649
H12   H     H_    0.152174 0.161763 0.263586 0.180909
H13   H     H_    0.268620 0.146622 0.779231 0.214802
H14   H     H_    0.400295 0.163706 0.696230 0.258481
H15   H     H_    0.427780 0.120949 0.825123 0.233256
H16   H     H_    0.620698 0.121345 0.095477 0.184773
H17   H     H_    0.455284 0.171467 0.092765 0.097668
H18   H     H_    0.424061 0.118237 0.264839 0.265827
H19   H     H_    0.495029 0.000367 0.187292 0.214520
H20   H     H_    0.590402 0.078966 0.280138 0.247027
H21   H     H_    0.591259 0.795765 0.914628 0.121751
H22   H     H_    0.447310 0.885305 0.911689 0.191214
H23   H     H_    0.929029 0.137075 0.280036 0.156926
H24   H     H_    0.495059 0.921606 0.731209 0.259927
H25   H     H_    0.617347 0.964405 0.821279 0.221128
H26   H     H_    0.641479 0.835787 0.739109 0.273808
H27   H     H_    0.441837 0.761305 0.086362 0.355845
H28   H     H_    0.575434 0.214882 0.947721 0.332506
H29   H     H_    0.731571 0.201755 0.689778 0.340934
H30   H     H_    0.202861 0.804756 0.392570 0.313878
H31   H     H_    0.051717 0.869568 0.602060 0.169899
H32   H     H_    0.355647 0.181758 0.436128 0.225260
H33   H     H_    0.646945 0.817776 0.560534 0.210346
H34   H     H_    0.236385 0.950437 0.314218 0.338394
H35   H     H_    0.816929 0.047802 0.619368 0.338469
H36   H     H_    0.739603 0.216976 0.325068 0.348843
N1    N     N_R   0.523130 0.207800 0.519340 -0.135420
N2    N     N_R   0.476870 0.792200 0.480660 -0.129221
O1    O     O_R   0.506170 0.421700 0.658830 -0.546113
O2    O     O_3   0.746840 0.996502 0.619669 -0.802364
O3    O     O_3   0.759194 0.295700 0.346069 -0.714064
O4    O     O_3   0.174388 0.676551 0.645187 -0.757504
O5    O     O_3   0.266831 0.348356 0.320953 -0.816306
O6    O     O_3   0.778135 0.713535 0.365742 -0.753526
O7    O     O_3   0.352325 0.627575 0.184517 -0.552624
O8    O     O_3   0.494851 0.331710 0.817192 -0.546176
O9    O     O_3   0.579432 0.267471 0.189026 -0.552507
O10   O     O_3   0.443299 0.737916 0.815723 -0.563679
O11   O     O_3   0.385280 0.745197 0.026430 -0.746462
O12   O     O_R   0.493830 0.578300 0.341170 -0.563906
O13   O     O_3   0.630688 0.274115 0.976182 -0.714191
O14   O     O_3   0.698174 0.237408 0.628325 -0.705804
O15   O     O_3   0.287567 0.765591 0.388696 -0.731036
O16   O     O_R   0.491330 0.609310 0.646410 -0.570160
O17   O     O_R   0.508670 0.390690 0.353590 -0.533457
O18   O     O_R   0.690650 0.406190 0.506220 -0.526621
O19   O     O_R   0.309350 0.593810 0.493780 -0.548760
O20   O     O_R   0.675800 0.593810 0.493800 -0.622209
O21   O     O_R   0.324200 0.406190 0.506200 -0.619007
O22   O     O_3   0.260157 0.003902 0.372608 -0.813914
Zn1   Zn    Zn3+2 0.509910 0.374730 0.508290 1.053550
Zn2   Zn    Zn3+2 0.490090 0.625270 0.491710 1.049845

loop_
_geom_bond_atom_site_label_1
_geom_bond_atom_site_label_2
_ccdc_geom_bond_type
C33   H11   S    
C39   H24   S    
C8    O14   S    
C40   O11   S    
C20   H12   S    
C37   H18   S    
C12   C23   S    
O18   Zn1   S    
C35   H14   S    
C28   C29   A    
C19   C21   A    
C31   H5    S    
H35   O2    S    
C14   O20   A    
C38   O10   S    
C33   H10   S    
C23   C43   A    
C18   C20   A    
C35   H15   S    
C8    N1    A    
C32   H8    S    
C12   O17   A    
C17   C19   A    
H28   O13   S    
C10   H32   S    
C3    C41   A    
C38   H22   S    
C31   O7    S    
C22   C25   A    
C34   C42   A    
H4    O6    S    
C5    C13   A    
C9    N2    A    
C16   C27   A    
C40   C42   A    
C5    O22   S    
C27   C30   A    
C41   C43   A    
C12   O12   A    
C14   C30   S    
C37   H19   S    
C1    C34   S    
C15   C29   S    
H30   O15   S    
C21   H1    S    
C25   C29   A    
C38   C39   S    
O17   Zn1   S    
N1    Zn1   S    
C3    C44   A    
C6    O2    S    
H34   O22   S    
C17   O4    S    
C4    C40   A    
C34   C44   A    
C6    C11   A    
C5    C7    A    
C6    C8    A    
C18   H23   S    
C43   O9    S    
O1    Zn1   S    
H3    O5    S    
C2    O7    S    
C2    C4    A    
C32   H7    S    
H36   O3    S    
C24   O6    S    
C31   C32   S    
C38   H21   S    
C39   H25   S    
O21   Zn1   S    
C9    H33   S    
C22   O5    S    
C15   O19   A    
C9    C11   A    
C36   O9    S    
C20   C22   A    
C26   C30   A    
C16   O3    S    
C1    O1    A    
C31   H6    S    
C3    C4    A    
C32   H9    S    
C37   H20   S    
C44   O8    S    
O19   Zn2   S    
C36   C37   S    
C7    O15   S    
C17   C28   A    
C24   C26   A    
C36   H16   S    
C10   C13   A    
C1    O16   A    
C14   O18   A    
H27   O11   S    
C25   C27   A    
C10   N1    A    
C26   C28   A    
O16   Zn2   S    
C35   H13   S    
C19   H31   S    
C33   O8    S    
C11   C13   A    
C41   O13   S    
C33   C35   S    
C39   H26   S    
O20   Zn2   S    
C42   O10   S    
N2    Zn2   S    
O12   Zn2   S    
C7    N2    A    
C16   C18   A    
C21   C24   A    
C2    C23   A    
H29   O14   S    
C15   O21   A    
C36   H17   S    
H2    O4    S    
