data_mof_unit_44821.cif
_audit_creation_date              2012-12-10T20:26:26-0500
_audit_creation_method            fapswitch 2.2
_symmetry_space_group_name_H-M    P1
_symmetry_Int_Tables_number       1
_space_group_crystal_system       triclinic
_cell_length_a                    10.720986
_cell_length_b                    10.68486
_cell_length_c                    9.889298
_cell_angle_alpha                 89.267473
_cell_angle_beta                  89.853934
_cell_angle_gamma                 90.180759
_cell_volume                      1132.73916335

loop_
_atom_site_label
_atom_site_type_symbol
_atom_type_description
_atom_site_fract_x
_atom_site_fract_y
_atom_site_fract_z
_atom_type_partial_charge
C1    C     C_R   0.499119 0.260238 0.500657 0.879975
C2    C     C_R   0.495595 0.128181 0.498805 -0.102251
C3    C     C_R   0.561263 0.066383 0.396548 -0.195968
C4    C     C_R   0.560537 0.936972 0.394150 -0.216405
C5    C     C_R   0.494507 0.870872 0.494370 -0.066981
C6    C     C_R   0.415028 0.933399 0.580904 0.075002
C7    C     C_3   0.386027 0.918652 0.727911 -0.527941
C8    C     C_3   0.382820 0.061748 0.731323 -0.018556
C9    C     C_R   0.390568 0.503678 0.071374 0.214295
C10   C     C_R   0.608603 0.505525 0.071400 -0.128596
C11   C     C_R   0.608609 0.505364 0.927817 -0.110543
C12   C     C_R   0.262823 0.506268 0.500368 0.934235
C13   C     C_R   0.390655 0.504768 0.928873 0.201546
C14   C     C_3   0.288558 0.410644 0.923690 -0.478213
C15   C     C_3   0.289156 0.407855 0.076831 -0.493641
C16   C     C_R   0.500391 0.739479 0.498970 0.876562
C17   C     C_R   0.737357 0.499786 0.499714 0.927587
C18   C     C_2   0.932271 0.546271 0.394007 -0.161144
C19   C     C_2   0.869367 0.496958 0.498716 -0.318170
C20   C     C_2   0.066931 0.542310 0.390293 -0.155605
C21   C     C_2   0.131895 0.526218 0.503781 -0.326150
C22   C     C_R   0.414739 0.060892 0.583346 0.042709
H1    H     H_    0.884330 0.586374 0.307020 0.158422
H2    H     H_    0.696487 0.508259 0.124570 0.147799
H3    H     H_    0.696521 0.507838 0.874155 0.152646
H4    H     H_    0.201559 0.450127 0.879851 0.200646
H5    H     H_    0.320523 0.322175 0.878605 0.225539
H6    H     H_    0.201503 0.444499 0.120433 0.193477
H7    H     H_    0.320778 0.317010 0.120696 0.224236
H8    H     H_    0.912995 0.451754 0.584991 0.147468
H9    H     H_    0.112324 0.551164 0.292649 0.160946
H10   H     H_    0.089930 0.531120 0.603417 0.148305
H11   H     H_    0.617692 0.117553 0.323306 0.168743
H12   H     H_    0.616788 0.889079 0.319843 0.161166
H13   H     H_    0.294215 0.872047 0.744684 0.197616
H14   H     H_    0.464461 0.875492 0.785238 0.210344
N1    N     N_R   0.499170 0.499140 0.142800 -0.106630
N2    N     N_R   0.499170 0.499180 0.857150 -0.106002
O1    O     O_R   0.500020 0.316790 0.614690 -0.610488
O2    O     O_R   0.500000 0.316760 0.385350 -0.614539
O3    O     O_R   0.319080 0.500020 0.614640 -0.625460
O4    O     O_R   0.319070 0.499980 0.385300 -0.615908
O5    O     O_R   0.500000 0.683240 0.614650 -0.619382
O6    O     O_R   0.499980 0.683210 0.385310 -0.623491
O7    O     O_R   0.680930 0.500020 0.614700 -0.626621
O8    O     O_R   0.680920 0.499980 0.385360 -0.626268
Zn1   Zn    Zn3+2 0.500010 0.500020 0.653130 0.951938
Zn2   Zn    Zn3+2 0.499990 0.499980 0.346870 0.947501
C23   C     C_1   0.479157 0.116278 0.818913 0.196412
N3    N     N_1   0.554757 0.159103 0.887868 -0.203863
C24   C     C_1   0.257109 0.111497 0.755939 0.147911
N4    N     N_1   0.157888 0.150062 0.774802 -0.214209

loop_
_geom_bond_atom_site_label_1
_geom_bond_atom_site_label_2
_ccdc_geom_bond_type
C2    C22   A    
C11   N2    A    
C8    C22   S    
C12   O3    A    
C14   H5    S    
C7    H14   S    
C16   O6    A    
C8    C24   S    
C11   H3    S    
C20   C21   D    
C9    N1    A    
C2    C3    A    
C15   H6    S    
C7    C8    S    
O4    Zn2   S    
C13   C14   S    
C14   H4    S    
N1    Zn2   S    
C16   O5    A    
N2    Zn1   S    
C6    C7    S    
C7    H13   S    
C10   N1    A    
C12   C21   S    
C17   C19   S    
C17   O7    A    
C15   H7    S    
C18   C20   S    
O7    Zn1   S    
O3    Zn1   S    
C5    C6    A    
C21   H10   S    
C4    H12   S    
C10   C11   A    
C1    O1    A    
C12   O4    A    
C18   H1    S    
C6    C22   A    
O8    Zn2   S    
O6    Zn2   S    
C17   O8    A    
C3    C4    A    
O1    Zn1   S    
C1    C2    S    
C23   N3    T    
C3    H11   S    
O2    Zn2   S    
C18   C19   D    
C5    C16   S    
C9    C13   A    
C1    O2    A    
C10   H2    S    
C14   C15   S    
C19   H8    S    
O5    Zn1   S    
C8    C23   S    
C13   N2    A    
C24   N4    T    
C9    C15   S    
C4    C5    A    
C20   H9    S    
