data_mof_unit_63454.cif
_audit_creation_date              2012-12-10T18:13:14-0500
_audit_creation_method            fapswitch 2.2
_symmetry_space_group_name_H-M    P1
_symmetry_Int_Tables_number       1
_space_group_crystal_system       triclinic
_cell_length_a                    36.142642
_cell_length_b                    29.163706
_cell_length_c                    21.631377
_cell_angle_alpha                 89.915729
_cell_angle_beta                  126.279127
_cell_angle_gamma                 90.038884
_cell_volume                      18380.5653076

loop_
_atom_site_label
_atom_site_type_symbol
_atom_type_description
_atom_site_fract_x
_atom_site_fract_y
_atom_site_fract_z
_atom_type_partial_charge
C1    C     C_R   0.913242 0.000005 0.913254 0.888046
C2    C     C_1   0.229480 0.999977 0.230103 0.013853
C3    C     C_3   0.455710 0.472025 0.239972 0.169674
C4    C     C_1   0.862572 0.000011 0.862343 -0.200145
C5    C     C_1   0.137427 0.999982 0.137632 -0.201641
C6    C     C_1   0.362572 0.500011 0.862343 -0.200184
C7    C     C_1   0.637427 0.499982 0.137632 -0.201583
C8    C     C_1   0.270519 0.500008 0.769888 0.014608
C9    C     C_1   0.729480 0.499977 0.230103 0.013853
C10   C     C_1   0.728294 0.000006 0.727549 0.011827
C11   C     C_1   0.271705 0.999981 0.272447 0.011262
C12   C     C_1   0.228294 0.500006 0.727548 0.011824
C13   C     C_1   0.771705 0.499981 0.272447 0.011263
C14   C     C_1   0.678459 0.000004 0.677676 0.007300
C15   C     C_1   0.321540 0.999988 0.322322 0.006947
C16   C     C_1   0.178459 0.500004 0.677676 0.007300
C17   C     C_R   0.086757 0.999994 0.086706 0.890726
C18   C     C_1   0.821540 0.499988 0.322322 0.006946
C19   C     C_1   0.636231 0.000002 0.635561 -0.195822
C20   C     C_1   0.363768 0.999993 0.364438 -0.196118
C21   C     C_1   0.136231 0.500001 0.635561 -0.195822
C22   C     C_1   0.863768 0.499993 0.364438 -0.196119
C23   C     C_R   0.000005 0.913234 0.500016 0.863657
C24   C     C_R   0.999994 0.086758 0.500044 0.921316
C25   C     C_R   0.500005 0.413234 0.500016 0.863622
C26   C     C_R   0.499994 0.586758 0.500045 0.921400
C27   C     C_R   0.999712 0.994304 0.621665 0.936405
C28   C     C_R   0.413242 0.500005 0.913253 0.888143
C29   C     C_R   0.000370 0.994110 0.378429 0.923286
C30   C     C_R   0.499711 0.494280 0.621658 0.936434
C31   C     C_R   0.500370 0.494110 0.378429 0.923289
C32   C     C_R   0.500000 0.085559 0.499960 0.874947
C33   C     C_R   0.500000 0.914440 0.500040 0.874781
C34   C     C_R   1.000000 0.585559 0.499960 0.874949
C35   C     C_R   0.000000 0.414440 0.500040 0.874781
C36   C     C_R   0.585546 1.000000 0.585309 0.875413
C37   C     C_R   0.414454 0.999999 0.414691 0.875316
C38   C     C_R   0.085546 0.500000 0.585309 0.875413
C39   C     C_R   0.586757 0.499994 0.086706 0.890706
C40   C     C_R   0.914454 0.499999 0.414691 0.875316
C41   C     C_1   0.000011 0.862563 0.499989 -0.220679
C42   C     C_1   0.999986 0.137432 0.500034 -0.227453
C43   C     C_1   0.500012 0.362563 0.499989 -0.220666
C44   C     C_1   0.499986 0.637432 0.500035 -0.227461
C45   C     C_R   0.997930 0.000082 0.875568 0.953010
C46   C     C_R   0.000598 0.999969 0.123002 0.969269
C47   C     C_R   0.497974 0.500082 0.875608 0.953393
C48   C     C_R   0.500596 0.499970 0.123000 0.969266
C49   C     C_1   0.000012 0.820350 0.499957 0.002288
C50   C     C_1   0.820351 0.000011 0.819919 0.013404
C51   C     C_1   0.999985 0.179646 0.500047 0.009004
C52   C     C_1   0.500012 0.320350 0.499958 0.002289
C53   C     C_1   0.499985 0.679646 0.500048 0.009000
C54   C     C_1   0.000010 0.770517 0.499920 0.008842
C55   C     C_1   0.999987 0.229480 0.500076 0.011773
C56   C     C_1   0.500010 0.270516 0.499920 0.008839
C57   C     C_1   0.499987 0.729480 0.500076 0.011775
C58   C     C_1   0.500007 0.228300 0.499893 0.009031
C59   C     C_1   0.499990 0.771697 0.500101 0.009811
C60   C     C_1   0.000007 0.728300 0.499893 0.009034
C61   C     C_1   0.179649 0.999977 0.180065 0.013902
C62   C     C_1   0.999990 0.271697 0.500100 0.009810
C63   C     C_1   0.500004 0.178464 0.499877 0.006485
C64   C     C_1   0.499994 0.821534 0.500118 0.007141
C65   C     C_1   0.000004 0.678464 0.499877 0.006488
C66   C     C_1   0.999994 0.321534 0.500118 0.007139
C67   C     C_1   0.500002 0.136246 0.499890 -0.196234
C68   C     C_1   0.499997 0.863753 0.500108 -0.196034
C69   C     C_1   0.000002 0.636246 0.499890 -0.196232
C70   C     C_1   0.999997 0.363753 0.500108 -0.196036
C71   C     C_3   0.955491 0.969374 0.742875 0.732966
C72   C     C_1   0.320351 0.500011 0.819918 0.013407
C73   C     C_3   0.001362 0.049564 0.218379 0.777345
C74   C     C_3   0.044847 0.970635 0.256254 0.686529
C75   C     C_3   0.993807 0.049705 0.776729 0.722519
C76   C     C_3   0.455406 0.469538 0.742810 0.732824
C77   C     C_3   0.501354 0.549565 0.218371 0.777336
C78   C     C_3   0.544850 0.470641 0.256256 0.686532
C79   C     C_3   0.494039 0.549717 0.776947 0.722573
C80   C     C_3   0.960282 0.962046 0.676918 -0.152495
C81   C     C_3   0.003105 0.046823 0.292078 -0.230453
C82   C     C_3   0.043416 0.966395 0.326760 -0.149187
C83   C     C_1   0.679649 0.499977 0.180065 0.013901
C84   C     C_3   0.991528 0.046097 0.702462 -0.143183
C85   C     C_3   0.460151 0.462190 0.676806 -0.152321
C86   C     C_3   0.503094 0.546824 0.292067 -0.230460
C87   C     C_3   0.543422 0.466405 0.326765 -0.149182
C88   C     C_3   0.491737 0.546114 0.702657 -0.143382
C89   C     C_3   0.043175 0.977389 0.831377 -0.545951
C90   C     C_3   0.957888 0.973683 0.170390 -0.525869
C91   C     C_3   0.543118 0.477202 0.831303 -0.546046
C92   C     C_3   0.457891 0.473677 0.170393 -0.525874
C93   C     C_3   0.997157 0.999568 0.807151 -0.069642
C94   C     C_1   0.770519 0.000009 0.769888 0.014610
C95   C     C_3   0.001862 0.999129 0.191783 -0.090200
C96   C     C_3   0.497193 0.499568 0.807183 -0.069490
C97   C     C_3   0.501861 0.499129 0.191782 -0.090179
C98   C     C_3   0.998922 0.994912 0.688573 -0.127899
C99   C     C_3   0.001377 0.995184 0.311676 -0.073566
C100  C     C_3   0.498923 0.494899 0.688569 -0.127767
C101  C     C_3   0.501378 0.495184 0.311676 -0.073567
C102  C     C_3   0.046966 0.977107 0.763353 0.187500
C103  C     C_3   0.955705 0.972034 0.239966 0.169677
C104  C     C_3   0.546900 0.476909 0.763270 0.187338
H1    H     H_    0.972378 0.926420 0.681948 0.135608
H2    H     H_    0.926759 0.990355 0.119905 0.193037
H3    H     H_    0.957325 0.938312 0.150525 0.235076
H4    H     H_    0.072768 0.995774 0.881750 0.204598
H5    H     H_    0.545348 0.441800 0.852519 0.221799
H6    H     H_    0.426759 0.490345 0.119908 0.193030
H7    H     H_    0.457332 0.438306 0.150530 0.235080
H8    H     H_    0.572789 0.495462 0.881751 0.204541
H9    H     H_    0.927245 0.909936 0.732408 0.352289
H10   H     H_    0.961249 0.103215 0.173535 0.358675
H11   H     H_    0.072516 0.910495 0.268821 0.340678
H12   H     H_    0.971647 0.063696 0.279146 0.170382
H13   H     H_    0.029779 0.106425 0.813508 0.327403
H14   H     H_    0.426935 0.410211 0.732141 0.352273
H15   H     H_    0.461235 0.603210 0.173518 0.358678
H16   H     H_    0.572526 0.410505 0.268832 0.340674
H17   H     H_    0.530260 0.606280 0.813930 0.327288
H18   H     H_    0.908619 0.989706 0.755200 0.334601
H19   H     H_    0.067021 0.067409 0.275329 0.368293
H20   H     H_    0.089073 0.986538 0.234995 0.337492
H21   H     H_    0.963099 0.093351 0.803410 0.360555
H22   H     H_    0.408623 0.490048 0.755241 0.334618
H23   H     H_    0.036579 0.929750 0.331478 0.160763
H24   H     H_    0.567011 0.567416 0.275326 0.368296
H25   H     H_    0.589072 0.486545 0.234988 0.337496
H26   H     H_    0.463518 0.593586 0.803692 0.360544
H27   H     H_    0.915868 0.942220 0.562770 0.185535
H28   H     H_    0.904553 0.995334 0.578209 0.244974
H29   H     H_    0.034613 0.080876 0.396025 0.202883
H30   H     H_    0.072338 0.056811 0.383797 0.247812
H31   H     H_    0.114339 0.961432 0.398778 0.228440
H32   H     H_    0.091108 0.959150 0.443854 0.191357
H33   H     H_    0.953890 0.102863 0.639783 0.194667
H34   H     H_    0.020465 0.066281 0.711358 0.148885
H35   H     H_    0.920887 0.059940 0.632307 0.271612
H36   H     H_    0.415613 0.442503 0.562603 0.185575
H37   H     H_    0.404562 0.495699 0.578213 0.244961
H38   H     H_    0.534589 0.580883 0.396005 0.202867
H39   H     H_    0.572323 0.556828 0.383790 0.247802
H40   H     H_    0.614347 0.461460 0.398781 0.228445
H41   H     H_    0.591121 0.459174 0.443862 0.191362
H42   H     H_    0.454326 0.603026 0.640192 0.194603
H43   H     H_    0.421154 0.560239 0.632567 0.271607
H44   H     H_    0.041035 0.904400 0.760485 0.184663
H45   H     H_    0.472101 0.426515 0.681688 0.135554
H46   H     H_    0.052384 0.925821 0.700531 0.186349
H47   H     H_    0.884986 0.976158 0.180480 0.181245
H48   H     H_    0.909232 0.027033 0.192702 0.210540
H49   H     H_    0.925032 0.907703 0.208777 0.191091
H50   H     H_    0.947294 0.922029 0.299257 0.191726
H51   H     H_    0.116352 0.990709 0.822150 0.205753
H52   H     H_    0.086026 0.037594 0.807508 0.210610
H53   H     H_    0.552138 0.425627 0.700247 0.186163
H54   H     H_    0.540669 0.404227 0.760066 0.184674
H55   H     H_    0.384990 0.476131 0.180488 0.181245
H56   H     H_    0.471631 0.563689 0.279128 0.170393
H57   H     H_    0.409224 0.527013 0.192699 0.210527
H58   H     H_    0.425052 0.407687 0.208796 0.191092
H59   H     H_    0.447313 0.422017 0.299275 0.191710
H60   H     H_    0.586201 0.537241 0.807670 0.210636
H61   H     H_    0.616339 0.490239 0.822102 0.205751
H62   H     H_    0.536595 0.429758 0.331497 0.160761
H63   H     H_    0.520753 0.566181 0.711625 0.149003
H64   H     H_    0.045548 0.942000 0.852746 0.221691
N1    N     N_3   0.915072 0.962747 0.601607 -0.400515
N2    N     N_3   0.913825 0.995838 0.220164 -0.430753
N3    N     N_3   0.953224 0.923651 0.257504 -0.462513
N4    N     N_3   0.085207 0.007080 0.781607 -0.410526
N5    N     N_3   0.558242 0.429892 0.753466 -0.451088
N6    N     N_3   0.413824 0.495819 0.220167 -0.430753
N7    N     N_3   0.453241 0.423640 0.257519 -0.462502
N8    N     N_3   0.585256 0.506735 0.781636 -0.410522
N9    N     N_3   0.041085 0.073875 0.355842 -0.439188
N10   N     N_3   0.088376 0.976803 0.399236 -0.425559
N11   N     N_3   0.950015 0.067204 0.634850 -0.435951
N12   N     N_3   0.414933 0.463075 0.601517 -0.400444
N13   N     N_3   0.541065 0.573885 0.355827 -0.439184
N14   N     N_3   0.588381 0.476825 0.399236 -0.425570
N15   N     N_3   0.450307 0.567383 0.635127 -0.436089
N16   N     N_3   0.058493 0.930130 0.753745 -0.451060
O1    O     O_R   0.936850 0.964330 0.936870 -0.604534
O2    O     O_R   0.000010 0.035670 0.092610 -0.553396
O3    O     O_R   0.000010 0.964330 0.092610 -0.599596
O4    O     O_R   0.999990 0.035670 0.907390 -0.600756
O5    O     O_R   0.499990 0.464330 0.907390 -0.587700
O6    O     O_R   0.500010 0.535670 0.092610 -0.553405
O7    O     O_R   0.500010 0.464330 0.092610 -0.599614
O8    O     O_R   0.499990 0.535670 0.907390 -0.600707
O9    O     O_R   0.964320 0.936860 0.464320 -0.615556
O10   O     O_R   0.035680 0.063140 0.535680 -0.598030
O11   O     O_R   0.035680 0.936860 0.535680 -0.612784
O12   O     O_R   0.063150 0.035670 0.063130 -0.590246
O13   O     O_R   0.964320 0.063140 0.464320 -0.588085
O14   O     O_R   0.464320 0.436860 0.464320 -0.615562
O15   O     O_R   0.535680 0.563140 0.535680 -0.598050
O16   O     O_R   0.535680 0.436860 0.535680 -0.612763
O17   O     O_R   0.464320 0.563140 0.464320 -0.588074
O18   O     O_R   0.964330 0.000000 0.556950 -0.617213
O19   O     O_R   0.035670 0.000000 0.443050 -0.625818
O20   O     O_R   0.464330 0.500000 0.556950 -0.617340
O21   O     O_R   0.535670 0.500000 0.443050 -0.625825
O22   O     O_R   0.035630 0.000000 0.628230 -0.597256
O23   O     O_R   0.063150 0.964330 0.063130 -0.605170
O24   O     O_R   0.964370 0.000000 0.371770 -0.600812
O25   O     O_R   0.535630 0.500000 0.628230 -0.597156
O26   O     O_R   0.464370 0.500000 0.371770 -0.600811
O27   O     O_R   0.499940 0.063120 0.447680 -0.590862
O28   O     O_R   0.500060 0.936880 0.552320 -0.591422
O29   O     O_R   0.500060 0.063120 0.552320 -0.590842
O30   O     O_R   0.499940 0.936880 0.447680 -0.590159
O31   O     O_R   0.999940 0.563120 0.447680 -0.590861
O32   O     O_R   0.000060 0.436880 0.552320 -0.591423
O33   O     O_R   0.000060 0.563120 0.552320 -0.590841
O34   O     O_R   0.936850 0.035670 0.936870 -0.599512
O35   O     O_R   0.999940 0.436880 0.447680 -0.590161
O36   O     O_R   0.563110 0.000000 0.510830 -0.590268
O37   O     O_R   0.436890 0.000000 0.489170 -0.590911
O38   O     O_R   0.063110 0.500000 0.510830 -0.590270
O39   O     O_R   0.936890 0.500000 0.489170 -0.590912
O40   O     O_R   0.563120 0.000000 0.615390 -0.591281
O41   O     O_R   0.436880 0.000000 0.384610 -0.590835
O42   O     O_R   0.063120 0.500000 0.615390 -0.591280
O43   O     O_R   0.936880 0.500000 0.384610 -0.590835
O44   O     O_3   0.956060 0.925953 0.772526 -0.801252
O45   O     O_R   0.436850 0.464330 0.936870 -0.604445
O46   O     O_3   0.959575 0.070414 0.159739 -0.785106
O47   O     O_3   0.043069 0.925904 0.229436 -0.782383
O48   O     O_3   0.033536 0.074619 0.832941 -0.822030
O49   O     O_3   0.455814 0.426119 0.772309 -0.801359
O50   O     O_3   0.459564 0.570409 0.159726 -0.785108
O51   O     O_3   0.543076 0.425909 0.229445 -0.782385
O52   O     O_3   0.533870 0.574469 0.833259 -0.822222
O53   O     O_3   0.913518 0.991493 0.714683 -0.736846
O54   O     O_3   0.037111 0.076750 0.228522 -0.729881
O55   O     O_3   0.085754 0.992016 0.276774 -0.819829
O56   O     O_R   0.563150 0.535670 0.063130 -0.590263
O57   O     O_3   0.954237 0.072068 0.760961 -0.779757
O58   O     O_3   0.413523 0.491822 0.714725 -0.736720
O59   O     O_3   0.537100 0.576754 0.228515 -0.729869
O60   O     O_3   0.585753 0.492027 0.276766 -0.819830
O61   O     O_3   0.454558 0.572235 0.761271 -0.779520
O62   O     O_R   0.563150 0.464330 0.063130 -0.605236
O63   O     O_R   0.436850 0.535670 0.936870 -0.599448
O64   O     O_R   0.999990 0.964330 0.907390 -0.587540
Zn1   Zn    Zn3+2 0.000000 0.952370 0.000000 1.014744
Zn2   Zn    Zn3+2 0.500030 0.000000 0.569830 0.975259
Zn3   Zn    Zn3+2 0.999970 0.500000 0.430170 0.977283
Zn4   Zn    Zn3+2 0.000030 0.500000 0.569830 0.975260
Zn5   Zn    Zn3+2 0.000000 0.047630 0.000000 1.035675
Zn6   Zn    Zn3+2 0.500000 0.452370 0.000000 1.014700
Zn7   Zn    Zn3+2 0.500000 0.547630 0.000000 1.035730
Zn8   Zn    Zn3+2 0.952370 0.000000 0.452390 0.958078
Zn9   Zn    Zn3+2 0.047630 0.000000 0.547610 0.958039
Zn10  Zn    Zn3+2 0.452370 0.500000 0.452390 0.958019
Zn11  Zn    Zn3+2 0.547630 0.500000 0.547610 0.958064
Zn12  Zn    Zn3+2 0.499970 0.000000 0.430170 0.977286

loop_
_geom_bond_atom_site_label_1
_geom_bond_atom_site_label_2
_ccdc_geom_bond_type
C78   C87   S    
O39   Zn4   S    
C99   C103  S    
C27   C98   S    
O3    Zn1   S    
C16   C21   T    
C29   O19   A    
H32   N10   S    
C89   C102  S    
C88   N15   S    
H37   N12   S    
C24   C42   S    
C82   C99   S    
C7    C83   T    
C91   C104  S    
C45   C93   S    
C25   C43   S    
C30   O25   A    
O45   Zn6   S    
C34   O33   A    
C26   C44   S    
C90   C95   S    
C104  N8    S    
O19   Zn9   S    
C54   C60   T    
H61   N8    S    
C6    C72   T    
C48   C97   S    
C37   O37   A    
C59   C64   S    
C29   O24   A    
H42   N15   S    
C71   O53   S    
O4    Zn5   S    
O36   Zn12  S    
C90   H3    S    
C31   O21   A    
C19   C36   S    
H16   O51   S    
C33   O28   A    
C43   C52   T    
O25   Zn11  S    
C87   H62   S    
C5    C17   S    
C10   C94   T    
C49   C54   S    
C27   O18   A    
C55   C62   T    
C30   C100  S    
C38   O38   A    
C100  C104  S    
C81   H12   S    
C71   O44   S    
C41   C49   T    
C47   O8    A    
C9    C13   T    
O17   Zn10  S    
C73   O46   S    
C48   O7    A    
H31   N10   S    
C25   O14   A    
H54   N5    S    
H36   N12   S    
C91   C96   S    
C87   C101  S    
O20   Zn10  S    
C44   C53   T    
O23   Zn1   S    
O18   Zn8   S    
C46   C95   S    
C12   C16   S    
C35   C70   S    
C78   O51   S    
H55   N6    S    
H22   O58   S    
C86   N13   S    
C47   C96   S    
H21   O57   S    
C1    O34   A    
O33   Zn4   S    
C46   O3    A    
C35   O32   A    
C36   O40   A    
C48   O6    A    
C2    C61   S    
O40   Zn2   S    
C42   C51   T    
C38   O42   A    
H19   O54   S    
O38   Zn3   S    
C88   H63   S    
C37   O41   A    
C84   H34   S    
O27   Zn12  S    
C103  N3    S    
O35   Zn3   S    
O5    Zn6   S    
O31   Zn3   S    
C36   O36   A    
C82   N10   S    
O11   Zn9   S    
C11   C15   S    
C80   N1    S    
C74   C82   S    
C2    C11   T    
H51   N4    S    
C45   O64   A    
C73   C81   S    
C39   O56   A    
H26   O61   S    
C92   C97   S    
H40   N14   S    
C102  N4    S    
C15   C20   T    
C82   H23   S    
C63   C67   T    
C8    C72   S    
O7    Zn6   S    
C29   C99   S    
C40   O39   A    
O9    Zn8   S    
C17   O23   A    
C26   O17   A    
H35   N11   S    
O13   Zn8   S    
O2    Zn5   S    
C10   C14   S    
H20   O55   S    
C62   C66   S    
O32   Zn4   S    
C21   C38   S    
H9    O44   S    
H46   N16   S    
H58   N7    S    
O62   Zn6   S    
O10   Zn9   S    
C98   C102  S    
O1    Zn1   S    
C80   H1    S    
H52   N4    S    
C45   O4    A    
C78   O60   S    
C4    C50   T    
C3    C92   S    
C91   H5    S    
C28   O63   A    
C91   H8    S    
C47   O5    A    
C84   N11   S    
O42   Zn4   S    
C89   H64   S    
H10   O46   S    
C75   O57   S    
C87   N14   S    
C103  N2    S    
C39   O62   A    
H48   N2    S    
C60   C65   S    
C3    N6    S    
H33   N11   S    
C1    C4    S    
C24   O10   A    
H44   N16   S    
H17   O52   S    
C22   C40   S    
H59   N7    S    
H49   N3    S    
C78   C97   S    
C5    C61   T    
O29   Zn2   S    
H39   N13   S    
C88   C100  S    
C46   O2    A    
C77   C97   S    
C26   O15   A    
H47   N2    S    
C34   C69   S    
C90   H2    S    
C76   O49   S    
C79   C88   S    
C9    C83   S    
C32   C67   S    
C32   O29   A    
C13   C18   S    
C3    N7    S    
H29   N9    S    
H25   O60   S    
O22   Zn9   S    
C24   O13   A    
C77   C86   S    
O6    Zn7   S    
H28   N1    S    
C73   C95   S    
O28   Zn2   S    
C23   O9    A    
C64   C68   T    
O14   Zn10  S    
C30   O20   A    
O64   Zn1   S    
C75   C93   S    
O16   Zn11  S    
O43   Zn3   S    
O21   Zn11  S    
H43   N15   S    
C58   C63   S    
C32   O27   A    
H27   N1    S    
O56   Zn7   S    
C53   C57   S    
C102  N16   S    
C80   C98   S    
C77   O59   S    
H11   O47   S    
C14   C19   T    
C50   C94   S    
O41   Zn12  S    
H57   N6    S    
C74   O47   S    
O30   Zn12  S    
C35   O35   A    
C79   O52   S    
C71   C80   S    
C33   O30   A    
C3    C101  S    
C92   H7    S    
C104  N5    S    
C71   C93   S    
C76   O58   S    
C1    O1    A    
O26   Zn10  S    
O8    Zn7   S    
C81   C99   S    
H13   O48   S    
C23   C41   S    
C34   O31   A    
H15   O50   S    
C84   C98   S    
C27   O22   A    
C40   O43   A    
C18   C22   T    
C81   N9    S    
C73   O54   S    
C85   C100  S    
C76   C96   S    
C20   C37   S    
H14   O49   S    
C92   H6    S    
C66   C70   T    
C31   O26   A    
C31   C101  S    
C85   N12   S    
C65   C69   T    
O12   Zn5   S    
C89   H4    S    
C77   O50   S    
H41   N14   S    
O34   Zn5   S    
C56   C58   T    
H50   N3    S    
H60   N8    S    
C51   C55   S    
H30   N9    S    
C89   C93   S    
C75   O48   S    
C75   C84   S    
C85   H45   S    
C90   C103  S    
C57   C59   T    
O15   Zn11  S    
C79   O61   S    
C52   C56   S    
C6    C28   S    
C79   C96   S    
H38   N13   S    
C74   C95   S    
O37   Zn2   S    
C28   O45   A    
C23   O11   A    
C25   O16   A    
H24   O59   S    
C7    C39   S    
C17   O12   A    
H18   O53   S    
O24   Zn8   S    
C74   O55   S    
C86   C101  S    
C86   H56   S    
C76   C85   S    
C8    C12   T    
C33   C68   S    
H53   N5    S    
O63   Zn7   S    
