data_mof_unit_65980.cif
_audit_creation_date              2012-12-10T18:16:15-0500
_audit_creation_method            fapswitch 2.2
_symmetry_space_group_name_H-M    P1
_symmetry_Int_Tables_number       1
_space_group_crystal_system       triclinic
_cell_length_a                    15.895096
_cell_length_b                    14.674884
_cell_length_c                    10.649807
_cell_angle_alpha                 89.758708
_cell_angle_beta                  90.099434
_cell_angle_gamma                 90.022254
_cell_volume                      2484.13407926

loop_
_atom_site_label
_atom_site_type_symbol
_atom_type_description
_atom_site_fract_x
_atom_site_fract_y
_atom_site_fract_z
_atom_type_partial_charge
C1    C     C_R   0.339730 0.499983 0.499761 0.821086
C2    C     C_3   0.500158 0.500717 0.122107 -0.036134
C3    C     C_3   0.048773 0.591346 0.551257 -0.357894
C4    C     C_3   0.048711 0.421275 0.582719 -0.362523
C5    C     C_3   0.951211 0.421295 0.582664 -0.371215
C6    C     C_3   0.951275 0.591367 0.551204 -0.378967
C7    C     C_1   0.749729 0.500016 0.499451 -0.141488
C8    C     C_3   0.082578 0.499919 0.499393 0.298655
C9    C     C_3   0.917270 0.499955 0.499305 0.299941
C10   C     C_3   0.951028 0.487176 0.364088 -0.354663
C11   C     C_3   0.048537 0.487154 0.364142 -0.382123
C12   C     C_1   0.825214 0.499988 0.499321 -0.093343
C13   C     C_1   0.174640 0.499918 0.499491 -0.093289
C14   C     C_R   0.499901 0.500232 0.258636 0.826264
C15   C     C_1   0.250128 0.499943 0.499622 -0.145382
C16   C     C_3   0.589049 0.053173 0.526296 -0.432752
C17   C     C_3   0.589046 0.946765 0.526302 -0.440088
C18   C     C_3   0.466753 0.053576 0.378150 -0.335740
C19   C     C_3   0.466754 0.947166 0.378148 -0.342057
C20   C     C_3   0.499137 0.091953 0.505191 0.099308
C21   C     C_3   0.499134 0.908036 0.505190 0.106778
C22   C     C_3   0.441941 0.945697 0.612334 0.134454
C23   C     C_3   0.441947 0.053591 0.612341 0.129553
C24   C     C_1   0.500816 0.804843 0.503698 0.155131
C25   C     C_1   0.500819 0.195152 0.503698 0.169315
C26   C     C_R   0.660136 0.500011 0.499670 0.846638
C27   C     C_R   0.500088 0.499769 0.741093 0.799665
C28   C     C_3   0.498710 0.586785 0.039656 -0.167860
C29   C     C_3   0.431882 0.455443 0.041797 -0.212127
C30   C     C_3   0.430357 0.541478 0.957280 -0.149554
C31   C     C_3   0.500330 0.499253 0.877590 -0.030267
C32   C     C_3   0.568748 0.544595 0.957534 -0.194404
C33   C     C_3   0.501828 0.413024 0.959713 -0.145678
C34   C     C_3   0.569444 0.458931 0.041674 0.287278
Cu1   Cu    Cu3+1 0.499910 0.589920 0.499840 0.991387
Cu2   Cu    Cu3+1 0.499910 0.410080 0.499840 1.014109
H1    H     H_    0.373211 0.575330 0.919340 0.148100
H2    H     H_    0.927608 0.543018 0.302219 0.172928
H3    H     H_    0.927558 0.421781 0.324645 0.182909
H4    H     H_    0.631821 0.921927 0.451250 0.189950
H5    H     H_    0.631820 0.078502 0.451236 0.195820
H6    H     H_    0.402101 0.078865 0.358637 0.209625
H7    H     H_    0.402103 0.921940 0.358626 0.209900
H8    H     H_    0.507368 0.078819 0.300416 0.166587
H9    H     H_    0.507373 0.922435 0.300416 0.158758
H10   H     H_    0.469155 0.076122 0.703460 0.095416
H11   H     H_    0.469139 0.922623 0.703455 0.094042
H12   H     H_    0.614615 0.078086 0.617235 0.170651
H13   H     H_    0.614608 0.921322 0.617246 0.168427
H14   H     H_    0.497292 0.657883 0.074796 0.157250
H15   H     H_    0.375892 0.419233 0.079234 0.151437
H16   H     H_    0.624921 0.580552 0.920236 0.150205
H17   H     H_    0.503550 0.341883 0.924756 0.165824
H18   H     H_    0.927987 0.602125 0.648532 0.169305
H19   H     H_    0.927919 0.428978 0.680560 0.172896
H20   H     H_    0.072254 0.602096 0.648609 0.172368
H21   H     H_    0.072190 0.428955 0.680640 0.170366
H22   H     H_    0.072034 0.354677 0.547253 0.183060
H23   H     H_    0.072139 0.649064 0.492794 0.179813
H24   H     H_    0.927757 0.354708 0.547164 0.175739
H25   H     H_    0.927866 0.649093 0.492714 0.170889
H26   H     H_    0.071896 0.542987 0.302294 0.169429
H27   H     H_    0.071850 0.421745 0.324729 0.173712
N1    N     N_1   0.501390 0.724970 0.502570 -0.144847
N2    N     N_1   0.501390 0.275030 0.502570 -0.138751
O1    O     O_R   0.379360 0.575970 0.499860 -0.560034
O2    O     O_R   0.379360 0.424030 0.499860 -0.562373
O3    O     O_R   0.499910 0.575920 0.316720 -0.588692
O4    O     O_R   0.499910 0.424080 0.316720 -0.558794
O5    O     O_R   0.620490 0.575900 0.499870 -0.582468
O6    O     O_R   0.620490 0.424100 0.499870 -0.560316
O7    O     O_R   0.499950 0.575950 0.683010 -0.575170
O8    O     O_R   0.499950 0.424050 0.683010 -0.579982
Br1   Br    Br    0.329996 0.110073 0.608647 -0.464527
Br2   Br    Br    0.329982 0.889158 0.608610 -0.465501
Br3   Br    Br    0.669971 0.399975 0.105214 -0.555964

loop_
_geom_bond_atom_site_label_1
_geom_bond_atom_site_label_2
_ccdc_geom_bond_type
C8    C13   S    
Cu1   Cu2   S    
C4    C8    S    
C11   H26   S    
C16   H12   S    
C6    C9    S    
Cu2   O2    S    
C7    C26   S    
C2    C29   S    
C6    H25   S    
C19   C21   S    
C11   H27   S    
C18   H6    S    
C30   C31   S    
C20   C25   S    
C29   C33   S    
C18   C19   S    
C32   H16   S    
C28   H14   S    
Cu1   O5    S    
C16   C17   S    
C4    H21   S    
C31   C33   S    
Cu1   N1    S    
C1    C15   S    
C9    C10   S    
Cu2   O6    S    
C2    C34   S    
C22   H11   S    
C24   N1    T    
C23   H10   S    
C21   C22   S    
C26   O6    A    
C22   Br2   S    
C6    H18   S    
C19   H7    S    
C33   C34   S    
C33   H17   S    
C7    C12   T    
C27   C31   S    
C28   C32   S    
C25   N2    T    
C3    C8    S    
Cu2   O8    S    
C17   H13   S    
Cu2   N2    S    
Cu1   O1    S    
C17   C21   S    
C30   H1    S    
C10   H3    S    
C17   H4    S    
C32   C34   S    
C5    C9    S    
C29   C30   S    
C18   H8    S    
C3    H20   S    
C31   C32   S    
C20   C23   S    
C16   C20   S    
C1    O1    A    
Cu1   O7    S    
C13   C15   T    
C26   O5    A    
C14   O4    A    
C23   Br1   S    
Cu2   O4    S    
C29   H15   S    
C5    H24   S    
C3    C6    S    
C5    H19   S    
C4    C5    S    
C19   H9    S    
C10   H2    S    
C28   C30   S    
Cu1   O3    S    
C8    C11   S    
C1    O2    A    
C18   C20   S    
C2    C14   S    
C9    C12   S    
C10   C11   S    
C21   C24   S    
C4    H22   S    
C14   O3    A    
C22   C23   S    
C2    C28   S    
C27   O8    A    
C16   H5    S    
C27   O7    A    
C34   Br3   S    
C3    H23   S    
