data_mof_unit_47680.cif
_audit_creation_date              2012-12-10T18:57:08-0500
_audit_creation_method            fapswitch 2.2
_symmetry_space_group_name_H-M    P1
_symmetry_Int_Tables_number       1
_space_group_crystal_system       triclinic
_cell_length_a                    10.724331
_cell_length_b                    9.911779
_cell_length_c                    10.745982
_cell_angle_alpha                 89.996656
_cell_angle_beta                  91.386625
_cell_angle_gamma                 90.001096
_cell_volume                      1141.93328786

loop_
_atom_site_label
_atom_site_type_symbol
_atom_type_description
_atom_site_fract_x
_atom_site_fract_y
_atom_site_fract_z
_atom_type_partial_charge
C1    C     C_R   0.260113 0.500118 0.500580 0.892337
C2    C     C_R   0.739888 0.500120 0.499439 0.892587
C3    C     C_R   0.594732 0.069410 0.558778 0.003783
C4    C     C_R   0.405261 0.069410 0.441232 0.004398
C5    C     C_R   0.594525 0.926524 0.555978 -0.091964
C6    C     C_R   0.405470 0.926525 0.444036 -0.091705
C7    C     C_R   0.498930 0.499883 0.260613 0.933603
C8    C     C_R   0.501036 0.499875 0.739385 0.934003
C9    C     C_R   0.497290 0.617307 0.062042 0.055928
C10   C     C_R   0.502972 0.617286 0.937940 0.055916
C11   C     C_R   0.497647 0.498283 0.129245 -0.080648
C12   C     C_R   0.502151 0.498264 0.870746 -0.080358
C13   C     C_R   0.498823 0.374816 0.064526 -0.158207
C14   C     C_R   0.500359 0.374808 0.935462 -0.158569
C15   C     C_3   0.503586 0.767908 0.928120 -0.271351
C16   C     C_3   0.497653 0.767934 0.071854 -0.271144
C17   C     C_R   0.063764 0.378134 0.501809 -0.172693
C18   C     C_R   0.936227 0.378137 0.498081 -0.172723
C19   C     C_R   0.872468 0.500803 0.498828 -0.023301
C20   C     C_R   0.127532 0.500800 0.501235 -0.023365
C21   C     C_R   0.936081 0.623969 0.499972 -0.163525
C22   C     C_R   0.063928 0.623969 0.500301 -0.163408
H1    H     H_    0.498759 0.278746 0.112591 0.217047
H2    H     H_    0.500002 0.278739 0.887395 0.216385
H3    H     H_    0.418961 0.807199 0.878238 0.149016
H4    H     H_    0.582530 0.806585 0.121739 0.149097
H5    H     H_    0.111880 0.282431 0.505074 0.189145
H6    H     H_    0.888104 0.282438 0.494665 0.189134
H7    H     H_    0.887639 0.719908 0.500305 0.177573
H8    H     H_    0.112377 0.719908 0.500125 0.177595
H9    H     H_    0.669070 0.870022 0.601296 0.179195
H10   H     H_    0.330919 0.870022 0.398738 0.179191
N1    N     N_R   0.500000 0.857200 0.500000 -0.115249
N2    N     N_R   0.500000 0.142810 0.500000 -0.161007
O1    O     O_R   0.316770 0.614620 0.499990 -0.630839
O2    O     O_R   0.683230 0.614620 0.500010 -0.630799
O3    O     O_R   0.316800 0.385290 0.500000 -0.622073
O4    O     O_R   0.683200 0.385290 0.500000 -0.622083
O5    O     O_R   0.500000 0.614690 0.316780 -0.617395
O6    O     O_R   0.500000 0.614690 0.683220 -0.617508
O7    O     O_R   0.500020 0.385360 0.316780 -0.590351
O8    O     O_R   0.499980 0.385360 0.683220 -0.590478
Zn1   Zn    Zn3+2 0.500000 0.653120 0.500000 0.977099
Zn2   Zn    Zn3+2 0.500000 0.346880 0.500000 1.014920
C23   C     C_2   0.623734 0.825442 0.881338 0.952277
O9    O     O_2   0.639750 0.947503 0.883859 -0.618085
O10   O     O_R   0.716094 0.740681 0.835122 -0.791985
H11   H     H_    0.791699 0.792362 0.806297 0.345817
C24   C     C_2   0.377872 0.826379 0.118606 0.952538
O11   O     O_2   0.362748 0.948577 0.116300 -0.618677
O12   O     O_R   0.284813 0.742294 0.164492 -0.791952
H12   H     H_    0.209516 0.794546 0.193245 0.345868
C25   C     C_2   0.700052 0.131807 0.628768 0.951159
O13   O     O_2   0.682877 0.224584 0.700659 -0.576633
O14   O     O_R   0.819017 0.074867 0.621191 -0.845146
H13   H     H_    0.882879 0.121419 0.677519 0.349703
C26   C     C_2   0.299925 0.131797 0.371249 0.950684
O15   O     O_2   0.317068 0.224644 0.299418 -0.576824
O16   O     O_R   0.180986 0.074773 0.378761 -0.845546
H14   H     H_    0.117117 0.121317 0.322432 0.349594

loop_
_geom_bond_atom_site_label_1
_geom_bond_atom_site_label_2
_ccdc_geom_bond_type
C4    C26   S    
C5    H9    S    
C6    H10   S    
O14   H13   S    
O4    Zn2   S    
C13   C14   A    
O1    Zn1   S    
C9    C10   A    
C2    O4    A    
O10   H11   S    
C6    N1    A    
C1    O3    A    
C8    C12   S    
O3    Zn2   S    
C25   O14   S    
C17   C18   A    
O2    Zn1   S    
N2    Zn2   S    
O16   H14   S    
C23   O9    D    
C7    C11   S    
C3    C25   S    
C9    C11   A    
C26   O15   D    
O8    Zn2   S    
C10   C12   A    
C19   C21   A    
C9    C16   S    
C20   C22   A    
C18   C19   A    
C10   C15   S    
C7    O7    A    
C16   H4    S    
O7    Zn2   S    
C4    N2    A    
C26   O16   S    
C15   H3    S    
C15   C23   S    
C14   H2    S    
O12   H12   S    
C17   H5    S    
C12   C14   A    
C11   C13   A    
C17   C20   A    
C18   H6    S    
C16   C24   S    
C13   H1    S    
C4    C6    A    
C24   O11   D    
C23   O10   S    
C2    O2    A    
C8    O6    A    
C1    O1    A    
C7    O5    A    
C1    C20   S    
O5    Zn1   S    
C22   H8    S    
C3    N2    A    
C3    C5    A    
C2    C19   S    
C21   C22   A    
N1    Zn1   S    
C21   H7    S    
O6    Zn1   S    
C15   C16   S    
C25   O13   D    
C8    O8    A    
C24   O12   S    
C5    N1    A    
