data_mof_unit_40692.cif
_audit_creation_date              2012-12-10T18:04:44-0500
_audit_creation_method            fapswitch 2.2
_symmetry_space_group_name_H-M    P1
_symmetry_Int_Tables_number       1
_space_group_crystal_system       triclinic
_cell_length_a                    19.382974
_cell_length_b                    17.795294
_cell_length_c                    12.608783
_cell_angle_alpha                 90.212869
_cell_angle_beta                  99.158111
_cell_angle_gamma                 89.549443
_cell_volume                      4293.50907022

loop_
_atom_site_label
_atom_site_type_symbol
_atom_type_description
_atom_site_fract_x
_atom_site_fract_y
_atom_site_fract_z
_atom_type_partial_charge
C1    C     C_R   0.411783 0.103420 0.444180 0.836974
C2    C     C_R   0.788698 0.798270 0.639646 0.164539
C3    C     C_R   0.197524 0.804160 0.584619 0.145132
C4    C     C_R   0.288701 0.298278 0.639629 0.164537
C5    C     C_R   0.223609 0.875935 0.576397 -0.174822
C6    C     C_R   0.357027 0.270641 0.661245 -0.278536
C7    C     C_R   0.723610 0.375935 0.576394 -0.174819
C8    C     C_R   0.857021 0.770625 0.661271 -0.278539
C9    C     C_R   0.273152 0.888591 0.510652 -0.161272
C10   C     C_R   0.384035 0.229241 0.583273 -0.212576
C11   C     C_R   0.773152 0.388590 0.510649 -0.161273
C12   C     C_R   0.409164 0.899417 0.442252 0.843278
C13   C     C_R   0.884033 0.729230 0.583298 -0.212519
C14   C     C_R   0.689811 0.174176 0.528993 -0.228744
C15   C     C_R   0.680809 0.814754 0.516240 -0.266799
C16   C     C_R   0.189811 0.674177 0.528994 -0.228745
C17   C     C_R   0.180803 0.314746 0.516240 -0.266798
C18   C     C_R   0.615494 0.222242 0.651344 -0.188225
C19   C     C_R   0.689569 0.860187 0.698572 -0.176608
C20   C     C_R   0.115493 0.722242 0.651344 -0.188219
C21   C     C_R   0.189576 0.360198 0.698564 -0.176614
C22   C     C_R   0.360180 0.838859 0.407415 -0.117921
C23   C     C_R   0.911785 0.603422 0.444182 0.836962
C24   C     C_R   0.363286 0.164380 0.408060 -0.117376
C25   C     C_R   0.860181 0.338857 0.407415 -0.117922
C26   C     C_R   0.863295 0.664390 0.408067 -0.117399
C27   C     C_R   0.644933 0.005265 0.135401 -0.275546
C28   C     C_R   0.144933 0.505267 0.135401 -0.275542
C29   C     C_R   0.378077 0.996482 0.765254 0.530756
C30   C     C_R   0.878077 0.496483 0.765252 0.530779
C31   C     C_R   0.354391 0.976355 0.860529 0.354861
C32   C     C_R   0.854391 0.476354 0.860528 0.354824
C33   C     C_R   0.591349 0.899857 0.557345 0.864641
C34   C     C_R   0.909165 0.399416 0.442252 0.843277
C35   C     C_R   0.589900 0.101173 0.556908 0.849945
C36   C     C_R   0.091349 0.399857 0.557345 0.864638
C37   C     C_R   0.089900 0.601173 0.556908 0.849940
C38   C     C_R   0.403387 0.970880 0.954388 -0.402502
C39   C     C_R   0.903386 0.470881 0.954387 -0.402490
C40   C     C_R   0.474252 0.987236 0.953207 -0.034785
C41   C     C_R   0.974252 0.487238 0.953206 -0.034780
C42   C     C_R   0.496368 0.996598 0.853059 0.084697
C43   C     C_R   0.996368 0.496600 0.853059 0.084697
C44   C     C_R   0.523874 0.992419 0.047619 0.016736
C45   C     C_R   0.719177 0.244671 0.521518 0.074247
C46   C     C_R   0.023874 0.492422 0.047619 0.016733
C47   C     C_R   0.596145 0.000362 0.040870 0.130141
C48   C     C_R   0.096144 0.500365 0.040870 0.130141
C49   C     C_R   0.617544 0.004268 0.939990 0.078780
C50   C     C_R   0.117544 0.504272 0.939990 0.078782
C51   C     C_R   0.567753 0.002125 0.847918 -0.195271
C52   C     C_R   0.067753 0.502127 0.847918 -0.195271
C53   C     C_R   0.503670 0.994011 0.149344 -0.042286
C54   C     C_R   0.003670 0.494012 0.149344 -0.042290
C55   C     C_R   0.621601 0.004598 0.233534 0.000370
C56   C     C_R   0.750207 0.791277 0.534566 0.073646
C57   C     C_R   0.121601 0.504598 0.233534 0.000374
C58   C     C_R   0.647709 0.291761 0.651934 -0.170180
C59   C     C_R   0.757687 0.831945 0.721455 -0.184830
C60   C     C_R   0.147708 0.791762 0.651934 -0.170182
C61   C     C_R   0.257696 0.331959 0.721440 -0.184837
C62   C     C_R   0.634870 0.164749 0.585931 -0.030218
C63   C     C_R   0.652135 0.853351 0.594548 -0.059058
C64   C     C_R   0.134869 0.664750 0.585931 -0.030217
C65   C     C_R   0.152135 0.353351 0.594547 -0.059057
C66   C     C_R   0.378629 0.784164 0.336455 -0.189255
C67   C     C_R   0.219176 0.744672 0.521519 0.074249
C68   C     C_R   0.330408 0.164848 0.300383 -0.195711
C69   C     C_R   0.878630 0.284163 0.336455 -0.189260
C70   C     C_R   0.830426 0.664871 0.300385 -0.195701
C71   C     C_R   0.341245 0.717786 0.320545 -0.134235
C72   C     C_R   0.275407 0.214014 0.267293 -0.146017
C73   C     C_R   0.841246 0.217785 0.320546 -0.134237
C74   C     C_R   0.775431 0.714046 0.267295 -0.146012
C75   C     C_R   0.288062 0.703497 0.379852 -0.174773
C76   C     C_R   0.249346 0.258645 0.342667 -0.188823
C77   C     C_R   0.788063 0.203495 0.379853 -0.174774
C78   C     C_R   0.250202 0.291272 0.534556 0.073658
C79   C     C_R   0.749366 0.758671 0.342672 -0.188819
C80   C     C_R   0.268936 0.757857 0.452779 0.089867
C81   C     C_R   0.280650 0.256961 0.452189 0.086838
C82   C     C_R   0.768937 0.257856 0.452779 0.089867
C83   C     C_R   0.780661 0.756972 0.452199 0.086827
C84   C     C_R   0.300791 0.828941 0.456784 0.058543
C85   C     C_R   0.343727 0.217107 0.481232 0.093184
C86   C     C_R   0.800791 0.328940 0.456784 0.058546
C87   C     C_R   0.843733 0.717110 0.481246 0.093183
C88   C     C_3   0.292825 0.074638 0.682314 0.097830
C89   C     C_R   0.697525 0.304160 0.584618 0.145139
C90   C     C_3   0.239888 0.087771 0.581103 -0.827276
C91   C     C_3   0.792805 0.574617 0.682306 0.097845
C92   C     C_3   0.739902 0.587758 0.581055 -0.827274
C93   C     C_3   0.254932 0.985293 0.941294 0.081062
C94   C     C_3   0.175850 0.986219 0.909757 -0.824002
C95   C     C_3   0.754931 0.485251 0.941302 0.081063
C96   C     C_3   0.675849 0.486188 0.909757 -0.824055
H1    H     H_    0.572681 0.215046 0.696030 0.150772
H2    H     H_    0.885786 0.451180 0.026050 0.160854
H3    H     H_    0.586527 0.005113 0.773178 0.223787
H4    H     H_    0.086527 0.505115 0.773178 0.223785
H5    H     H_    0.205476 0.922063 0.621044 0.184952
H6    H     H_    0.388109 0.277339 0.740056 0.150782
H7    H     H_    0.705476 0.422064 0.621039 0.184951
H8    H     H_    0.888097 0.777314 0.740089 0.150778
H9    H     H_    0.631019 0.336879 0.700232 0.144073
H10   H     H_    0.786552 0.837939 0.801963 0.157088
H11   H     H_    0.131017 0.836880 0.700232 0.144080
H12   H     H_    0.667477 0.890091 0.760145 0.176575
H13   H     H_    0.286567 0.337962 0.801942 0.157094
H14   H     H_    0.705745 0.126093 0.486384 0.139588
H15   H     H_    0.647971 0.805370 0.439865 0.152033
H16   H     H_    0.205746 0.626094 0.486386 0.139588
H17   H     H_    0.147959 0.305356 0.439872 0.152026
H18   H     H_    0.423610 0.791437 0.296445 0.159433
H19   H     H_    0.345993 0.125780 0.242309 0.150158
H20   H     H_    0.923611 0.291436 0.296445 0.159432
H21   H     H_    0.846012 0.625809 0.242305 0.150165
H22   H     H_    0.762323 0.150172 0.365122 0.128030
H23   H     H_    0.072680 0.715046 0.696029 0.150772
H24   H     H_    0.705654 0.794916 0.313135 0.137827
H25   H     H_    0.262320 0.650174 0.365120 0.128030
H26   H     H_    0.205629 0.294883 0.313130 0.137827
H27   H     H_    0.355499 0.675760 0.265445 0.152289
H28   H     H_    0.250802 0.215026 0.183964 0.143452
H29   H     H_    0.855501 0.175759 0.265445 0.152289
H30   H     H_    0.750833 0.715069 0.183963 0.143453
H31   H     H_    0.289666 0.945557 0.500897 0.201856
H32   H     H_    0.436153 0.205939 0.603970 0.160951
H33   H     H_    0.789666 0.445554 0.500891 0.201853
H34   H     H_    0.167489 0.390107 0.760136 0.176576
H35   H     H_    0.936149 0.705923 0.604001 0.160959
H36   H     H_    0.658527 0.008498 0.307309 0.135203
H37   H     H_    0.158526 0.508498 0.307309 0.135204
H38   H     H_    0.328916 0.123014 0.694562 0.150473
H39   H     H_    0.263221 0.072939 0.750720 0.155923
H40   H     H_    0.198019 0.045226 0.573959 0.231856
H41   H     H_    0.215131 0.143868 0.585177 0.222388
H42   H     H_    0.265594 0.084711 0.508741 0.257443
H43   H     H_    0.828882 0.623009 0.694616 0.150403
H44   H     H_    0.763165 0.572882 0.750676 0.155984
H45   H     H_    0.700395 0.010180 0.134830 0.183146
H46   H     H_    0.698025 0.545221 0.573870 0.231822
H47   H     H_    0.715152 0.643860 0.585108 0.222394
H48   H     H_    0.765635 0.584694 0.508720 0.257456
H49   H     H_    0.272213 0.044107 0.960772 0.116752
H50   H     H_    0.268102 0.949407 0.013759 0.159456
H51   H     H_    0.156562 0.928223 0.891700 0.260421
H52   H     H_    0.151285 0.009395 0.976769 0.211872
H53   H     H_    0.160566 0.021800 0.837530 0.246216
H54   H     H_    0.772214 0.544060 0.960818 0.116770
H55   H     H_    0.768096 0.449341 0.013742 0.159483
H56   H     H_    0.200394 0.510182 0.134829 0.183147
H57   H     H_    0.656556 0.428200 0.891654 0.260425
H58   H     H_    0.651281 0.509338 0.976781 0.211886
H59   H     H_    0.660570 0.521799 0.837560 0.246194
H60   H     H_    0.449974 0.992954 0.161779 0.121647
H61   H     H_    0.949974 0.492956 0.161779 0.121649
H62   H     H_    0.385786 0.951181 0.026051 0.160863
I1    I     I_    0.723341 0.019010 0.918084 -0.453679
I2    I     I_    0.223340 0.519018 0.918084 -0.453683
N1    N     N_R   0.552340 0.000000 0.237260 -0.104724
N2    N     N_R   0.052340 0.500000 0.237260 -0.104725
N3    N     N_R   0.448170 0.000000 0.762060 -0.185147
N4    N     N_R   0.948170 0.500000 0.762060 -0.185136
O1    O     O_R   0.448200 0.076800 0.373930 -0.611881
O2    O     O_R   0.585240 0.076800 0.457600 -0.613275
O3    O     O_R   0.085240 0.423200 0.457600 -0.613972
O4    O     O_R   0.085240 0.576800 0.457600 -0.613275
O5    O     O_R   0.551780 0.923190 0.626070 -0.627243
O6    O     O_R   0.551780 0.076810 0.626070 -0.643817
O7    O     O_R   0.051780 0.423190 0.626070 -0.627243
O8    O     O_R   0.051780 0.576810 0.626070 -0.643821
O9    O     O_3   0.330771 0.007333 0.672402 -0.583604
O10   O     O_3   0.830773 0.507327 0.672395 -0.583597
O11   O     O_3   0.285080 0.954871 0.855422 -0.590234
O12   O     O_R   0.448200 0.923200 0.373930 -0.622561
O13   O     O_3   0.785082 0.454858 0.855417 -0.590264
O14   O     O_R   0.948200 0.576800 0.373930 -0.611881
O15   O     O_R   0.948200 0.423200 0.373930 -0.622561
O16   O     O_R   0.414750 0.076790 0.542400 -0.581239
O17   O     O_R   0.414750 0.923210 0.542400 -0.558905
O18   O     O_R   0.914750 0.576790 0.542400 -0.581223
O19   O     O_R   0.914750 0.423210 0.542400 -0.558894
O20   O     O_R   0.585240 0.923200 0.457600 -0.613975
Zn1   Zn    Zn3+2 0.522330 0.000000 0.387520 0.937683
Zn2   Zn    Zn3+2 0.022330 0.500000 0.387520 0.937683
Zn3   Zn    Zn3+2 0.477660 0.000000 0.612480 0.966854
Zn4   Zn    Zn3+2 0.977660 0.500000 0.612480 0.966864

loop_
_geom_bond_atom_site_label_1
_geom_bond_atom_site_label_2
_ccdc_geom_bond_type
C83   C87   A    
C13   C87   A    
C10   C85   A    
C8    C13   A    
O2    Zn1   S    
C29   N3    A    
C95   H54   S    
C95   C96   S    
C30   N4    A    
C80   C84   A    
C61   H13   S    
C37   C64   S    
C37   O8    A    
O17   Zn3   S    
C17   H17   S    
O12   Zn1   S    
C39   C41   A    
O15   Zn2   S    
C31   O11   S    
C28   C57   A    
C94   H53   S    
C7    C11   A    
C9    H31   S    
O7    Zn4   S    
C71   H27   S    
C55   N1    A    
C1    O16   A    
C27   C55   A    
C43   C52   A    
C32   C39   A    
C96   H59   S    
C70   H21   S    
C14   C62   A    
C12   C22   S    
C35   O2    A    
O20   Zn1   S    
N3    Zn3   S    
C4    C78   A    
C23   C26   S    
C92   H47   S    
C69   H20   S    
C23   O14   A    
N1    Zn1   S    
C44   C53   A    
C95   O13   S    
C96   H58   S    
C57   N2    A    
C45   C82   A    
C19   C63   A    
C26   C87   A    
C49   C51   A    
O6    Zn3   S    
C70   C74   A    
C50   C52   A    
C41   C46   A    
C69   C73   A    
C18   H1    S    
C20   C60   A    
C92   H46   S    
C24   C85   A    
C21   C61   A    
C44   C47   A    
C68   C72   A    
C42   C51   A    
C12   O12   A    
C43   N4    A    
C40   C42   A    
C33   O5    A    
C12   O17   A    
C7    H7    S    
C72   H28   S    
C51   H3    S    
C41   C43   A    
C57   H37   S    
C34   O15   A    
C10   H32   S    
C11   H33   S    
C90   H42   S    
C18   C58   A    
C14   C45   A    
C46   C48   A    
C94   H52   S    
C37   O4    A    
C5    H5    S    
C71   C75   A    
C59   H10   S    
O4    Zn2   S    
C30   C32   A    
C15   H15   S    
C93   H50   S    
O5    Zn3   S    
C23   O18   A    
C47   C49   A    
C77   H22   S    
C91   C92   S    
N2    Zn2   S    
C2    C59   A    
C18   C62   A    
C39   H2    S    
C9    C84   A    
C50   I2    S    
C82   C86   A    
O3    Zn2   S    
C4    C61   A    
C93   O11   S    
C36   O3    A    
O1    Zn1   S    
C88   O9    S    
C91   O10   S    
C22   C84   A    
C20   C64   A    
C11   C86   A    
C66   C71   A    
C5    C9    A    
O16   Zn3   S    
C90   H40   S    
C96   H57   S    
C1    O1    A    
C33   C63   S    
C79   H24   S    
C46   C54   A    
C33   O20   A    
C13   H35   S    
C34   O19   A    
C16   C67   A    
O18   Zn4   S    
C54   N2    A    
C93   H49   S    
C8    H8    S    
C38   H62   S    
C60   H11   S    
C1    C24   S    
C91   H43   S    
C4    C6    A    
C88   C90   S    
C28   H56   S    
C74   C79   A    
C26   C70   A    
C25   C86   A    
C32   O13   S    
C25   C69   A    
C3    C5    A    
C90   H41   S    
C45   C89   A    
C16   H16   S    
C56   C83   A    
C75   C80   A    
C27   C47   A    
C94   H51   S    
C14   H14   S    
C28   C48   A    
C36   O7    A    
C73   C77   A    
C66   H18   S    
C21   C65   A    
C75   H25   S    
C2    C8    A    
C67   C80   A    
C88   H39   S    
C29   O9    S    
N4    Zn4   S    
C76   C81   A    
C6    C10   A    
C22   C66   A    
C93   C94   S    
C25   C34   S    
C17   C65   A    
C31   C38   A    
C58   H9    S    
C19   C59   A    
C15   C56   A    
C36   C65   S    
C76   H26   S    
C29   C31   A    
C2    C56   A    
O19   Zn4   S    
C19   H12   S    
C54   H61   S    
C38   C40   A    
C42   N3    A    
C78   C81   A    
C53   N1    A    
C74   H30   S    
C3    C67   A    
C77   C82   A    
O8    Zn4   S    
C72   C76   A    
C73   H29   S    
C48   C50   A    
C17   C78   A    
C27   H45   S    
C52   H4    S    
C35   C62   S    
C6    H6    S    
C92   H48   S    
C58   C89   A    
C21   H34   S    
C24   C68   A    
C68   H19   S    
C88   H38   S    
C91   H44   S    
C79   C83   A    
O14   Zn2   S    
C40   C44   A    
C95   H55   S    
C53   H60   S    
C55   H36   S    
C35   O6    A    
C15   C63   A    
C49   I1    S    
C16   C64   A    
C3    C60   A    
C30   O10   S    
C20   H23   S    
C81   C85   A    
C7    C89   A    
