data_mof_unit_48087.cif
_audit_creation_date              2012-12-11T14:15:50-0500
_audit_creation_method            fapswitch 2.2
_symmetry_space_group_name_H-M    P1
_symmetry_Int_Tables_number       1
_space_group_crystal_system       triclinic
_cell_length_a                    11.166843
_cell_length_b                    12.731658
_cell_length_c                    23.534595
_cell_angle_alpha                 91.007683
_cell_angle_beta                  96.894426
_cell_angle_gamma                 68.460346
_cell_volume                      3088.52412634

loop_
_atom_site_label
_atom_site_type_symbol
_atom_type_description
_atom_site_fract_x
_atom_site_fract_y
_atom_site_fract_z
_atom_type_partial_charge
C1    C     C_R   0.150428 0.616527 0.429354 0.547498
C2    C     C_2   0.181184 0.232538 0.226952 -0.122913
C3    C     C_2   0.155114 0.164892 0.262645 -0.113222
C4    C     C_R   0.751293 0.602728 0.403517 0.541739
C5    C     C_1   0.132315 0.198267 0.320507 -0.038372
C6    C     C_1   0.210579 0.197382 0.169975 -0.042715
C7    C     C_1   0.116104 0.231533 0.368361 0.003206
C8    C     C_1   0.170803 0.759034 0.125652 0.006546
C9    C     C_2   0.136577 0.738616 0.233842 0.052021
C10   C     C_2   0.230294 0.661463 0.269581 -0.145305
C11   C     C_1   0.216898 0.644650 0.328712 0.009974
C12   C     C_R   0.688256 0.544085 0.308271 -0.127062
C13   C     C_1   0.156638 0.745005 0.174572 -0.041010
C14   C     C_1   0.194583 0.631565 0.376428 0.045660
C15   C     C_1   0.628828 0.753670 0.865334 0.017519
C16   C     C_R   0.101203 0.282079 0.423371 0.546487
C17   C     C_2   0.698304 0.696319 0.762182 -0.024376
C18   C     C_2   0.607444 0.711059 0.716839 0.109680
C19   C     C_1   0.647471 0.673498 0.661398 -0.028182
C20   C     C_1   0.663947 0.729472 0.818761 0.011538
C21   C     C_1   0.688178 0.641667 0.616461 0.006390
C22   C     C_R   0.194897 0.183818 0.855622 0.003560
C23   C     C_R   0.705593 0.728793 0.317904 -0.112710
C24   C     C_R   0.103272 0.241573 0.643604 -0.015231
C25   C     C_R   0.999034 0.181736 0.715000 0.034458
C26   C     C_R   0.011346 0.198970 0.657646 -0.134232
C27   C     C_R   0.181014 0.271343 0.686526 -0.119322
C28   C     C_R   0.148288 0.616015 0.591543 0.541868
C29   C     C_R   0.172955 0.253677 0.743284 0.024965
C30   C     C_R   0.087444 0.202336 0.758401 0.019359
C31   C     C_R   0.101426 0.165933 0.815454 -0.100331
C32   C     C_R   0.263129 0.250257 0.841231 -0.116447
C33   C     C_R   0.253258 0.284069 0.784997 -0.118460
C34   C     C_R   0.698272 0.738148 0.258490 0.045382
C35   C     C_R   0.123945 0.742574 0.854187 -0.023929
C36   C     C_R   0.182414 0.633536 0.651705 -0.006055
C37   C     C_R   0.298454 0.559731 0.744280 -0.140918
C38   C     C_R   0.287138 0.553068 0.684945 -0.151741
C39   C     C_R   0.089960 0.720020 0.678205 -0.092084
C40   C     C_R   0.749594 0.602619 0.565898 0.549241
C41   C     C_R   0.089490 0.718329 0.737036 0.019435
C42   C     C_R   0.200206 0.641631 0.770439 0.027541
C43   C     C_R   0.215417 0.653154 0.829205 -0.126569
C44   C     C_R   0.005231 0.805423 0.822833 -0.135353
C45   C     C_R   0.694883 0.646060 0.224862 0.041700
C46   C     C_R   0.984836 0.793737 0.763844 0.032755
C47   C     C_R   0.265816 0.110127 0.069460 0.540360
C48   C     C_R   0.600256 0.775241 0.081138 0.539863
C49   C     C_R   0.189542 0.788544 0.069762 0.544971
C50   C     C_R   0.240654 0.115217 0.907965 0.543660
C51   C     C_R   0.573966 0.775930 0.918321 0.547500
C52   C     C_R   0.099131 0.281383 0.585858 0.546132
C53   C     C_R   0.163283 0.785452 0.907853 0.547936
C54   C     C_R   0.668228 0.756437 0.139203 0.002224
C55   C     C_R   0.704753 0.629971 0.343037 0.011380
C56   C     C_R   0.690451 0.652944 0.166134 -0.118669
C57   C     C_R   0.687027 0.550754 0.249750 -0.140925
C58   C     C_2   0.015648 0.823666 0.252321 0.589990
C59   C     C_2   0.885685 0.153659 0.726586 0.575735
C60   C     C_2   0.853893 0.860349 0.733124 0.563602
C61   C     C_R   0.675875 0.847453 0.172105 -0.093500
C62   C     C_R   0.693374 0.837437 0.231796 -0.096467
C63   C     C_1   0.235911 0.162647 0.123137 0.001729
Cr1   Cr    Cr6+3 0.189770 0.415650 0.511620 1.032363
Cr2   Cr    Cr6+3 0.930400 0.667320 0.496770 1.052128
Cr3   Cr    Cr6+3 0.879870 0.417010 0.491650 1.034396
Cr4   Cr    Cr6+3 0.149500 0.973980 0.985330 1.051437
Cr5   Cr    Cr6+3 0.457000 0.976510 0.994660 1.044393
Cr6   Cr    Cr6+3 0.411170 0.724270 0.995270 1.025966
H1    H     H_    0.687199 0.581402 0.141110 0.132859
H2    H     H_    0.931378 0.868602 0.844078 0.181845
H3    H     H_    0.382564 0.500068 0.769705 0.118942
H4    H     H_    0.358759 0.484976 0.665204 0.134796
H5    H     H_    0.016008 0.787044 0.652310 0.199830
H6    H     H_    0.680092 0.481284 0.224000 0.113045
H7    H     H_    0.694569 0.909360 0.256794 0.122328
H8    H     H_    0.686396 0.467188 0.326424 0.145470
H9    H     H_    0.716846 0.795854 0.344433 0.123690
H10   H     H_    0.153736 0.083316 0.249005 0.153828
H11   H     H_    0.183357 0.313751 0.240816 0.136687
H12   H     H_    0.800545 0.655484 0.757260 0.113612
H13   H     H_    0.317702 0.605074 0.253258 0.108442
H14   H     H_    0.902516 0.886824 0.315086 0.326918
H15   H     H_    0.434025 0.835984 0.695330 0.238418
H16   H     H_    0.426504 0.708999 0.708325 0.238107
H17   H     H_    0.735205 0.111141 0.692682 0.369694
H18   H     H_    0.720878 0.881141 0.663909 0.343787
H19   H     H_    0.052179 0.112307 0.827464 0.177979
H20   H     H_    0.333024 0.267090 0.872447 0.136423
H21   H     H_    0.314724 0.327378 0.773621 0.114045
H22   H     H_    0.944929 0.184963 0.623567 0.172005
H23   H     H_    0.246493 0.311335 0.675871 0.139157
H24   H     H_    0.305019 0.600578 0.854228 0.135401
H25   H     H_    0.658792 0.928399 0.152029 0.154480
N1    N     N_3   0.472134 0.764627 0.722724 -0.605913
O1    O     O_R   0.196340 0.303200 0.448500 -0.504728
O2    O     O_R   0.555390 0.700940 0.062700 -0.519915
O3    O     O_R   0.295020 0.731920 0.049950 -0.501509
O4    O     O_R   0.199310 0.519670 0.454880 -0.504862
O5    O     O_R   0.094290 0.884230 0.921550 -0.510726
O6    O     O_R   0.168980 0.069410 0.926940 -0.500617
O7    O     O_R   0.358400 0.089990 0.927950 -0.507748
O8    O     O_R   0.544850 0.873850 0.939920 -0.484440
O9    O     O_R   0.536020 0.701900 0.936430 -0.510139
O10   O     O_R   0.277070 0.732810 0.932890 -0.502978
O11   O     O_3   0.339220 0.891590 0.991750 -0.252429
O12   O     O_R   0.811960 0.658090 0.547150 -0.480455
O13   O     O_R   0.045660 0.691380 0.441680 -0.484598
O14   O     O_R   0.811930 0.659460 0.430950 -0.499822
O15   O     O_R   0.757900 0.507620 0.421760 -0.521643
O16   O     O_R   0.988630 0.322990 0.439840 -0.494690
O17   O     O_R   0.196380 0.301720 0.573850 -0.516349
O18   O     O_R   0.199350 0.518300 0.571080 -0.502589
O19   O     O_R   0.045700 0.689900 0.567030 -0.510562
O20   O     O_2   0.942255 0.896789 0.218026 -0.532116
O21   O     O_R   0.985364 0.822554 0.308202 -0.695488
O22   O     O_2   0.844269 0.172161 0.772988 -0.507865
O23   O     O_R   0.757930 0.506140 0.547110 -0.508446
O24   O     O_R   0.819314 0.114213 0.682272 -0.698159
O25   O     O_2   0.778893 0.939580 0.756649 -0.506128
O26   O     O_R   0.811821 0.829180 0.679401 -0.719407
O27   O     O_R   0.988670 0.321620 0.556040 -0.498868
O28   O     O_3   0.000020 0.499990 0.500010 -0.254953
O29   O     O_R   0.113660 0.883270 0.047820 -0.495997
O30   O     O_R   0.186930 0.068530 0.043990 -0.491951
O31   O     O_R   0.377770 0.089040 0.054220 -0.512449
O32   O     O_R   0.562800 0.872960 0.056970 -0.501435

loop_
_geom_bond_atom_site_label_1
_geom_bond_atom_site_label_2
_ccdc_geom_bond_type
C24   C52   S    
C40   O23   A    
C4    O14   A    
C8    C13   T    
C35   C53   S    
Cr2   O19   S    
C24   C27   A    
C3    H10   S    
Cr4   O29   S    
C1    O4    A    
C39   C41   A    
C48   C54   S    
C48   O2    A    
C45   C57   A    
C37   C38   A    
C22   C32   A    
C19   C21   T    
Cr5   O7    S    
C18   C19   S    
Cr4   O30   S    
C47   C63   S    
C30   C31   A    
C11   C14   T    
Cr1   O17   S    
C27   C29   A    
C52   O17   A    
C51   O8    A    
C29   C33   A    
C34   C62   A    
C17   C20   S    
C44   H2    S    
C9    C58   S    
C41   C42   A    
C39   H5    S    
C37   C42   A    
C9    C13   S    
C49   O3    A    
C52   O27   A    
Cr1   O4    S    
C45   C56   A    
C41   C46   A    
Cr5   O8    S    
H17   O24   S    
C31   H19   S    
C15   C51   S    
Cr3   O16   S    
C35   C43   A    
C9    C10   D    
Cr2   O13   S    
C61   C62   A    
C22   C50   S    
Cr6   O3    S    
C59   O22   D    
C58   O21   S    
C18   N1    S    
C62   H7    S    
C2    C6    S    
Cr5   O11   S    
C25   C26   A    
C44   C46   A    
C47   O30   A    
C53   O5    A    
C15   C20   T    
C54   C56   A    
C16   O1    A    
C22   C31   A    
Cr1   O1    S    
C28   O18   A    
C5    C7    T    
Cr6   O10   S    
C61   H25   S    
C26   H22   S    
C49   O29   A    
C10   H13   S    
H15   N1    S    
C6    C63   T    
C29   C30   A    
C32   H20   S    
C23   C34   A    
C12   H8    S    
Cr3   O27   S    
C17   C18   D    
C27   H23   S    
C34   C45   A    
Cr3   O15   S    
C35   C44   A    
Cr5   O32   S    
Cr2   O14   S    
C28   O19   A    
Cr4   O5    S    
C40   O12   A    
C12   C57   A    
C7    C16   S    
C50   O7    A    
C56   H1    S    
C4    C55   S    
C58   O20   D    
C42   C43   A    
Cr5   O31   S    
Cr4   O6    S    
C47   O31   A    
H18   O26   S    
Cr6   O9    S    
C25   C30   A    
C4    O15   A    
C59   O24   S    
Cr1   O18   S    
C46   C60   S    
H14   O21   S    
C36   C39   A    
C24   C26   A    
C3    C5    S    
Cr6   O11   S    
Cr4   O11   S    
C23   C55   A    
C54   C61   A    
Cr1   O28   S    
C32   C33   A    
C57   H6    S    
C36   C38   A    
C2    C3    D    
C51   O9    A    
C33   H21   S    
C48   O32   A    
H16   N1    S    
C21   C40   S    
C43   H24   S    
C60   O25   D    
C17   H12   S    
Cr2   O28   S    
C23   H9    S    
C60   O26   S    
C12   C55   A    
C2    H11   S    
C10   C11   S    
C1    O13   A    
C53   O10   A    
C28   C36   S    
C50   O6    A    
Cr3   O23   S    
C37   H3    S    
Cr3   O28   S    
C1    C14   S    
C25   C59   S    
C8    C49   S    
Cr2   O12   S    
C16   O16   A    
C38   H4    S    
Cr6   O2    S    
