data_mof_unit_16767.cif
_audit_creation_date              2012-12-10T18:02:54-0500
_audit_creation_method            fapswitch 2.2
_symmetry_space_group_name_H-M    P1
_symmetry_Int_Tables_number       1
_space_group_crystal_system       triclinic
_cell_length_a                    10.919282
_cell_length_b                    9.518333
_cell_length_c                    27.808054
_cell_angle_alpha                 89.998506
_cell_angle_beta                  90.236757
_cell_angle_gamma                 90.152427
_cell_volume                      2890.14964563

loop_
_atom_site_label
_atom_site_type_symbol
_atom_type_description
_atom_site_fract_x
_atom_site_fract_y
_atom_site_fract_z
_atom_type_partial_charge
C1    C     C_R   0.262369 0.499941 0.499995 0.973302
C2    C     C_R   0.738350 0.500253 0.500089 0.933500
C3    C     C_R   0.497711 0.492561 0.101945 -0.040479
C4    C     C_R   0.497275 0.493065 0.898043 -0.040353
C5    C     C_R   0.386629 0.497679 0.127446 -0.029016
C6    C     C_R   0.608252 0.501573 0.872559 -0.028888
C7    C     C_R   0.276028 0.501666 0.102188 -0.115150
C8    C     C_R   0.718739 0.508761 0.897825 -0.115455
C9    C     C_R   0.608926 0.488424 0.127740 -0.025215
C10   C     C_R   0.386181 0.485746 0.872232 -0.025374
C11   C     C_R   0.499257 0.500374 0.354474 -0.074893
C12   C     C_R   0.498986 0.500498 0.645520 -0.074299
C13   C     C_R   0.384313 0.486856 0.974286 0.045426
C14   C     C_R   0.610723 0.490023 0.025697 0.045474
C15   C     C_R   0.610598 0.495583 0.974597 0.045161
C16   C     C_R   0.384341 0.492111 0.025395 0.045170
C17   C     C_R   0.497399 0.491761 0.949192 0.076444
C18   C     C_R   0.497585 0.491487 0.050795 0.076444
C19   C     C_R   0.274690 0.476266 0.947110 -0.189460
C20   C     C_R   0.720515 0.482441 0.052859 -0.189545
C21   C     C_R   0.275886 0.476038 0.897180 -0.115878
C22   C     C_R   0.719349 0.481986 0.102784 -0.115603
C23   C     C_R   0.499818 0.500035 0.407427 0.853630
C24   C     C_R   0.499908 0.500042 0.592572 0.854046
C25   C     C_R   0.274618 0.499294 0.052261 -0.189302
C26   C     C_R   0.720170 0.506199 0.947745 -0.189607
C27   C     C_R   0.062692 0.378886 0.486687 0.296894
C28   C     C_R   0.940260 0.628926 0.501446 0.283996
C29   C     C_R   0.939398 0.372716 0.499051 0.288946
C30   C     C_R   0.064152 0.622118 0.513641 0.291424
C31   C     C_R   0.873056 0.500794 0.500176 -0.374047
C32   C     C_R   0.128971 0.500234 0.500098 -0.375447
C33   C     C_R   0.461821 0.074093 0.460498 0.077406
C34   C     C_R   0.538156 0.925836 0.539501 0.064394
C35   C     C_R   0.537668 0.074306 0.539562 0.063909
C36   C     C_R   0.461048 0.925576 0.460604 0.031137
C37   C     C_R   0.388872 0.499832 0.177916 0.616871
C38   C     C_R   0.606022 0.503764 0.822095 0.616363
C39   C     C_R   0.607029 0.490557 0.178200 0.615087
C40   C     C_R   0.388089 0.488030 0.821767 0.615439
C41   C     C_R   0.498939 0.629788 0.278818 0.429512
C42   C     C_R   0.496138 0.630171 0.721104 0.430753
C43   C     C_R   0.499103 0.628128 0.329135 -0.266747
C44   C     C_R   0.497702 0.628327 0.670801 -0.277978
C45   C     C_R   0.498750 0.373327 0.328864 -0.172141
C46   C     C_R   0.499005 0.373549 0.671183 -0.161485
C47   C     C_R   0.498323 0.374031 0.278809 -0.130948
C48   C     C_R   0.497970 0.374437 0.721237 -0.131615
C49   C     C_R   0.498400 0.501268 0.253586 0.231027
C50   C     C_R   0.496731 0.501763 0.746400 0.230804
Cu1   Cu    Cu3+1 0.500000 0.640660 0.500000 1.048112
Cu2   Cu    Cu3+1 0.500000 0.359340 0.500000 1.060950
H1    H     H_    0.497984 0.726727 0.651312 0.178975
H2    H     H_    0.499047 0.726580 0.348590 0.183740
H3    H     H_    0.189315 0.468350 0.878161 0.192752
H4    H     H_    0.806045 0.476728 0.121792 0.192832
N1    N     N_R   0.498099 0.498115 0.202069 -0.458229
N2    N     N_R   0.496888 0.498799 0.797919 -0.458012
N3    N     N_R   0.500000 0.852070 0.500000 -0.170300
N4    N     N_R   0.500000 0.147930 0.500000 -0.166615
O1    O     O_R   0.319640 0.618740 0.500000 -0.534103
O2    O     O_R   0.680360 0.381260 0.500000 -0.518868
O3    O     O_R   0.680360 0.618740 0.500000 -0.528610
O4    O     O_R   0.319640 0.381260 0.500000 -0.530745
O5    O     O_R   0.500020 0.618770 0.430260 -0.602566
O6    O     O_R   0.499980 0.381230 0.569740 -0.598567
O7    O     O_R   0.499980 0.618770 0.569740 -0.599181
O8    O     O_R   0.500020 0.381230 0.430260 -0.597114
O9    O     O_2   0.282943 0.503872 0.202714 -0.484514
O10   O     O_2   0.711891 0.510929 0.797320 -0.485339
O11   O     O_2   0.282208 0.480489 0.796671 -0.491359
O12   O     O_2   0.713048 0.486022 0.203274 -0.491668
H5    H     H_    0.498658 0.273321 0.347441 0.172587
H6    H     H_    0.499983 0.273487 0.652652 0.177162
H7    H     H_    0.430326 0.129109 0.428839 0.130051
H8    H     H_    0.569901 0.870775 0.571139 0.134081
H9    H     H_    0.567771 0.129432 0.571414 0.132355
H10   H     H_    0.428620 0.870277 0.429082 0.135983
H11   H     H_    0.497933 0.275326 0.259430 0.194007
H12   H     H_    0.498375 0.275811 0.740663 0.194679
H13   H     H_    0.189405 0.507257 0.120955 0.193192
H14   H     H_    0.805247 0.517016 0.879069 0.193432
S1    S     S_3+6 0.494415 0.793396 0.751536 0.046118
O13   O     O_2   0.390914 0.796414 0.786979 -0.265793
O14   O     O_2   0.613048 0.811958 0.778366 -0.210165
O15   O     O_3   0.478144 0.927239 0.712515 -0.530544
H15   H     H_    0.391982 0.921537 0.701368 0.350758
S2    S     S_3+6 0.498649 0.792856 0.248264 0.047483
O16   O     O_2   0.603685 0.798933 0.213559 -0.265707
O17   O     O_2   0.380956 0.807373 0.220564 -0.211220
O18   O     O_3   0.510404 0.927504 0.287239 -0.530627
H16   H     H_    0.596804 0.926570 0.298244 0.353381
H17   H     H_    0.185667 0.465776 0.963186 0.138549
H18   H     H_    0.809689 0.474540 0.036774 0.138373
H19   H     H_    0.185309 0.505876 0.035932 0.138754
H20   H     H_    0.809328 0.515402 0.964083 0.139079
S3    S     S_3+6 0.123255 0.247458 0.447958 0.091666
O19   O     O_2   0.190357 0.139092 0.477067 -0.208904
O20   O     O_2   0.021139 0.177378 0.420516 -0.200433
O21   O     O_3   0.220197 0.321687 0.408475 -0.556229
H21   H     H_    0.245661 0.244102 0.387023 0.366701
S4    S     S_3+6 0.881299 0.793151 0.481409 0.125295
O22   O     O_2   0.810930 0.859851 0.521675 -0.241678
O23   O     O_2   0.984139 0.888746 0.466658 -0.133195
O24   O     O_3   0.788946 0.769912 0.433423 -0.523736
H22   H     H_    0.745867 0.860640 0.429362 0.373563
S5    S     S_3+6 0.881665 0.210844 0.521699 0.116357
O25   O     O_2   0.805348 0.139770 0.483698 -0.220184
O26   O     O_2   0.985594 0.116346 0.536032 -0.150868
O27   O     O_3   0.795911 0.241489 0.570714 -0.547562
H23   H     H_    0.791752 0.150196 0.587738 0.374119
S6    S     S_3+6 0.127890 0.752896 0.552426 0.100249
O28   O     O_2   0.196377 0.860303 0.523367 -0.208123
O29   O     O_2   0.028121 0.824689 0.580134 -0.194749
O30   O     O_3   0.224615 0.677044 0.591812 -0.546882
H24   H     H_    0.265820 0.756229 0.608462 0.363420

loop_
_geom_bond_atom_site_label_1
_geom_bond_atom_site_label_2
_ccdc_geom_bond_type
C38   O10   S    
C40   O11   S    
C37   O9    S    
C27   C29   A    
S5    O26   D    
C14   C18   A    
Cu1   O1    S    
C47   H11   S    
C36   N3    A    
S6    O29   D    
S3    O19   D    
C49   N1    S    
C47   C49   A    
C3    C18   A    
C8    H14   S    
C45   H5    S    
C19   C21   A    
C5    C37   A    
C9    C22   A    
C1    O1    A    
O30   H24   S    
C39   N1    A    
C9    C39   A    
C33   C36   A    
C8    C26   A    
S4    O24   S    
C10   C40   A    
C34   C35   A    
Cu1   O5    S    
O27   H23   S    
Cu2   N4    S    
C24   O7    A    
C38   N2    A    
C44   H1    S    
C33   H7    S    
C39   O12   S    
C6    C38   A    
C11   C43   A    
Cu2   O8    S    
C24   O6    A    
C48   C50   A    
C41   C43   A    
C42   C44   A    
C41   C49   A    
S6    O28   D    
S3    O20   D    
C45   C47   A    
C10   C21   A    
C26   H20   S    
C46   C48   A    
C40   N2    A    
C13   C19   A    
Cu1   Cu2   S    
C50   N2    S    
C14   C20   A    
Cu1   O3    S    
C4    C6    A    
Cu2   O4    S    
O18   H16   S    
C21   H3    S    
O15   H15   S    
C15   C26   A    
C6    C8    A    
C35   H9    S    
C1    C32   S    
C30   S6    S    
C35   N4    A    
C23   O8    A    
C3    C9    A    
C43   H2    S    
S1    O13   D    
S2    O18   S    
S5    O25   D    
C16   C18   A    
Cu1   O7    S    
S4    O23   D    
C42   C50   A    
C4    C17   A    
C12   C46   A    
S1    O14   D    
S2    O17   D    
C25   H19   S    
C33   N4    A    
C34   N3    A    
S5    O27   S    
C11   C45   A    
Cu1   N3    S    
C4    C10   A    
C1    O4    A    
C46   H6    S    
S3    O21   S    
Cu2   O6    S    
C2    O3    A    
C5    C7    A    
C16   C25   A    
C15   C17   A    
C41   S2    S    
C20   H18   S    
C27   S3    S    
C7    H13   S    
C27   C32   A    
C28   C31   A    
C29   S5    S    
C42   S1    S    
C20   C22   A    
C3    C5    A    
C19   H17   S    
C22   H4    S    
O24   H22   S    
C12   C24   S    
C7    C25   A    
C13   C17   A    
C23   O5    A    
C28   C30   A    
C12   C44   A    
Cu2   O2    S    
C30   C32   A    
C48   H12   S    
C11   C23   S    
O21   H21   S    
S4    O22   D    
C28   S4    S    
S1    O15   S    
S2    O16   D    
C29   C31   A    
C13   C16   A    
C14   C15   A    
C2    C31   S    
C36   H10   S    
S6    O30   S    
C37   N1    A    
C2    O2    A    
C34   H8    S    
