data_mof_unit_26478.cif
_audit_creation_date              2013-03-05T15:40:16-0500
_audit_creation_method            fapswitch 2.2
_symmetry_space_group_name_H-M    P1
_symmetry_Int_Tables_number       1
_space_group_crystal_system       triclinic
_cell_length_a                    28.207018
_cell_length_b                    18.473074
_cell_length_c                    17.00901
_cell_angle_alpha                 90.001116
_cell_angle_beta                  61.000066
_cell_angle_gamma                 90.019313
_cell_volume                      7751.66306962

loop_
_atom_site_label
_atom_site_type_symbol
_atom_site_description
_atom_site_fract_x
_atom_site_fract_y
_atom_site_fract_z
_atom_type_partial_charge
O1    O     O_R   0.746490 0.236330 0.638080 -0.653649
O2    O     O_R   0.253510 0.763670 0.361920 -0.654398
O3    O     O_R   0.253510 0.236330 0.361920 -0.633423
O4    O     O_R   0.746490 0.763670 0.638080 -0.630646
O5    O     O_R   0.246490 0.736330 0.638080 -0.630512
O6    O     O_R   0.753510 0.263670 0.361920 -0.633751
O7    O     O_R   0.753510 0.736330 0.361920 -0.656243
O8    O     O_R   0.246490 0.263670 0.638080 -0.636057
O9    O     O_R   0.674170 0.186160 0.516270 -0.642553
O10   O     O_R   0.325830 0.813840 0.483730 -0.634552
O11   O     O_R   0.325830 0.186160 0.483730 -0.645245
O12   O     O_R   0.674170 0.813840 0.516270 -0.636862
O13   O     O_R   0.174170 0.686160 0.516270 -0.630509
O14   O     O_R   0.825830 0.313840 0.483730 -0.630293
O15   O     O_R   0.825830 0.686160 0.483730 -0.629407
O16   O     O_R   0.174170 0.313840 0.516270 -0.629418
O17   O     O_R   0.739960 0.127620 0.525000 -0.616074
O18   O     O_R   0.260040 0.872380 0.475000 -0.618503
O19   O     O_R   0.260040 0.127620 0.475000 -0.620024
O20   O     O_R   0.739960 0.872380 0.525000 -0.622621
O21   O     O_R   0.239960 0.627620 0.525000 -0.624669
O22   O     O_R   0.760040 0.372380 0.475000 -0.624702
O23   O     O_R   0.760040 0.627620 0.475000 -0.618845
O24   O     O_R   0.239960 0.372380 0.525000 -0.618756
O25   O     O_R   0.680700 0.294870 0.629350 -0.571600
O26   O     O_R   0.319300 0.705130 0.370650 -0.575696
O27   O     O_R   0.319300 0.294870 0.370650 -0.570056
O28   O     O_R   0.680700 0.705130 0.629350 -0.557364
O29   O     O_R   0.180700 0.794870 0.629350 -0.556730
O30   O     O_R   0.819300 0.205130 0.370650 -0.557382
O31   O     O_R   0.819300 0.794870 0.370650 -0.573842
O32   O     O_R   0.180700 0.205130 0.629350 -0.569693
C1    C     C_R   0.701567 0.268486 0.676087 0.906534
C2    C     C_R   0.298420 0.731513 0.323927 0.900136
C3    C     C_R   0.298423 0.268556 0.323891 0.927346
C4    C     C_R   0.701507 0.731570 0.676156 0.947745
C5    C     C_R   0.201493 0.768388 0.676161 0.948612
C6    C     C_R   0.798473 0.231567 0.323868 0.945717
C7    C     C_R   0.798414 0.768516 0.323925 0.900542
C8    C     C_R   0.201558 0.231492 0.676119 0.923159
C9    C     C_R   0.691787 0.128909 0.531923 0.894105
C10   C     C_R   0.309085 0.870456 0.463564 0.889146
C11   C     C_R   0.308513 0.129391 0.465239 0.894564
C12   C     C_R   0.696672 0.871940 0.516873 0.901946
C13   C     C_R   0.196938 0.627791 0.516698 0.899188
C14   C     C_R   0.803065 0.372209 0.483293 0.899486
C15   C     C_R   0.808855 0.629567 0.464249 0.888999
C16   C     C_R   0.191146 0.370434 0.535744 0.887210
Zn1   Zn    Zn3+2 0.792340 0.208750 0.507670 1.056374
Zn2   Zn    Zn3+2 0.207660 0.791250 0.492330 1.055261
Zn3   Zn    Zn3+2 0.207660 0.208750 0.492330 1.062040
Zn4   Zn    Zn3+2 0.792340 0.791250 0.507670 1.061436
Zn5   Zn    Zn3+2 0.292340 0.708750 0.507670 1.054260
Zn6   Zn    Zn3+2 0.707660 0.291250 0.492330 1.049835
Zn7   Zn    Zn3+2 0.707660 0.708750 0.492330 1.048360
Zn8   Zn    Zn3+2 0.292340 0.291250 0.507670 1.046422
H1    H     H_    0.992746 0.277444 0.646553 0.187846
H2    H     H_    0.007261 0.722558 0.353423 0.187842
H3    H     H_    0.908974 0.280833 0.636552 0.162543
H4    H     H_    0.091034 0.719168 0.363422 0.162353
H5    H     H_    0.583319 0.763348 0.385938 0.157594
H6    H     H_    0.462640 0.248239 0.475792 0.161642
H7    H     H_    0.499897 0.759992 0.374278 0.179948
H8    H     H_    0.528791 0.245249 0.530251 0.165290
C17   C     C_R   0.542701 0.129651 0.511042 0.092880
C18   C     C_R   0.479368 0.872404 0.411294 0.093315
C19   C     C_R   0.463980 0.132283 0.455450 0.094292
C20   C     C_R   0.573892 0.875341 0.429093 0.104467
C21   C     C_R   0.073266 0.616228 0.433099 0.107420
C22   C     C_R   0.926742 0.383773 0.566876 0.107368
C23   C     C_R   0.977250 0.619734 0.420529 0.091236
C24   C     C_R   0.022757 0.380269 0.579449 0.091279
C25   C     C_R   0.518034 0.195210 0.509532 -0.147523
C26   C     C_R   0.511555 0.810130 0.393315 -0.124467
C27   C     C_R   0.480560 0.196960 0.478133 -0.142666
C28   C     C_R   0.559124 0.812051 0.400191 -0.143890
C29   C     C_R   0.062731 0.674492 0.390759 -0.138371
C30   C     C_R   0.937278 0.325509 0.609216 -0.138091
C31   C     C_R   0.014892 0.676496 0.385147 -0.126634
C32   C     C_R   0.985115 0.323505 0.614828 -0.126827
C33   C     C_R   0.487124 0.066479 0.459609 0.047029
C34   C     C_R   0.542289 0.937764 0.446412 0.049374
C35   C     C_R   0.529013 0.065817 0.481879 0.047608
C36   C     C_R   0.496459 0.937028 0.433582 0.043940
C37   C     C_R   0.988540 0.559935 0.460447 0.041569
C38   C     C_R   0.011468 0.440066 0.539527 0.041444
C39   C     C_R   0.036284 0.558503 0.467552 0.044783
C40   C     C_R   0.963724 0.441498 0.532421 0.044691
C41   C     C_R   0.952456 0.501215 0.492386 -0.023317
C42   C     C_R   0.047552 0.498786 0.507588 -0.023450
C43   C     C_R   0.468551 0.001455 0.440980 -0.024738
C44   C     C_R   0.556820 0.001368 0.475376 -0.022793
C45   C     C_R   0.871434 0.440622 0.508877 0.053215
C46   C     C_R   0.128573 0.559380 0.491102 0.053285
C47   C     C_R   0.108392 0.436382 0.550210 0.061187
C48   C     C_R   0.891613 0.563620 0.449771 0.061151
C49   C     C_R   0.398042 0.934523 0.426945 0.058445
C50   C     C_R   0.613497 0.064780 0.526436 0.065007
C51   C     C_R   0.630134 0.937330 0.482924 0.057293
C52   C     C_R   0.395791 0.067068 0.434034 0.055927
C53   C     C_R   0.829975 0.438229 0.484238 -0.099285
C54   C     C_R   0.170030 0.561772 0.515745 -0.099267
C55   C     C_R   0.159147 0.435771 0.549326 -0.105409
C56   C     C_R   0.840857 0.564231 0.450659 -0.105530
C57   C     C_R   0.344077 0.934928 0.439221 -0.102718
C58   C     C_R   0.660299 0.064070 0.538765 -0.097804
C59   C     C_R   0.669807 0.936911 0.512425 -0.093348
C60   C     C_R   0.343195 0.065461 0.441684 -0.098961
C61   C     C_R   0.814600 0.500100 0.457384 -0.254651
C62   C     C_R   0.185405 0.499901 0.542599 -0.254413
C63   C     C_R   0.319295 0.000098 0.441435 -0.257366
C64   C     C_R   0.684062 0.999609 0.539466 -0.266516
H9    H     H_    0.779567 0.499381 0.447021 0.203230
H10   H     H_    0.220438 0.500620 0.552963 0.203298
H11   H     H_    0.278568 0.999910 0.450277 0.203323
H12   H     H_    0.716558 0.999053 0.556334 0.200636
C65   C     C_R   0.905391 0.501753 0.483313 0.081694
C66   C     C_R   0.094617 0.498248 0.516665 0.081550
C67   C     C_R   0.421034 0.000962 0.432903 0.080821
C68   C     C_R   0.599846 0.000977 0.495687 0.077610
C69   C     C_R   0.071352 0.378205 0.583367 -0.181565
C70   C     C_R   0.928653 0.621798 0.416615 -0.181004
C71   C     C_R   0.880296 0.384552 0.557121 -0.179357
C72   C     C_R   0.119712 0.615451 0.442858 -0.179403
C73   C     C_R   0.619527 0.877122 0.441261 -0.180780
C74   C     C_R   0.423496 0.132084 0.431183 -0.175334
C75   C     C_R   0.430187 0.871152 0.408767 -0.178459
C76   C     C_R   0.581274 0.127257 0.539994 -0.181276
H13   H     H_    0.078923 0.332518 0.615630 0.189205
H14   H     H_    0.921080 0.667488 0.384356 0.189663
H15   H     H_    0.851022 0.341725 0.589168 0.171948
H16   H     H_    0.148985 0.658280 0.410816 0.171983
H17   H     H_    0.646345 0.831195 0.416034 0.177381
H18   H     H_    0.414327 0.183533 0.411885 0.200368
H19   H     H_    0.418418 0.821008 0.390327 0.195022
H20   H     H_    0.584671 0.174594 0.574132 0.196641
C77   C     C_R   0.722214 0.264527 0.951126 -0.125229
C78   C     C_R   0.277290 0.734797 0.049407 -0.126780
C79   C     C_R   0.278180 0.264423 0.048324 -0.128733
C80   C     C_R   0.720944 0.736909 0.952595 -0.126920
C81   C     C_R   0.220876 0.762966 0.952670 -0.127159
C82   C     C_R   0.778611 0.236362 0.047881 -0.126139
C83   C     C_R   0.777355 0.765110 0.049329 -0.127030
C84   C     C_R   0.221698 0.235877 0.951780 -0.129452
C85   C     C_R   0.767021 0.307636 0.936923 0.244652
C86   C     C_R   0.232619 0.691504 0.063348 0.245804
C87   C     C_R   0.234867 0.309355 0.059513 0.255089
C88   C     C_R   0.765178 0.693093 0.939527 0.252623
C89   C     C_R   0.265263 0.806612 0.939328 0.252096
C90   C     C_R   0.733982 0.193022 0.061713 0.251485
C91   C     C_R   0.732854 0.808595 0.062957 0.247271
C92   C     C_R   0.265016 0.190957 0.940586 0.253239
C93   C     C_R   0.794966 0.293753 0.985303 0.252254
C94   C     C_R   0.204681 0.705361 0.014937 0.252685
C95   C     C_R   0.206801 0.295178 0.011387 0.248875
C96   C     C_R   0.793231 0.707136 0.987679 0.249563
C97   C     C_R   0.293313 0.792595 0.987483 0.249408
C98   C     C_R   0.705961 0.207012 0.013496 0.250495
C99   C     C_R   0.704908 0.794703 0.014564 0.252672
C100  C     C_R   0.293079 0.205129 0.988712 0.248149
C101  C     C_R   0.641006 0.321145 0.950495 0.305159
C102  C     C_R   0.358582 0.678275 0.049869 0.303280
C103  C     C_R   0.359588 0.320396 0.048961 0.303404
C104  C     C_R   0.639854 0.680406 0.951495 0.307022
C105  C     C_R   0.139893 0.819657 0.951451 0.307019
C106  C     C_R   0.859650 0.179696 0.048929 0.307445
C107  C     C_R   0.858715 0.821511 0.049734 0.302849
C108  C     C_R   0.140362 0.179722 0.951065 0.301917
C109  C     C_R   0.612256 0.340130 0.903651 -0.279163
C110  C     C_R   0.387531 0.659624 0.096508 -0.279901
C111  C     C_R   0.388121 0.339672 0.096047 -0.275835
C112  C     C_R   0.611599 0.660651 0.904131 -0.275855
C113  C     C_R   0.111647 0.839423 0.904076 -0.275758
C114  C     C_R   0.888094 0.160260 0.096101 -0.276396
C115  C     C_R   0.887627 0.840235 0.096411 -0.279097
C116  C     C_R   0.111858 0.160370 0.903949 -0.276179
C117  C     C_R   0.627448 0.311577 0.819340 0.223310
C118  C     C_R   0.372455 0.688415 0.180667 0.227447
C119  C     C_R   0.372735 0.311381 0.180555 0.223603
C120  C     C_R   0.627073 0.688737 0.819482 0.217700
C121  C     C_R   0.127090 0.811293 0.819456 0.217557
C122  C     C_R   0.872747 0.188563 0.180597 0.216993
C123  C     C_R   0.872502 0.811527 0.180624 0.226497
C124  C     C_R   0.127232 0.188683 0.819449 0.226033
C125  C     C_R   0.678263 0.280240 0.772037 -0.176349
C126  C     C_R   0.321622 0.719663 0.228042 -0.174371
C127  C     C_R   0.321811 0.280262 0.227867 -0.186364
C128  C     C_R   0.677908 0.720169 0.772331 -0.191261
C129  C     C_R   0.177872 0.779746 0.772358 -0.191194
C130  C     C_R   0.821961 0.220044 0.227763 -0.189500
C131  C     C_R   0.821624 0.780363 0.228038 -0.175121
C132  C     C_R   0.178128 0.219887 0.772175 -0.185185
C133  C     C_R   0.709196 0.264805 0.815288 -0.216030
C134  C     C_R   0.290529 0.734811 0.185001 -0.216744
C135  C     C_R   0.290913 0.264931 0.184485 -0.202566
C136  C     C_R   0.708492 0.736147 0.816091 -0.201279
C137  C     C_R   0.208401 0.763662 0.816174 -0.200522
C138  C     C_R   0.791280 0.235877 0.184153 -0.202800
C139  C     C_R   0.790522 0.765226 0.184994 -0.215447
C140  C     C_R   0.208975 0.235350 0.815610 -0.203289
H21   H     H_    0.748519 0.239012 0.779133 0.199749
H22   H     H_    0.251198 0.760575 0.221214 0.199716
H23   H     H_    0.251468 0.239434 0.220664 0.206679
H24   H     H_    0.747845 0.761904 0.780071 0.206848
H25   H     H_    0.247699 0.737792 0.780208 0.206694
H26   H     H_    0.751983 0.261745 0.220177 0.205646
H27   H     H_    0.751146 0.739550 0.221244 0.199836
H28   H     H_    0.248393 0.260922 0.779462 0.205414
C141  C     C_R   0.689965 0.282821 0.905385 0.078101
C142  C     C_R   0.309608 0.716551 0.095039 0.077943
C143  C     C_R   0.310401 0.282561 0.094173 0.071719
C144  C     C_R   0.688854 0.718694 0.906532 0.072084
C145  C     C_R   0.188801 0.781199 0.906579 0.071961
C146  C     C_R   0.810732 0.218118 0.093872 0.073135
C147  C     C_R   0.809673 0.783350 0.094964 0.077481
C148  C     C_R   0.189487 0.217710 0.905919 0.072374
O33   O     O_R   0.062020 0.072840 0.007170 -0.577889
O34   O     O_R   0.937980 0.927160 0.992830 -0.577726
O35   O     O_R   0.937980 0.072840 0.992830 -0.576874
O36   O     O_R   0.062020 0.927160 0.007170 -0.576754
O37   O     O_R   0.562020 0.572840 0.007170 -0.577301
O38   O     O_R   0.437980 0.427160 0.992830 -0.577673
O39   O     O_R   0.437980 0.572840 0.992830 -0.577410
O40   O     O_R   0.562020 0.427160 0.007170 -0.577589
O41   O     O_R   0.947860 0.073950 0.109290 -0.569144
O42   O     O_R   0.052140 0.926050 0.890710 -0.568490
O43   O     O_R   0.052140 0.073950 0.890710 -0.567551
O44   O     O_R   0.947860 0.926050 0.109290 -0.568193
O45   O     O_R   0.447860 0.573950 0.109290 -0.568432
O46   O     O_R   0.552140 0.426050 0.890710 -0.568161
O47   O     O_R   0.552140 0.573950 0.890710 -0.568676
O48   O     O_R   0.447860 0.426050 0.109290 -0.568192
C149  C     C_R   0.071416 0.103066 0.936736 0.929937
C150  C     C_R   0.928344 0.897171 0.063470 0.929097
C151  C     C_R   0.928515 0.102976 0.063331 0.928408
C152  C     C_R   0.071376 0.896916 0.936761 0.930006
C153  C     C_R   0.571332 0.603133 0.936808 0.929638
C154  C     C_R   0.428588 0.396934 0.063255 0.930099
C155  C     C_R   0.428285 0.602764 0.063530 0.929509
C156  C     C_R   0.571630 0.397158 0.936546 0.929929
Zn9   Zn    Zn3+2 0.505960 0.500000 0.080520 1.225932
Zn10  Zn    Zn3+2 0.494040 0.500000 0.919480 1.230384
Zn11  Zn    Zn3+2 0.005960 0.000000 0.080520 1.229338
Zn12  Zn    Zn3+2 0.994040 1.000000 0.919480 1.230271
Br1   Br    Br    0.645785 0.146463 0.031445 -0.282220
Br2   Br    Br    0.353187 0.853513 0.970145 -0.274278
Br3   Br    Br    0.351632 0.142753 0.974084 -0.280791
Br4   Br    Br    0.644960 0.855480 0.032116 -0.287021
Br5   Br    Br    0.144542 0.644775 0.032846 -0.287046
Br6   Br    Br    0.855299 0.354103 0.967012 -0.288496
Br7   Br    Br    0.852933 0.646055 0.970656 -0.277110
Br8   Br    Br    0.148254 0.357557 0.025999 -0.278041
Br9   Br    Br    0.789284 0.386913 0.852521 -0.365340
Br10  Br    Br    0.210473 0.612139 0.147584 -0.363365
Br11  Br    Br    0.215036 0.391622 0.139133 -0.324025
Br12  Br    Br    0.786198 0.612251 0.857565 -0.328244
Br13  Br    Br    0.286507 0.887190 0.856966 -0.323229
Br14  Br    Br    0.712286 0.112978 0.144957 -0.337777
Br15  Br    Br    0.710984 0.888306 0.146675 -0.360317
Br16  Br    Br    0.284859 0.108708 0.860954 -0.324026
N1    N     N_R   0.620483 0.339712 0.043448 0.224890
O49   O     O_R   0.573289 0.315946 0.103788 -0.292417
O50   O     O_R   0.649705 0.377706 0.068472 -0.340072
N2    N     N_R   0.378925 0.659468 0.957036 0.225294
O51   O     O_R   0.349666 0.621091 0.932446 -0.336406
O52   O     O_R   0.425923 0.683520 0.896358 -0.286163
N3    N     N_R   0.380669 0.338016 0.955608 0.225212
O53   O     O_R   0.428079 0.314161 0.896265 -0.291953
O54   O     O_R   0.351967 0.375738 0.929303 -0.340290
N4    N     N_R   0.618767 0.662605 0.044813 0.223863
O55   O     O_R   0.647646 0.625260 0.071101 -0.346433
O56   O     O_R   0.571169 0.685918 0.104146 -0.301314
N5    N     N_R   0.118904 0.837640 0.044688 0.223554
O57   O     O_R   0.071344 0.814309 0.104204 -0.302886
O58   O     O_R   0.147872 0.875081 0.070736 -0.345836
N6    N     N_R   0.880435 0.161429 0.955819 0.223613
O59   O     O_R   0.851363 0.123699 0.930244 -0.344447
O60   O     O_R   0.927828 0.184966 0.895924 -0.302851
N7    N     N_R   0.879175 0.840125 0.956809 0.225461
O61   O     O_R   0.926240 0.816134 0.896347 -0.285948
O62   O     O_R   0.850006 0.878366 0.931936 -0.337100
N8    N     N_R   0.119323 0.162011 0.044380 0.225651
O63   O     O_R   0.148067 0.124271 0.070584 -0.339050
O64   O     O_R   0.071918 0.185824 0.103794 -0.286183
N9    N     N_R   0.590487 0.312281 0.783613 0.226429
O65   O     O_R   0.591672 0.364604 0.731372 -0.336719
O66   O     O_R   0.551361 0.265152 0.812455 -0.320209
N10   N     N_R   0.409532 0.688105 0.216168 0.223862
O67   O     O_R   0.408761 0.635848 0.268169 -0.341039
O68   O     O_R   0.447564 0.736754 0.189157 -0.333747
N11   N     N_R   0.409614 0.312149 0.216451 0.223850
O69   O     O_R   0.408373 0.364518 0.268680 -0.337643
O70   O     O_R   0.448858 0.265231 0.187488 -0.324966
N12   N     N_R   0.590374 0.687326 0.783242 0.230025
O71   O     O_R   0.592151 0.634779 0.730828 -0.329960
O72   O     O_R   0.550208 0.732852 0.813407 -0.306401
N13   N     N_R   0.090410 0.812759 0.783183 0.229987
O73   O     O_R   0.092211 0.865353 0.730809 -0.328599
O74   O     O_R   0.050337 0.767056 0.813045 -0.306667
N14   N     N_R   0.909536 0.187417 0.216654 0.230434
O75   O     O_R   0.908021 0.134915 0.268928 -0.328924
O76   O     O_R   0.949115 0.233867 0.187427 -0.305839
N15   N     N_R   0.909575 0.811860 0.216133 0.224047
O77   O     O_R   0.908747 0.864081 0.268223 -0.337955
O78   O     O_R   0.947983 0.763750 0.188318 -0.335050
N16   N     N_R   0.090377 0.187872 0.783507 0.222667
O79   O     O_R   0.091549 0.135425 0.731427 -0.336886
O80   O     O_R   0.051570 0.235400 0.811479 -0.336152

loop_
_geom_bond_atom_site_label_1
_geom_bond_atom_site_label_2
_geom_bond_distance
_ccdc_geom_bond_type
O4    C4    1.258470 A    
O5    C5    1.258798 A    
C138  H26   1.083620 S    
C59   C64   1.376100 A    
C23   C70   1.404789 A    
N11   O69   1.302354 A    
O7    Zn7   2.017523 S    
O31   Zn4   2.072645 S    
O8    Zn8   2.017523 S    
O38   Zn10  1.988296 S    
N15   O78   1.300396 A    
C80   C144  1.494622 S    
N8    O63   1.301105 A    
C77   C98   1.411597 A    
C110  C118  1.386605 A    
C83   C147  1.494300 S    
C80   C99   1.411880 A    
C38   C40   1.409528 A    
C81   C94   1.411865 A    
C135  H23   1.083612 S    
C133  H21   1.083702 S    
O30   C6    1.292383 A    
C2    C126  1.449566 S    
O20   C12   1.293720 A    
C6    C130  1.451321 S    
C36   C43   1.398797 A    
C136  H24   1.083600 S    
C87   C95   1.411955 A    
C97   Br2   1.929122 S    
C103  N3    1.437073 S    
O2    C2    1.257752 A    
C83   C91   1.411807 A    
C140  H28   1.083620 S    
C86   Br10  1.929810 S    
C25   C27   1.396784 A    
O6    Zn6   2.017721 S    
O36   Zn11  1.988985 S    
C29   C31   1.398638 A    
O43   C149  1.268971 A    
C106  C114  1.428568 A    
O48   Zn9   2.003081 S    
C38   C42   1.403890 A    
O33   C149  1.228547 A    
C102  C142  1.403589 A    
O27   C3    1.292094 A    
O37   C153  1.228656 A    
C4    C128  1.451732 S    
C122  N14   1.438932 S    
C7    C131  1.449514 S    
O42   Zn12  2.003822 S    
N15   O77   1.302332 A    
C86   C94   1.412057 A    
N16   O79   1.302345 A    
C124  N16   1.439055 S    
O23   Zn7   2.023660 S    
C106  N6    1.437196 S    
H2    C31   1.083640 S    
O30   Zn1   2.072659 S    
C34   C36   1.411542 A    
C48   C56   1.424476 A    
N4    O56   1.301194 A    
H6    C27   1.083642 S    
C138  C146  1.396376 A    
C3    C127  1.450772 S    
C107  N7    1.436974 S    
N14   O75   1.302386 A    
C115  C123  1.386471 A    
C129  C137  1.416935 A    
C116  C124  1.386683 A    
C15   C56   1.457202 S    
C45   C71   1.416976 A    
C50   C68   1.416315 A    
H7    C26   1.083444 S    
O24   Zn8   2.023660 S    
O9    C9    1.250991 A    
C50   C58   1.433654 A    
C60   C63   1.383711 A    
C121  N13   1.439019 S    
N9    O66   1.300385 A    
O39   C155  1.227873 A    
O13   C13   1.257031 A    
C117  N9    1.438986 S    
N12   O72   1.300428 A    
C104  C144  1.403534 A    
C87   Br11  1.929356 S    
C11   C60   1.460476 S    
N7    O62   1.301131 A    
C13   C54   1.440483 S    
C118  C126  1.385164 A    
C101  N1    1.437055 S    
C40   C41   1.411318 A    
C74   H18   1.077226 S    
O12   C12   1.249310 A    
O7    C7    1.257484 A    
O9    Zn6   2.110163 S    
C122  C130  1.385687 A    
O11   Zn8   2.110734 S    
C91   C99   1.411995 A    
C136  C144  1.396721 A    
C21   C29   1.404686 A    
O16   Zn3   2.110734 S    
C107  C147  1.403533 A    
C114  C122  1.386767 A    
C23   C31   1.403138 A    
C96   Br7   1.929110 S    
C117  C125  1.385383 A    
O22   Zn6   2.022931 S    
O37   Zn9   1.988296 S    
C26   C28   1.402664 A    
C55   C62   1.371982 A    
C139  C147  1.395242 A    
N11   O70   1.300426 A    
O18   C10   1.300778 A    
N1    O49   1.301193 A    
C30   C32   1.398627 A    
O40   Zn9   1.988985 S    
C18   C26   1.404512 A    
O42   C152  1.268821 A    
C72   H16   1.080755 S    
O2    Zn2   2.017721 S    
N2    O51   1.301134 A    
C109  C156  1.454348 S    
H8    C25   1.083612 S    
O6    C6    1.258445 A    
C102  N2    1.436933 S    
O45   C155  1.269207 A    
C62   H10   1.084727 S    
C113  C152  1.454588 S    
C101  C109  1.429050 A    
C132  C140  1.416892 A    
N13   O74   1.300422 A    
H1    C32   1.083642 S    
C111  C119  1.386574 A    
C45   C65   1.406141 A    
H3    C30   1.083677 S    
C109  C117  1.386586 A    
C33   C35   1.404903 A    
C47   C55   1.424466 A    
O21   C13   1.287926 A    
H5    C28   1.083500 S    
C14   C53   1.440497 S    
C52   C60   1.425361 A    
O23   C15   1.298654 A    
O24   C16   1.298649 A    
O35   C151  1.228343 A    
C48   C65   1.413491 A    
O17   Zn1   2.022931 S    
O43   Zn12  2.003080 S    
C84   C148  1.494537 S    
C118  N10   1.439013 S    
C16   C55   1.457197 S    
C78   C142  1.494431 S    
N10   O68   1.300397 A    
C49   C67   1.414337 A    
O46   Zn10  2.003822 S    
C134  C142  1.395160 A    
C116  C149  1.454409 S    
O3    C3    1.258050 A    
C52   C67   1.409220 A    
O40   C156  1.227996 A    
C89   Br13  1.929455 S    
C105  C145  1.403610 A    
C41   C65   1.408913 A    
C88   Br12  1.929853 S    
C43   C67   1.412065 A    
C104  C112  1.428199 A    
C19   C27   1.403438 A    
C64   H12   1.085176 S    
C107  C115  1.429195 A    
C12   C59   1.441068 S    
C108  C116  1.428632 A    
C120  N12   1.439058 S    
C126  C134  1.416411 A    
N3    O53   1.301131 A    
C19   C33   1.397911 A    
C20   C28   1.407246 A    
O8    C8    1.258050 A    
C93   Br6   1.929037 S    
N8    O64   1.301100 A    
C20   C34   1.399015 A    
C108  C148  1.403496 A    
C44   C68   1.413805 A    
C49   C57   1.432688 A    
C24   C32   1.403136 A    
C46   C66   1.406139 A    
C47   C69   1.411575 A    
C78   C86   1.411796 A    
C140  C148  1.396080 A    
C99   Br4   1.928937 S    
O12   Zn7   2.110734 S    
O13   Zn2   2.110163 S    
N6    O59   1.301140 A    
C20   C73   1.399691 A    
O25   C1    1.292232 A    
C110  C155  1.454290 S    
C24   C69   1.404775 A    
O10   C10   1.261763 A    
C137  H25   1.083597 S    
C114  C151  1.454322 S    
O14   C14   1.257035 A    
C42   C66   1.408912 A    
C77   C85   1.411812 A    
C75   H19   1.080459 S    
C76   H20   1.079301 S    
N12   O71   1.302398 A    
C119  C127  1.385654 A    
C53   C61   1.376762 A    
C134  H22   1.083709 S    
C34   C44   1.409488 A    
O35   Zn12  1.988983 S    
O10   Zn5   2.110163 S    
C120  C128  1.385940 A    
C121  C129  1.386023 A    
O19   C11   1.295355 A    
N16   O80   1.300415 A    
N7    O61   1.301155 A    
C124  C132  1.385636 A    
C98   Br1   1.929163 S    
C103  C111  1.428549 A    
C21   C39   1.405430 A    
C112  C120  1.386807 A    
C50   C76   1.417323 A    
C57   C63   1.383637 A    
C113  C121  1.386942 A    
C85   Br9   1.930133 S    
N14   O76   1.300380 A    
C9    C58   1.461554 S    
C91   Br15  1.930095 S    
C17   C76   1.395630 A    
O47   Zn10  2.003080 S    
O25   Zn6   2.072659 S    
C82   C146  1.494627 S    
C19   C74   1.389767 A    
C37   C41   1.403890 A    
O27   Zn8   2.072645 S    
C21   C72   1.398202 A    
C101  C141  1.403675 A    
C77   C141  1.494434 S    
O32   Zn3   2.072645 S    
N9    O65   1.302367 A    
O45   Zn9   2.003821 S    
C102  C110  1.429368 A    
O15   Zn4   2.110734 S    
O22   C14   1.287921 A    
C79   C100  1.411219 A    
C52   C74   1.420629 A    
C54   C62   1.376759 A    
C100  Br3   1.928803 S    
C45   C53   1.421365 A    
C137  C145  1.396761 A    
O18   Zn2   2.022931 S    
C104  N4    1.437274 S    
O3    Zn3   2.017523 S    
C90   C98   1.411661 A    
C71   H15   1.080752 S    
C69   H13   1.082975 S    
C24   C38   1.411611 A    
C95   Br8   1.928758 S    
C111  C154  1.454265 S    
O41   Zn11  2.003821 S    
C51   C59   1.431304 A    
C48   C70   1.411582 A    
C82   C90   1.411810 A    
N3    O54   1.301106 A    
C108  N8    1.437012 S    
O44   Zn11  2.003081 S    
C10   C57   1.472103 S    
O1    C1    1.258030 A    
C33   C43   1.406490 A    
O28   C4    1.292151 A    
N2    O52   1.301160 A    
C39   C42   1.411319 A    
O29   C5    1.292382 A    
N4    O55   1.301136 A    
C1    C125  1.450030 S    
C88   C96   1.411553 A    
C89   C97   1.411546 A    
C84   C92   1.411698 A    
C5    C129  1.451961 S    
C92   C100  1.411857 A    
C22   C30   1.404684 A    
N13   O73   1.302398 A    
O46   C156  1.269147 A    
O15   C15   1.259157 A    
C49   C75   1.420223 A    
C22   C40   1.405426 A    
C80   C88   1.411759 A    
O16   C16   1.259155 A    
C81   C89   1.411726 A    
C51   C73   1.426220 A    
C58   C64   1.369558 A    
C35   C44   1.400504 A    
C79   C87   1.411746 A    
O4    Zn4   2.017523 S    
O5    Zn5   2.017721 S    
C131  C139  1.416486 A    
C56   C61   1.371993 A    
C17   C35   1.403933 A    
O14   Zn1   2.110163 S    
O39   Zn10  1.988983 S    
C105  C113  1.428337 A    
C17   C25   1.403337 A    
C18   C75   1.408768 A    
N5    O58   1.301135 A    
C51   C68   1.407212 A    
C23   C37   1.411611 A    
C22   C71   1.398192 A    
O26   C2    1.292298 A    
C8    C132  1.450874 S    
C119  N11   1.439079 S    
O44   C150  1.269187 A    
C130  C138  1.416794 A    
C61   H9    1.084727 S    
C85   C93   1.411855 A    
C112  C153  1.454327 S    
O48   C154  1.269013 A    
O28   Zn7   2.072645 S    
O29   Zn2   2.072659 S    
C37   C39   1.409533 A    
C47   C66   1.413495 A    
H4    C29   1.083680 S    
O41   C151  1.268912 A    
O34   C150  1.227877 A    
C81   C145  1.494827 S    
N1    O50   1.301138 A    
C103  C143  1.403454 A    
C79   C143  1.494472 S    
O38   C154  1.228436 A    
O33   Zn11  1.988296 S    
C135  C143  1.396088 A    
C92   Br16  1.929195 S    
C133  C141  1.395552 A    
C115  C150  1.454114 S    
C139  H27   1.083711 S    
N5    O57   1.301183 A    
O11   C11   1.259315 A    
C123  N15   1.439029 S    
C106  C146  1.403541 A    
N6    O60   1.301195 A    
O34   Zn12  1.988296 S    
O26   Zn5   2.072659 S    
C73   H17   1.077895 S    
C127  C135  1.416922 A    
O36   C152  1.228671 A    
C125  C133  1.416455 A    
C123  C131  1.385133 A    
C94   Br5   1.928896 S    
O47   C153  1.268785 A    
N10   O67   1.302328 A    
C84   C95   1.411269 A    
O20   Zn4   2.023660 S    
C90   Br14  1.930020 S    
O21   Zn5   2.022931 S    
C78   C97   1.411298 A    
C83   C96   1.411381 A    
O31   C7    1.292097 A    
O32   C8    1.292166 A    
C82   C93   1.411861 A    
O17   C9    1.306035 A    
C18   C36   1.406443 A    
O19   Zn3   2.023660 S    
C128  C136  1.416963 A    
C63   H11   1.083905 S    
C105  N5    1.437224 S    
O1    Zn1   2.017721 S    
C70   H14   1.082975 S    
C46   C54   1.421370 A    
C46   C72   1.416979 A    
