data_mof_unit_66636.cif
_audit_creation_date              2012-12-11T14:03:27-0500
_audit_creation_method            fapswitch 2.2
_symmetry_space_group_name_H-M    P1
_symmetry_Int_Tables_number       1
_space_group_crystal_system       triclinic
_cell_length_a                    6.946663
_cell_length_b                    11.498788
_cell_length_c                    18.747037
_cell_angle_alpha                 90.000173
_cell_angle_beta                  91.899981
_cell_angle_gamma                 90.000192
_cell_volume                      1496.65639334

loop_
_atom_site_label
_atom_site_type_symbol
_atom_type_description
_atom_site_fract_x
_atom_site_fract_y
_atom_site_fract_z
_atom_type_partial_charge
O1    O     O_R   0.330540 0.606360 0.598870 -0.545942
O2    O     O_R   0.669460 0.106360 0.401130 -0.545938
O3    O     O_R   0.026770 0.620470 0.750430 -0.520386
O4    O     O_R   0.973230 0.120470 0.249570 -0.520388
O5    O     O_R   0.856460 0.393640 0.750930 -0.522490
O6    O     O_R   0.143540 0.893640 0.249070 -0.522480
C1    C     C_R   0.197756 0.644753 0.776561 0.750674
C2    C     C_R   0.802243 0.144754 0.223438 0.750672
O7    O     O_R   0.000920 0.620350 0.599420 -0.549159
O8    O     O_R   0.999080 0.120350 0.400580 -0.549164
O9    O     O_R   0.830430 0.393520 0.598850 -0.548445
O10   O     O_R   0.169570 0.893520 0.401150 -0.548443
C3    C     C_R   0.168618 0.649434 0.575917 0.751774
C4    C     C_R   0.831383 0.149434 0.424083 0.751771
O11   O     O_R   0.356570 0.606480 0.750960 -0.542141
O12   O     O_R   0.643430 0.106480 0.249040 -0.542137
O13   O     O_3   0.176990 0.425580 0.674890 -0.379873
O14   O     O_3   0.823010 0.925580 0.325110 -0.379874
V1    V     V_3+5 0.902170 0.513810 0.674910 1.445171
V2    V     V_3+5 0.097830 0.013810 0.325090 1.445178
O15   O     O_R   0.500800 0.379530 0.599380 -0.550585
O16   O     O_R   0.499200 0.879530 0.400620 -0.550587
C5    C     C_R   0.668505 0.350386 0.575923 0.750569
C6    C     C_R   0.331495 0.850386 0.424077 0.750567
O17   O     O_R   0.526650 0.379650 0.750390 -0.538641
O18   O     O_R   0.473350 0.879650 0.249610 -0.538647
C7    C     C_R   0.696592 0.351425 0.773918 0.781627
C8    C     C_R   0.303408 0.851424 0.226082 0.781614
V3    V     V_3+5 0.402160 0.486190 0.674900 1.420652
V4    V     V_3+5 0.597840 0.986190 0.325100 1.420657
O19   O     O_3   0.677210 0.574420 0.674910 -0.374769
O20   O     O_3   0.322790 0.074420 0.325090 -0.374766
C9    C     C_R   0.687621 0.069964 0.875995 -0.157974
C10   C     C_R   0.312454 0.569966 0.124003 -0.158012
H1    H     H_    0.703457 0.939041 0.989101 0.147582
H2    H     H_    0.296609 0.439043 0.010894 0.147580
H3    H     H_    0.679265 0.977196 0.865793 0.140853
H4    H     H_    0.320838 0.477199 0.134203 0.140870
C11   C     C_R   0.704249 0.266802 0.832214 -0.042126
C12   C     C_R   0.295756 0.766800 0.167786 -0.042164
C13   C     C_R   0.804729 0.347927 0.177473 0.153339
C14   C     C_R   0.195225 0.847922 0.822530 0.153300
C15   C     C_R   0.794091 0.428341 0.120644 0.201578
C16   C     C_R   0.205820 0.928335 0.879359 0.201579
C17   C     C_R   0.756320 0.389429 0.051098 -0.213791
C18   C     C_R   0.243662 0.889430 0.948902 -0.213722
C19   C     C_R   0.736840 0.270328 0.033948 0.043054
C20   C     C_R   0.263166 0.770329 0.966051 0.043060
C21   C     C_R   0.757542 0.186898 0.090258 -0.034788
C22   C     C_R   0.242466 0.686898 0.909742 -0.034779
C23   C     C_R   0.710304 0.231672 0.961426 0.074233
C24   C     C_R   0.289715 0.731673 0.038573 0.074250
C25   C     C_R   0.697246 0.111251 0.946585 0.057152
C26   C     C_R   0.302804 0.611252 0.053412 0.056979
C27   C     C_R   0.706757 0.031301 0.001748 -0.237548
C28   C     C_R   0.293292 0.531302 0.998248 -0.237557
C29   C     C_R   0.749056 0.066315 0.071501 -0.026772
C30   C     C_R   0.250968 0.566315 0.928497 -0.026740
C31   C     C_R   0.702433 0.308170 0.902448 -0.162102
C32   C     C_R   0.297561 0.808170 0.097552 -0.162138
C33   C     C_R   0.693293 0.146895 0.818459 0.124902
C34   C     C_R   0.306755 0.646895 0.181539 0.125129
C35   C     C_R   0.788319 0.227034 0.162604 -0.132058
C36   C     C_R   0.211678 0.727032 0.837396 -0.132065
H5    H     H_    0.692551 0.400857 0.908798 0.151555
H6    H     H_    0.307417 0.900858 0.091202 0.151561
H7    H     H_    0.747240 0.456165 0.010918 0.147019
H8    H     H_    0.252766 0.956167 0.989081 0.146992
C37   C     C_2   0.822066 0.246310 0.475814 -0.027914
C38   C     C_2   0.177936 0.746310 0.524187 -0.027918
C39   C     C_2   0.677736 0.253571 0.524148 -0.023529
C40   C     C_2   0.322263 0.753571 0.475852 -0.023528
C41   C     C_3   0.683797 0.100723 0.743214 -0.827153
H9    H     H_    0.553596 0.135259 0.714538 0.205924
H10   H     H_    0.813947 0.128181 0.714771 0.199495
H11   H     H_    0.675981 0.004249 0.742064 0.214948
C42   C     C_3   0.316270 0.600720 0.256783 -0.827184
H12   H     H_    0.446407 0.635297 0.285465 0.205911
H13   H     H_    0.186100 0.628124 0.285218 0.199506
H14   H     H_    0.324190 0.504260 0.257935 0.214957
C43   C     C_3   0.527537 0.158578 0.531351 -0.780819
H15   H     H_    0.445723 0.168343 0.580877 0.196320
H16   H     H_    0.421553 0.161915 0.485754 0.231157
H17   H     H_    0.597663 0.071803 0.534389 0.202341
C44   C     C_3   0.472459 0.658578 0.468648 -0.780823
H18   H     H_    0.554274 0.668342 0.419121 0.196321
H19   H     H_    0.578445 0.661914 0.514244 0.231157
H20   H     H_    0.402332 0.571802 0.465610 0.202341
C45   C     C_3   0.829826 0.392760 0.253495 -0.793768
H21   H     H_    0.816811 0.325205 0.295097 0.188816
H22   H     H_    0.974240 0.432893 0.261089 0.212407
H23   H     H_    0.717012 0.458420 0.263996 0.215193
C46   C     C_3   0.170159 0.892758 0.746507 -0.793748
H24   H     H_    0.183449 0.825224 0.704905 0.188815
H25   H     H_    0.025651 0.932757 0.738879 0.212349
H26   H     H_    0.282824 0.958533 0.736042 0.215248
C47   C     C_3   0.822012 0.557946 0.130952 -0.763995
H27   H     H_    0.878224 0.582683 0.184730 0.216299
H28   H     H_    0.924921 0.591059 0.091946 0.217754
H29   H     H_    0.684772 0.604210 0.120525 0.227258
C48   C     C_3   0.177835 0.057931 0.869041 -0.764099
H30   H     H_    0.120942 0.082580 0.815337 0.216378
H31   H     H_    0.075416 0.091126 0.908205 0.217745
H32   H     H_    0.315219 0.104179 0.879201 0.227283
C49   C     C_2   0.833181 0.974050 0.116078 0.722189
O21   O     O_2   0.002517 0.981645 0.133928 -0.573715
O22   O     O_R   0.728234 0.874061 0.131226 -0.666741
H33   H     H_    0.806311 0.815940 0.160754 0.295254
C50   C     C_2   0.166829 0.474050 0.883923 0.722183
O23   O     O_2   0.997485 0.481642 0.866083 -0.573717
O24   O     O_R   0.271785 0.374069 0.868758 -0.666738
H34   H     H_    0.193699 0.315948 0.839232 0.295258
C51   C     C_3   0.971875 0.341480 0.468440 -0.783529
H35   H     H_    0.052842 0.331996 0.418679 0.200826
H36   H     H_    0.901498 0.428196 0.465643 0.201935
H37   H     H_    0.078448 0.338112 0.513851 0.230904
C52   C     C_3   0.028131 0.841482 0.531563 -0.783526
H38   H     H_    0.947169 0.831999 0.581325 0.200830
H39   H     H_    0.098512 0.928198 0.534359 0.201934
H40   H     H_    0.921555 0.838116 0.486152 0.230902

loop_
_geom_bond_atom_site_label_1
_geom_bond_atom_site_label_2
_ccdc_geom_bond_type
C29   C49   S    
C46   H24   S    
C21   C35   A    
C14   C46   S    
C22   C36   A    
C41   H9    S    
C34   C42   S    
C13   C45   S    
O24   H34   S    
O4    C2    A    
V1    O19   S    
C43   H17   S    
C40   C44   S    
C21   C29   A    
C19   C21   A    
C42   H12   S    
C49   O22   S    
O9    V1    S    
C48   H30   S    
C12   C32   A    
C43   H15   S    
O3    C1    A    
C50   O24   S    
C44   H20   S    
C3    C38   S    
C8    C12   S    
C38   C52   S    
O12   V4    S    
C30   C50   S    
C47   H27   S    
C10   C34   A    
C12   C34   A    
C17   C19   A    
C37   C39   D    
O7    C3    A    
C24   C32   A    
C43   H16   S    
O5    C7    A    
O7    V1    S    
O6    C8    A    
C7    C11   S    
C17   H7    S    
O22   H33   S    
O3    V1    S    
O14   V4    S    
C45   H22   S    
C51   H37   S    
C44   H19   S    
C32   H6    S    
C2    O12   A    
C9    C25   A    
C13   C15   A    
C14   C16   A    
C47   H28   S    
C24   C26   A    
O11   V3    S    
C18   C20   A    
C42   H13   S    
O17   V3    S    
C11   C33   A    
C26   C28   A    
H1    C27   S    
C22   C30   A    
C5    C39   S    
O8    C4    A    
C52   H40   S    
O8    V2    S    
C19   C23   A    
C1    O11   A    
C16   C18   A    
C33   C41   S    
C44   H18   S    
O15   V3    S    
C9    H3    S    
C23   C25   A    
C18   H8    S    
H2    C28   S    
C11   C31   A    
O10   V2    S    
O1    V3    S    
C27   C29   A    
C45   H23   S    
C20   C22   A    
C15   C17   A    
C9    C33   A    
C10   C26   A    
C46   H26   S    
O15   C5    A    
C4    C37   S    
O16   C6    A    
O1    C3    A    
C41   H10   S    
C25   C27   A    
C14   C36   A    
C47   H29   S    
C6    C40   S    
C51   H35   S    
V2    O20   S    
C42   H14   S    
O16   V4    S    
C10   H4    S    
C15   C47   S    
C16   C48   S    
O18   V4    S    
O5    V1    S    
O17   C7    A    
O6    V2    S    
C49   O21   D    
O10   C6    A    
O18   C8    A    
O2    V4    S    
C52   H39   S    
V3    O19   S    
O13   V3    S    
C31   H5    S    
V4    O20   S    
C46   H25   S    
O9    C5    A    
O13   V1    S    
C28   C30   A    
O14   V2    S    
O2    C4    A    
C1    C36   S    
C2    C35   S    
O4    V2    S    
C20   C24   A    
C23   C31   A    
C41   H11   S    
C48   H31   S    
C37   C51   S    
C50   O23   D    
C13   C35   A    
C38   C40   D    
C48   H32   S    
C39   C43   S    
C45   H21   S    
C52   H38   S    
C51   H36   S    
