data_mof_unit_22969.cif
_audit_creation_date              2012-12-10T17:50:12-0500
_audit_creation_method            fapswitch 2.2
_symmetry_space_group_name_H-M    P1
_symmetry_Int_Tables_number       1
_space_group_crystal_system       triclinic
_cell_length_a                    10.625833
_cell_length_b                    14.776979
_cell_length_c                    14.777874
_cell_angle_alpha                 63.993588
_cell_angle_beta                  104.475907
_cell_angle_gamma                 102.950554
_cell_volume                      2001.67377274

loop_
_atom_site_label
_atom_site_type_symbol
_atom_type_description
_atom_site_fract_x
_atom_site_fract_y
_atom_site_fract_z
_atom_type_partial_charge
C1    C     C_R   0.480955 0.120441 0.312006 0.803945
C2    C     C_R   0.521539 0.879548 0.688355 0.797186
C3    C     C_R   0.512344 0.295015 0.178793 -0.169755
C4    C     C_R   0.545538 0.707068 0.826908 -0.185318
C5    C     C_R   0.556575 0.363863 0.087475 0.113101
C6    C     C_R   0.582996 0.641548 0.929901 0.118208
C7    C     C_R   0.557222 0.326295 0.014518 0.122916
C8    C     C_R   0.598989 0.679542 0.005404 0.127894
C9    C     C_R   0.592466 0.469711 0.064253 -0.007898
C10   C     C_R   0.595752 0.537615 0.960317 -0.012956
C11   C     C_R   0.611792 0.498094 0.892080 -0.023359
C12   C     C_R   0.625889 0.511186 0.139541 -0.033847
C13   C     C_R   0.589871 0.393114 0.919625 -0.234677
C14   C     C_R   0.625911 0.615348 0.108599 -0.244007
C15   C     C_R   0.748754 0.303389 0.638808 -0.152610
C16   C     C_R   0.250524 0.704586 0.351942 -0.143501
C17   C     C_R   0.697260 0.210768 0.629819 0.089164
C18   C     C_R   0.301894 0.793109 0.369017 0.102174
C19   C     C_R   0.515955 0.284748 0.507980 0.090870
C20   C     C_R   0.487066 0.716724 0.482405 0.068835
C21   C     C_R   0.551764 0.374988 0.525906 0.017029
C22   C     C_R   0.449767 0.631429 0.455564 0.007926
C23   C     C_R   0.259672 0.999448 0.500898 0.793894
C24   C     C_R   0.740433 0.999878 0.500055 0.797316
C25   C     C_R   0.677729 0.386959 0.583397 0.037498
C26   C     C_R   0.323757 0.622389 0.397848 0.030357
C27   C     C_R   0.471943 0.455930 0.484593 0.015143
C28   C     C_R   0.530062 0.552620 0.488278 0.039693
C29   C     C_R   0.666918 0.567434 0.522918 0.022684
C30   C     C_R   0.336965 0.445694 0.439795 -0.034591
C31   C     C_R   0.734267 0.483599 0.579090 -0.112924
C32   C     C_R   0.271133 0.530610 0.388983 -0.165660
C33   C     C_3   0.014628 0.909264 0.505266 -0.067127
C34   C     C_3   0.985506 0.088750 0.496926 -0.081998
C35   C     C_3   0.926004 0.985126 0.418944 -0.151805
C36   C     C_3   0.074106 0.012898 0.583333 -0.125029
C37   C     C_3   0.877550 0.999559 0.500445 0.002368
C38   C     C_3   0.122548 0.998571 0.501724 -0.003974
C39   C     C_3   0.963830 0.923678 0.586786 -0.192241
C40   C     C_3   0.036122 0.074100 0.415436 -0.209479
C41   C     C_R   0.491449 0.189960 0.205295 -0.055561
C42   C     C_R   0.541894 0.810523 0.797984 -0.068159
C43   C     C_R   0.528669 0.221626 0.038329 -0.162065
C44   C     C_R   0.589608 0.782058 0.976910 -0.150853
C45   C     C_R   0.498837 0.153650 0.134006 -0.145280
C46   C     C_R   0.562354 0.847156 0.874043 -0.126492
Cu1   Cu    Cu3+1 0.465750 0.918270 0.475680 0.979223
Cu2   Cu    Cu3+1 0.534250 0.081730 0.524320 0.983498
H1    H     H_    0.862792 0.975801 0.350659 0.143573
H2    H     H_    0.137728 0.024465 0.650480 0.170519
H3    H     H_    0.572598 0.720389 0.538937 0.144063
H4    H     H_    0.437170 0.278840 0.448104 0.138572
H5    H     H_    0.031167 0.836001 0.509379 0.223682
H6    H     H_    0.969775 0.161989 0.493525 0.196308
H7    H     H_    0.930988 0.862183 0.656799 0.161942
H8    H     H_    0.068378 0.133416 0.344183 0.150386
H9    H     H_    0.600225 0.363049 0.867134 0.184756
H10   H     H_    0.648568 0.647069 0.165466 0.187098
H11   H     H_    0.516474 0.678118 0.768206 0.155326
H12   H     H_    0.494552 0.322275 0.230777 0.148812
H13   H     H_    0.554989 0.925654 0.854319 0.198965
H14   H     H_    0.484414 0.072942 0.152784 0.194516
H15   H     H_    0.532383 0.192163 0.983698 0.157553
H16   H     H_    0.603126 0.811906 0.034357 0.157130
H17   H     H_    0.835915 0.496417 0.612513 0.193109
H18   H     H_    0.171827 0.521325 0.349369 0.202703
N1    N     N_R   0.585750 0.204560 0.560800 -0.236885
N2    N     N_R   0.414250 0.795440 0.439200 -0.233892
O1    O     O_R   0.454850 0.022100 0.338110 -0.563119
O2    O     O_R   0.545150 0.977900 0.661890 -0.561750
O3    O     O_R   0.512700 0.160150 0.379180 -0.592057
O4    O     O_R   0.487300 0.839850 0.620820 -0.588719
O5    O     O_R   0.287930 0.931000 0.479440 -0.577223
O6    O     O_R   0.712070 0.069000 0.520560 -0.575528
O7    O     O_R   0.345780 0.069050 0.520520 -0.570911
O8    O     O_R   0.654220 0.930950 0.479480 -0.583955
C47   C     C_2   0.230490 0.882200 0.309459 0.930571
O9    O     O_2   0.265472 0.948009 0.231019 -0.585611
O10   O     O_R   0.112384 0.883147 0.334208 -0.773805
H19   H     H_    0.069172 0.945677 0.284940 0.326602
C48   C     C_2   0.770708 0.123247 0.691284 0.927688
O11   O     O_2   0.735873 0.057862 0.769818 -0.595565
O12   O     O_R   0.888645 0.122148 0.666415 -0.762203
H20   H     H_    0.932514 0.060126 0.716291 0.332164
C49   C     C_2   0.876443 0.311620 0.706255 0.852548
O13   O     O_2   0.883756 0.270073 0.799087 -0.565008
O14   O     O_R   0.988056 0.365166 0.663129 -0.721922
H21   H     H_    0.069221 0.364906 0.716682 0.348683
C50   C     C_2   0.120497 0.699265 0.285770 0.849644
O15   O     O_2   0.108223 0.749776 0.193529 -0.556028
O16   O     O_R   0.012566 0.637389 0.329742 -0.719766
H22   H     H_    0.929509 0.640273 0.277241 0.349977
C51   C     C_2   0.746755 0.668833 0.490324 0.831742
O17   O     O_2   0.842762 0.687164 0.548463 -0.620801
O18   O     O_R   0.714839 0.742001 0.391296 -0.751027
H23   H     H_    0.779011 0.806602 0.376638 0.337061
C52   C     C_2   0.252685 0.348897 0.449403 0.808933
O19   O     O_2   0.251910 0.277282 0.532806 -0.578223
O20   O     O_R   0.168258 0.342512 0.362610 -0.757401
H24   H     H_    0.108892 0.275912 0.378358 0.328709
C53   C     C_2   0.670774 0.561567 0.799197 0.833284
O21   O     O_2   0.635219 0.541737 0.723995 -0.631678
O22   O     O_R   0.768443 0.642953 0.798184 -0.744355
H25   H     H_    0.799968 0.680759 0.730150 0.345916
C54   C     C_2   0.681556 0.452741 0.248319 0.832132
O23   O     O_2   0.665742 0.474348 0.315357 -0.604271
O24   O     O_R   0.756293 0.375433 0.273786 -0.738816
H26   H     H_    0.788760 0.341512 0.350065 0.346095

loop_
_geom_bond_atom_site_label_1
_geom_bond_atom_site_label_2
_ccdc_geom_bond_type
C25   C31   A    
C38   C40   S    
O14   H21   S    
C26   C32   A    
C53   O21   D    
C34   C37   S    
O18   H23   S    
C52   O19   D    
C43   H15   S    
C47   O9    D    
C44   H16   S    
C54   O24   S    
C30   C52   S    
C51   O17   D    
C34   C40   S    
Cu2   O2    S    
C28   C29   A    
C35   C37   S    
C2    C42   S    
Cu1   O8    S    
C20   H3    S    
C12   C54   S    
C15   C25   A    
C13   H9    S    
C18   N2    A    
C45   H14   S    
C31   H17   S    
C42   C46   A    
Cu1   O1    S    
C48   O12   S    
C19   H4    S    
C39   H7    S    
Cu1   Cu2   S    
C40   H8    S    
C35   H1    S    
O24   H26   S    
C19   N1    A    
C7    C43   A    
C50   O16   S    
C9    C10   A    
C34   C36   S    
C15   C49   S    
C3    H12   S    
C47   O10   S    
C21   C27   A    
C16   C50   S    
C51   O18   S    
C22   C28   A    
C27   C30   A    
C33   H5    S    
Cu2   O7    S    
C23   O5    A    
C2    O4    A    
C52   O20   S    
C44   C46   A    
C48   O11   D    
C49   O14   S    
C16   C26   A    
C14   H10   S    
C17   N1    A    
C46   H13   S    
Cu2   O6    S    
Cu1   O5    S    
C4    C6    A    
C23   O7    A    
O16   H22   S    
C5    C7    A    
C29   C51   S    
C24   O8    A    
C6    C8    A    
C49   O13   D    
C1    O1    A    
C5    C9    A    
O12   H20   S    
C7    C13   A    
C24   C37   S    
C11   C53   S    
C16   C18   A    
C33   C39   S    
C43   C45   A    
C1    C41   S    
C20   C22   A    
C34   H6    S    
Cu2   O3    S    
Cu1   N2    S    
C27   C28   A    
C36   H2    S    
C32   H18   S    
C15   C17   A    
C21   C25   A    
C3    C41   A    
C8    C14   A    
C19   C21   A    
C20   N2    A    
C36   C39   S    
C8    C44   A    
C12   C14   A    
C3    C5    A    
C6    C10   A    
C23   C38   S    
C54   O23   D    
C33   C38   S    
O20   H24   S    
C36   C38   S    
C35   C40   S    
C29   C31   A    
C30   C32   A    
C11   C13   A    
C24   O6    A    
C4    C42   A    
C1    O3    A    
C18   C47   S    
C4    H11   S    
C33   C35   S    
C17   C48   S    
Cu2   N1    S    
C9    C12   A    
Cu1   O4    S    
C10   C11   A    
O10   H19   S    
C37   C39   S    
C53   O22   S    
C22   C26   A    
O22   H25   S    
C41   C45   A    
C50   O15   D    
C2    O2    A    
