data_mof_unit_47000.cif
_audit_creation_date              2012-12-11T14:21:01-0500
_audit_creation_method            fapswitch 2.2
_symmetry_space_group_name_H-M    P1
_symmetry_Int_Tables_number       1
_space_group_crystal_system       triclinic
_cell_length_a                    11.431295
_cell_length_b                    11.585219
_cell_length_c                    19.57968
_cell_angle_alpha                 89.814192
_cell_angle_beta                  89.480745
_cell_angle_gamma                 60.133835
_cell_volume                      2248.54568801

loop_
_atom_site_label
_atom_site_type_symbol
_atom_type_description
_atom_site_fract_x
_atom_site_fract_y
_atom_site_fract_z
_atom_type_partial_charge
C1    C     C_R   0.640529 0.116447 0.599452 0.538386
C2    C     C_1   0.653417 0.148367 0.668745 -0.000368
C3    C     C_R   0.677534 0.598409 0.203654 -0.014634
C4    C     C_R   0.613939 0.742921 0.597958 0.544931
C5    C     C_R   0.543369 0.654295 0.231461 0.041280
C6    C     C_R   0.509409 0.741699 0.286203 0.021017
C7    C     C_R   0.747357 0.671106 0.301640 -0.156916
C8    C     C_R   0.778477 0.604064 0.240257 -0.174192
C9    C     C_R   0.439729 0.631330 0.205324 -0.091869
C10   C     C_R   0.305942 0.708403 0.224693 -0.115579
C11   C     C_R   0.271333 0.806426 0.272650 -0.111437
C12   C     C_1   0.651263 0.683092 0.664142 -0.003354
C13   C     C_R   0.371864 0.822133 0.302892 -0.097481
C14   C     C_R   0.613763 0.742593 0.324537 -0.013075
C15   C     C_R   0.147816 0.189201 0.189776 0.011616
C16   C     C_R   0.296018 0.120741 0.605206 0.560956
C17   C     C_R   0.234537 0.232593 0.212478 0.025826
C18   C     C_R   0.250034 0.240324 0.283187 0.023049
C19   C     C_R   0.124253 0.122557 0.303843 -0.191025
C20   C     C_R   0.093440 0.133910 0.235241 -0.151818
C21   C     C_R   0.295257 0.280452 0.165644 -0.085715
C22   C     C_R   0.340750 0.364176 0.187394 -0.120658
C23   C     C_1   0.145519 0.191312 0.862935 0.002394
C24   C     C_R   0.336925 0.391427 0.256272 -0.095959
C25   C     C_R   0.301916 0.324168 0.303887 -0.078832
C26   C     C_R   0.206003 0.170001 0.328435 -0.008060
C27   C     C_R   0.680119 0.184680 0.196768 -0.028139
C28   C     C_R   0.650239 0.112229 0.403796 0.564476
C29   C     C_R   0.746390 0.052557 0.222465 0.000908
C30   C     C_R   0.772200 0.035019 0.292494 -0.055630
C31   C     C_R   0.631786 0.270728 0.313314 0.230333
C32   C     C_R   0.635461 0.290567 0.243253 -0.150684
C33   C     C_R   0.802159 0.938249 0.180272 -0.117607
C34   C     C_1   0.224718 0.146171 0.735266 -0.031709
C35   C     C_R   0.901275 0.814954 0.205274 -0.082816
C36   C     C_R   0.947281 0.802477 0.272309 0.257908
C37   C     C_R   0.884582 0.915336 0.314827 -0.095241
C38   C     C_R   0.689268 0.141460 0.337308 0.014043
C39   C     C_R   0.083886 0.230865 0.929200 0.537793
C40   C     C_R   0.585754 0.794725 0.393965 0.535995
C41   C     C_R   0.709769 0.545873 0.922559 0.563857
C42   C     C_R   0.708146 0.207455 0.929939 0.540519
C43   C     C_R   0.083260 0.234620 0.124461 0.525434
C44   C     C_R   0.706756 0.550980 0.133631 0.553104
C45   C     C_1   0.185858 0.166826 0.804771 -0.028452
C46   C     C_R   0.707223 0.209963 0.126781 0.525208
C47   C     C_R   0.251572 0.140131 0.399153 0.530207
C48   C     C_1   0.700101 0.580837 0.851729 -0.000466
C49   C     C_1   0.673064 0.644571 0.722332 -0.030023
C50   C     C_1   0.690062 0.608615 0.791924 -0.030788
C51   C     C_3   0.665506 0.423673 0.369883 0.002057
C52   C     C_3   0.772260 0.339501 0.423062 -0.270946
C53   C     C_3   0.862407 0.398478 0.438798 -0.465160
C54   C     C_3   0.064015 0.651061 0.361848 -0.015149
C55   C     C_3   0.177614 0.661712 0.396831 -0.269387
C56   C     C_1   0.255856 0.133140 0.675635 -0.001101
C57   C     C_3   0.198698 0.608736 0.469763 -0.450145
C58   C     C_1   0.678084 0.192659 0.860585 0.000870
C59   C     C_1   0.658802 0.166595 0.728992 -0.031715
C60   C     C_1   0.665488 0.181605 0.800237 -0.030876
Cr1   Cr    Cr6+3 0.404720 0.198220 0.499960 1.004463
Cr2   Cr    Cr6+3 0.698290 0.897110 0.500380 0.991527
Cr3   Cr    Cr6+3 0.396970 0.904720 0.499610 1.002517
Cr4   Cr    Cr6+3 0.926180 0.151990 0.028120 1.020317
Cr5   Cr    Cr6+3 0.921330 0.451820 0.027470 1.021762
Cr6   Cr    Cr6+3 0.626260 0.446870 0.028710 1.003070
H1    H     H_    0.828212 0.665026 0.331703 0.149734
H2    H     H_    0.881658 0.555812 0.221524 0.155811
H3    H     H_    0.229505 0.691769 0.202127 0.154904
H4    H     H_    0.167000 0.867429 0.287765 0.125816
H5    H     H_    0.082813 0.078243 0.338190 0.106721
H6    H     H_    0.298921 0.261076 0.111367 0.129943
H7    H     H_    0.022471 0.103988 0.218217 0.148482
H8    H     H_    0.605581 0.525990 0.390152 0.198788
H9    H     H_    0.715311 0.430257 0.322060 0.128038
H10   H     H_    0.721579 0.334771 0.470849 0.180352
H11   H     H_    0.836997 0.236673 0.403511 0.147980
H12   H     H_    0.376300 0.409575 0.150574 0.112699
H13   H     H_    0.914898 0.402892 0.391643 0.149983
H14   H     H_    0.939571 0.335023 0.476745 0.167185
H15   H     H_    0.801452 0.500317 0.460303 0.174149
H16   H     H_    0.085589 0.546714 0.365611 0.150714
H17   H     H_    0.967623 0.710332 0.390416 0.131872
H18   H     H_    0.273268 0.603781 0.367754 0.199959
H19   H     H_    0.152951 0.767237 0.398181 0.148325
H20   H     H_    0.104880 0.666180 0.500447 0.145303
H21   H     H_    0.280830 0.618810 0.493761 0.162622
H22   H     H_    0.227716 0.501842 0.469801 0.164555
H23   H     H_    0.367134 0.460912 0.273429 0.157459
H24   H     H_    0.341542 0.897943 0.339121 0.163473
H25   H     H_    0.309081 0.350820 0.355306 0.176186
H26   H     H_    0.773861 0.944713 0.127188 0.142399
H27   H     H_    0.607011 0.387911 0.225575 0.109867
H28   H     H_    0.947052 0.729854 0.171297 0.134358
H29   H     H_    0.928333 0.912857 0.363784 0.124738
H30   H     H_    0.457464 0.553852 0.169619 0.136788
O1    O     O_R   0.267740 0.231960 0.575440 -0.506011
O2    O     O_R   0.596130 0.579390 0.952730 -0.491181
O3    O     O_R   0.639060 0.321160 0.958670 -0.511213
O4    O     O_R   0.527280 0.186640 0.570530 -0.507603
O5    O     O_R   0.821240 0.124200 0.104370 -0.514689
O6    O     O_R   0.036890 0.167040 0.097840 -0.500626
O7    O     O_R   0.056180 0.349610 0.102880 -0.528973
O8    O     O_R   0.797660 0.564870 0.097950 -0.485303
O9    O     O_R   0.595880 0.584250 0.104270 -0.518127
O10   O     O_R   0.638830 0.325670 0.099150 -0.535391
O11   O     O_3   0.824590 0.350230 0.028100 -0.290209
O12   O     O_R   0.685970 0.784660 0.430010 -0.514924
O13   O     O_R   0.728090 0.003450 0.576380 -0.506231
O14   O     O_R   0.682970 0.789190 0.570490 -0.492526
O15   O     O_R   0.499290 0.771880 0.575530 -0.507316
O16   O     O_R   0.285330 0.030870 0.569730 -0.486802
O17   O     O_R   0.270980 0.227080 0.423890 -0.544646
O18   O     O_R   0.530280 0.182120 0.430050 -0.471048
O19   O     O_R   0.731330 0.998570 0.424830 -0.553315
O20   O     O_3   0.574435 0.376553 0.358480 -0.588993
O21   O     O_3   0.059069 0.681934 0.291257 -0.597071
O22   O     O_R   0.502530 0.767000 0.423990 -0.537063
O23   O     O_R   0.288330 0.026350 0.429250 -0.526309
O24   O     O_3   0.499990 0.000020 0.499980 -0.277929
O25   O     O_R   0.821500 0.119340 0.952830 -0.500000
O26   O     O_R   0.037130 0.162530 0.957360 -0.489774
O27   O     O_R   0.056440 0.344740 0.951340 -0.515006
O28   O     O_R   0.797900 0.560360 0.957470 -0.479738

loop_
_geom_bond_atom_site_label_1
_geom_bond_atom_site_label_2
_ccdc_geom_bond_type
C40   O22   A    
C34   C56   T    
C23   C45   T    
C13   H24   S    
C27   C29   A    
C19   H5    S    
C19   C20   A    
C18   C26   A    
C51   H8    S    
Cr6   O11   S    
C24   H23   S    
C42   C58   S    
C12   C49   T    
C44   O8    A    
C11   H4    S    
C7    C8    A    
C44   O9    A    
Cr4   O6    S    
C37   H29   S    
C39   O26   A    
C41   O28   A    
C36   C37   A    
C53   H13   S    
C51   H9    S    
C5    C6    A    
Cr4   O26   S    
C16   O1    A    
Cr2   O12   S    
C58   C60   T    
Cr4   O25   S    
C29   C33   A    
C39   O27   A    
C57   H20   S    
C30   C38   A    
C53   H15   S    
C1    C2    S    
Cr5   O28   S    
Cr3   O16   S    
C19   C26   A    
C1    O13   A    
C7    C14   A    
C35   C36   A    
C4    C12   S    
C9    C10   A    
Cr2   O24   S    
C40   O12   A    
C47   O23   A    
C32   H27   S    
C59   C60   S    
C21   C22   A    
Cr1   O24   S    
C15   C20   A    
C18   C25   A    
Cr6   O10   S    
C1    O4    A    
C54   H17   S    
Cr4   O5    S    
C46   O5    A    
C3    C44   S    
C25   H25   S    
C21   H6    S    
C51   C52   S    
C53   H14   S    
C24   C25   A    
C22   H12   S    
C3    C8    A    
C33   H26   S    
Cr3   O22   S    
C2    C59   T    
C3    C5    A    
C7    H1    S    
C17   C21   A    
C57   H21   S    
C30   C37   A    
Cr6   O3    S    
C55   H19   S    
C16   C56   S    
C5    C9    A    
C29   C30   A    
C28   O19   A    
C6    C14   A    
Cr3   O23   S    
C31   C32   A    
Cr2   O14   S    
C28   C38   S    
C17   C18   A    
C34   C45   S    
C36   O21   S    
C9    H30   S    
C28   O18   A    
C26   C47   S    
C27   C46   S    
C4    O15   A    
C8    H2    S    
C55   C57   S    
Cr1   O17   S    
C22   C24   A    
Cr1   O4    S    
Cr5   O7    S    
Cr6   O9    S    
C52   H11   S    
C31   O20   S    
C54   H16   S    
C52   C53   S    
C16   O16   A    
Cr4   O11   S    
C35   H28   S    
C47   O17   A    
C4    O14   A    
C54   C55   S    
C27   C32   A    
Cr1   O1    S    
C52   H10   S    
C57   H22   S    
C15   C17   A    
C51   O20   S    
C31   C38   A    
Cr6   O2    S    
C43   O6    A    
C15   C43   S    
Cr2   O19   S    
C42   O3    A    
C6    C13   A    
Cr3   O24   S    
C11   C13   A    
Cr2   O13   S    
C23   C39   S    
C46   O10   A    
C48   C50   T    
C33   C35   A    
C41   C48   S    
C20   H7    S    
Cr5   O27   S    
Cr3   O15   S    
C43   O7    A    
C10   C11   A    
C14   C40   S    
C10   H3    S    
C49   C50   S    
C54   O21   S    
Cr1   O18   S    
C41   O2    A    
Cr5   O8    S    
C55   H18   S    
Cr5   O11   S    
C42   O25   A    
