data_mof_unit_59589.cif
_audit_creation_date              2012-12-10T19:04:42-0500
_audit_creation_method            fapswitch 2.2
_symmetry_space_group_name_H-M    P1
_symmetry_Int_Tables_number       1
_space_group_crystal_system       triclinic
_cell_length_a                    15.85292
_cell_length_b                    10.793946
_cell_length_c                    9.551122
_cell_angle_alpha                 90.245586
_cell_angle_beta                  90.148399
_cell_angle_gamma                 90.581529
_cell_volume                      1634.24075261

loop_
_atom_site_label
_atom_site_type_symbol
_atom_type_description
_atom_site_fract_x
_atom_site_fract_y
_atom_site_fract_z
_atom_type_partial_charge
C1    C     C_R   0.503109 0.262498 0.499534 0.880075
C2    C     C_3   0.082895 0.500655 0.498283 0.129293
C3    C     C_3   0.974409 0.610044 0.542724 0.508227
C4    C     C_3   0.917291 0.501804 0.499240 0.133243
C5    C     C_3   0.028993 0.590572 0.411584 -0.247460
C6    C     C_3   0.971287 0.479926 0.368048 -0.198964
C7    C     C_1   0.174545 0.500046 0.498561 -0.059247
C8    C     C_1   0.825556 0.502252 0.500091 -0.010262
C9    C     C_R   0.480188 0.064197 0.615073 0.025613
C10   C     C_R   0.511077 0.129239 0.500034 -0.149894
C11   C     C_R   0.551960 0.063108 0.391886 0.327388
C12   C     C_R   0.339841 0.499630 0.499788 0.841039
C13   C     C_R   0.549623 0.933589 0.393020 -0.236777
C14   C     C_R   0.509138 0.870492 0.502567 -0.123505
C15   C     C_R   0.480815 0.936999 0.618136 0.057587
C16   C     C_3   0.397508 0.930081 0.690787 -0.494937
C17   C     C_3   0.396046 0.070930 0.684682 0.283194
C18   C     C_R   0.545249 0.587119 0.074094 0.167892
C19   C     C_R   0.449074 0.420419 0.074609 0.558802
C20   C     C_R   0.448246 0.422799 0.924495 -0.181262
C21   C     C_R   0.545326 0.586962 0.927017 0.242306
C22   C     C_3   0.638280 0.608674 0.921552 -0.461630
C23   C     C_R   0.501438 0.737506 0.500377 0.807875
C24   C     C_3   0.638243 0.608819 0.080463 -0.471530
C25   C     C_R   0.660181 0.500601 0.500170 0.826985
C26   C     C_3   0.971435 0.411970 0.584894 -0.210725
C27   C     C_3   0.026905 0.390149 0.453694 -0.129374
C28   C     C_1   0.250123 0.499790 0.499199 -0.172473
C29   C     C_1   0.749948 0.501676 0.500391 -0.156538
C30   C     C_3   0.029064 0.522169 0.630251 -0.253697
Cu1   Cu    Cu3+1 0.500000 0.499980 0.640670 0.953240
Cu2   Cu    Cu3+1 0.500000 0.500020 0.359330 1.015805
H1    H     H_    0.049758 0.299159 0.415878 0.141864
H2    H     H_    0.403562 0.894249 0.799245 0.162981
H3    H     H_    0.400132 0.119180 0.787920 0.068130
H4    H     H_    0.406511 0.361464 0.866475 0.146521
H5    H     H_    0.673017 0.529087 0.876326 0.222814
H6    H     H_    0.654570 0.700440 0.876070 0.202534
H7    H     H_    0.672986 0.529308 0.125379 0.230473
H8    H     H_    0.654555 0.700653 0.126790 0.200494
H9    H     H_    0.946586 0.338397 0.654900 0.151349
H10   H     H_    0.946215 0.461903 0.261176 0.152744
H11   H     H_    0.053752 0.663717 0.340942 0.135933
H12   H     H_    0.053922 0.539777 0.737340 0.135124
H13   H     H_    0.577785 0.882628 0.307340 0.182613
H14   H     H_    0.347851 0.883500 0.626319 0.205138
N1    N     N_R   0.500530 0.500930 0.147930 -0.217694
N2    N     N_R   0.500530 0.500890 0.852020 -0.205180
O1    O     O_R   0.500000 0.319640 0.618810 -0.595757
O2    O     O_R   0.500010 0.319680 0.381230 -0.515426
O3    O     O_R   0.379070 0.499970 0.618770 -0.588526
O4    O     O_R   0.379080 0.500010 0.381190 -0.532649
O5    O     O_R   0.499990 0.680320 0.618770 -0.574966
O6    O     O_R   0.500000 0.680360 0.381190 -0.592255
O7    O     O_R   0.620920 0.499990 0.618810 -0.583267
O8    O     O_R   0.620930 0.500030 0.381230 -0.571074
O9    O     O_3   0.333981 0.113962 0.590636 -0.560859
C31   C     C_3   0.261467 0.148882 0.665646 0.073148
H15   H     H_    0.272656 0.240590 0.716273 0.144882
H16   H     H_    0.243758 0.079196 0.746645 0.137325
C32   C     C_3   0.187823 0.160051 0.564434 -0.796118
H17   H     H_    0.173014 0.068267 0.516885 0.239661
H18   H     H_    0.131386 0.193540 0.621275 0.198937
H19   H     H_    0.203896 0.226492 0.479952 0.257625
O10   O     O_3   0.393597 0.345678 0.149053 -0.554890
C33   C     C_3   0.397598 0.219751 0.107383 0.114742
H20   H     H_    0.414386 0.163936 0.200531 0.210245
H21   H     H_    0.445993 0.198840 0.026328 0.124020
C34   C     C_3   0.311046 0.176294 0.057095 -0.885778
H22   H     H_    0.289762 0.234284 0.968508 0.227688
H23   H     H_    0.313974 0.078151 0.022234 0.206631
H24   H     H_    0.264642 0.183862 0.143580 0.269873
O11   O     O_3   0.941231 0.724120 0.588275 -0.577101
C35   C     C_3   0.008099 0.806294 0.622062 0.062481
H25   H     H_    0.049937 0.822025 0.530255 0.135530
H26   H     H_    0.045984 0.770101 0.710943 0.138228
C36   C     C_3   0.972099 0.930676 0.665646 -0.767285
H27   H     H_    0.930696 0.918938 0.758378 0.254007
H28   H     H_    0.024278 0.995956 0.692845 0.191323
H29   H     H_    0.934833 0.970316 0.578297 0.253777
Cl1   Cl    Cl    0.605639 0.136610 0.253226 -0.660299

loop_
_geom_bond_atom_site_label_1
_geom_bond_atom_site_label_2
_ccdc_geom_bond_type
C33   H21   S    
C34   H24   S    
C18   C21   A    
O11   C35   S    
C19   C20   A    
C25   O8    A    
C4    C8    S    
C18   N1    A    
C36   H27   S    
C27   H1    S    
C26   C27   S    
C35   H26   S    
C12   C28   S    
C18   C24   S    
C8    C29   T    
C5    C6    S    
C19   N1    A    
C33   C34   S    
C31   H16   S    
C15   C16   S    
C22   H6    S    
C24   H7    S    
C34   H23   S    
C32   H18   S    
Cu2   O4    S    
C2    C7    S    
C16   H2    S    
Cu1   Cu2   S    
C16   C17   S    
C35   C36   S    
C2    C27   S    
C9    C10   A    
C21   N2    A    
C31   C32   S    
C33   H20   S    
C5    H11   S    
C21   C22   S    
C30   H12   S    
C34   H22   S    
Cu1   O1    S    
Cu2   O6    S    
C12   O4    A    
C23   O5    A    
C36   H28   S    
C25   C29   S    
C35   H25   S    
C4    C6    S    
C16   H14   S    
C31   H15   S    
C22   H5    S    
C11   Cl1   S    
C7    C28   T    
C14   C23   S    
C3    C30   S    
C6    C27   S    
Cu1   O5    S    
Cu2   O2    S    
C20   N2    A    
C9    C17   S    
C26   C30   S    
Cu1   N2    S    
Cu2   N1    S    
C22   C24   S    
C2    C5    S    
C3    C4    S    
C12   O3    A    
C23   O6    A    
C1    O2    A    
C36   H29   S    
C1    C10   S    
C25   O7    A    
Cu1   O3    S    
C3    C5    S    
C4    C26   S    
C2    C30   S    
C9    C15   A    
C32   H19   S    
C13   H13   S    
C11   C13   A    
O9    C31   S    
C24   H8    S    
C19   O10   S    
C32   H17   S    
C3    O11   S    
C10   C11   A    
C20   H4    S    
O10   C33   S    
C6    H10   S    
C14   C15   A    
C17   H3    S    
Cu1   O7    S    
C13   C14   A    
C1    O1    A    
Cu2   O8    S    
C26   H9    S    
C17   O9    S    
