data_mof_unit_39356.cif
_audit_creation_date              2012-12-11T14:08:31-0500
_audit_creation_method            fapswitch 2.2
_symmetry_space_group_name_H-M    P1
_symmetry_Int_Tables_number       1
_space_group_crystal_system       triclinic
_cell_length_a                    28.12759
_cell_length_b                    7.157505
_cell_length_c                    17.334864
_cell_angle_alpha                 89.77619
_cell_angle_beta                  101.638425
_cell_angle_gamma                 89.940611
_cell_volume                      3418.12916766

loop_
_atom_site_label
_atom_site_type_symbol
_atom_type_description
_atom_site_fract_x
_atom_site_fract_y
_atom_site_fract_z
_atom_type_partial_charge
O1    O     O_R   0.000700 0.436510 0.857920 -0.548056
O2    O     O_R   0.999300 0.563490 0.142080 -0.541833
O3    O     O_R   0.999300 0.936510 0.642080 -0.547430
O4    O     O_R   0.000700 0.063490 0.357920 -0.539850
O5    O     O_R   0.930080 0.766380 0.721890 -0.542044
O6    O     O_R   0.069920 0.233620 0.278110 -0.514449
O7    O     O_R   0.069920 0.266380 0.778110 -0.540968
O8    O     O_R   0.930080 0.733620 0.221890 -0.516380
C1    C     C_R   0.910467 0.597958 0.709738 0.783044
C2    C     C_R   0.089629 0.402286 0.289271 0.777444
C3    C     C_R   0.089710 0.097501 0.790415 0.779371
C4    C     C_R   0.910383 0.902527 0.211190 0.781796
O9    O     O_R   0.996180 0.766230 0.862310 -0.538137
O10   O     O_R   0.003820 0.233770 0.137690 -0.545851
O11   O     O_R   0.003820 0.266230 0.637690 -0.537693
O12   O     O_R   0.996180 0.733770 0.362310 -0.545894
O13   O     O_R   0.065870 0.936460 0.783500 -0.508991
O14   O     O_R   0.934130 0.063540 0.216500 -0.535190
O15   O     O_R   0.934130 0.436460 0.716500 -0.509205
O16   O     O_R   0.065870 0.563540 0.283500 -0.533322
C5    C     C_R   0.998127 0.595622 0.894089 0.790711
C6    C     C_R   0.002487 0.404759 0.106077 0.768349
C7    C     C_R   0.001928 0.095869 0.605829 0.788942
C8    C     C_R   0.997700 0.904401 0.394068 0.770700
O17   O     O_3   0.022790 0.603020 0.723980 -0.380104
O18   O     O_3   0.977210 0.396980 0.276020 -0.382439
O19   O     O_3   0.977210 0.103020 0.776020 -0.380568
O20   O     O_3   0.022790 0.896980 0.223980 -0.380446
V1    V     V_3+5 0.995770 0.877900 0.754830 1.483466
V2    V     V_3+5 0.004230 0.122100 0.245170 1.474530
V3    V     V_3+5 0.004230 0.377900 0.745170 1.484528
V4    V     V_3+5 0.995770 0.622100 0.254830 1.475557
C9    C     C_2   0.007840 0.078072 0.522792 -0.026856
C10   C     C_2   0.991106 0.923505 0.476818 -0.048341
C11   C     C_2   0.992593 0.578619 0.977187 -0.030934
C12   C     C_2   0.009061 0.423593 0.023384 -0.045862
C13   C     C_R   0.687093 0.997613 0.047949 0.711346
C14   C     C_R   0.317668 0.122443 0.969515 0.682342
C15   C     C_R   0.314885 0.499317 0.470113 0.708691
C16   C     C_R   0.682289 0.638856 0.535029 0.678934
O21   O     O_2   0.719563 0.980094 0.000957 -0.491252
O22   O     O_2   0.286972 0.187681 0.013609 -0.485728
O23   O     O_2   0.282986 0.507807 0.518492 -0.489663
O24   O     O_2   0.712025 0.714200 0.491360 -0.498719
N1    N     N_R   0.703804 0.013104 0.128083 -0.526774
N2    N     N_R   0.299148 0.074223 0.893194 -0.541213
N3    N     N_R   0.297400 0.483722 0.390754 -0.538747
N4    N     N_R   0.701773 0.582454 0.610042 -0.540547
C17   C     C_R   0.674900 0.113358 0.168120 0.692554
C18   C     C_R   0.328667 0.015728 0.844270 0.670219
C19   C     C_R   0.327909 0.494823 0.338607 0.658192
C20   C     C_R   0.673380 0.515649 0.659223 0.674178
C21   C     C_R   0.781317 0.017371 0.236018 0.115802
C22   C     C_R   0.225110 0.219264 0.811197 0.131239
C23   C     C_R   0.218286 0.596738 0.312224 0.127735
C24   C     C_R   0.775923 0.720525 0.692588 0.128262
C25   C     C_R   0.832684 0.024116 0.245739 0.041505
C26   C     C_R   0.173998 0.217178 0.781946 0.064437
C27   C     C_R   0.168285 0.566100 0.281093 0.061855
C28   C     C_R   0.826934 0.715106 0.721418 0.060736
C29   C     C_R   0.827145 0.788570 0.143579 0.288973
C30   C     C_R   0.166805 0.952527 0.868897 0.271877
C31   C     C_R   0.171788 0.277817 0.358452 0.258211
C32   C     C_R   0.833613 0.461617 0.629443 0.270924
C33   C     C_R   0.776152 0.803011 0.129059 0.390938
C34   C     C_R   0.217672 0.944107 0.891302 0.358399
C35   C     C_R   0.222327 0.298458 0.382007 0.361912
C36   C     C_R   0.782822 0.455492 0.607271 0.361494
C37   C     C_R   0.753494 0.947928 0.164086 0.151268
C38   C     C_R   0.246926 0.079352 0.864710 0.205002
C39   C     C_R   0.245639 0.459960 0.361573 0.202432
C40   C     C_R   0.753950 0.586903 0.636838 0.205289
C41   C     C_R   0.604421 0.059244 0.064210 -0.131746
C42   C     C_R   0.399599 0.055564 0.950211 -0.129461
C43   C     C_R   0.396865 0.531561 0.446616 -0.132264
C44   C     C_R   0.601458 0.558495 0.555461 -0.132173
C45   C     C_R   0.636580 0.010085 0.014276 -0.030388
C46   C     C_R   0.368072 0.105592 0.001404 -0.025634
C47   C     C_R   0.365592 0.506490 0.500627 -0.030371
C48   C     C_R   0.631992 0.618281 0.503971 -0.025626
C49   C     C_R   0.617018 0.980713 0.932907 0.162152
C50   C     C_R   0.388073 0.129419 0.082869 0.136543
C51   C     C_R   0.386249 0.495318 0.582448 0.168429
C52   C     C_R   0.611336 0.646685 0.422953 0.168463
C53   C     C_R   0.623889 0.116674 0.141901 -0.155466
C54   C     C_R   0.379874 0.008544 0.870839 -0.159304
C55   C     C_R   0.377250 0.542044 0.365005 -0.153908
C56   C     C_R   0.622179 0.507035 0.634258 -0.158503
C57   C     C_R   0.856127 0.912047 0.196950 -0.214251
C58   C     C_R   0.144142 0.088716 0.813850 -0.224741
C59   C     C_R   0.143888 0.413882 0.309304 -0.218712
C60   C     C_R   0.856338 0.590811 0.686876 -0.224527
C61   C     C_R   0.482479 0.992120 0.929269 -0.020635
C62   C     C_R   0.521710 0.127421 0.083624 -0.023207
C63   C     C_R   0.519627 0.490713 0.579146 -0.019356
C64   C     C_R   0.478056 0.601206 0.421656 -0.018656
C65   C     C_R   0.470499 0.107980 0.056896 0.042371
C66   C     C_R   0.533913 0.007866 0.956712 0.038007
C67   C     C_R   0.529588 0.598479 0.448755 0.036841
C68   C     C_R   0.468287 0.507585 0.553695 0.036425
C69   C     C_R   0.451001 0.054178 0.978394 0.045643
C70   C     C_R   0.553179 0.061474 0.035325 0.046777
C71   C     C_R   0.550093 0.551692 0.528139 0.046215
C72   C     C_R   0.447940 0.544643 0.473808 0.048789
C73   C     C_R   0.460908 0.909966 0.855729 0.063110
C74   C     C_R   0.542975 0.217609 0.155602 0.064093
C75   C     C_R   0.541815 0.407745 0.652469 0.055525
C76   C     C_R   0.454682 0.667523 0.345645 0.063178
C77   C     C_R   0.411720 0.944271 0.822760 0.412151
C78   C     C_R   0.592424 0.190252 0.188347 0.415186
C79   C     C_R   0.591435 0.437187 0.683303 0.413161
C80   C     C_R   0.406649 0.612059 0.314097 0.404305
O25   O     O_2   0.307962 0.961700 0.770832 -0.466084
O26   O     O_2   0.695167 0.229397 0.226075 -0.471141
O27   O     O_2   0.695277 0.455186 0.731360 -0.465989
O28   O     O_2   0.310179 0.460608 0.261830 -0.479978
C81   C     C_R   0.566687 0.989537 0.905624 -0.122523
C82   C     C_R   0.438378 0.123046 0.108985 -0.133197
C83   C     C_R   0.436749 0.502249 0.607177 -0.121812
C84   C     C_R   0.561432 0.623965 0.396765 -0.121030
H1    H     H_    0.553334 0.985402 0.842873 0.147711
H2    H     H_    0.452438 0.126775 0.171593 0.140738
H3    H     H_    0.451404 0.506442 0.669612 0.146977
H4    H     H_    0.547754 0.624039 0.334178 0.147068
C85   C     C_3   0.037245 0.232403 0.494380 -0.708643
H5    H     H_    0.055365 0.323904 0.543040 0.190603
H6    H     H_    0.066707 0.171726 0.468530 0.254284
H7    H     H_    0.013314 0.323092 0.450929 0.226468
C86   C     C_3   0.960499 0.772343 0.504638 -0.705469
H8    H     H_    0.941783 0.683768 0.455342 0.202662
H9    H     H_    0.983710 0.678569 0.547698 0.228209
H10   H     H_    0.931413 0.835821 0.530905 0.227490
C87   C     C_3   0.964465 0.736391 0.005860 -0.705501
H11   H     H_    0.946458 0.829682 0.957396 0.192569
H12   H     H_    0.934994 0.678897 0.032411 0.256796
H13   H     H_    0.989228 0.824602 0.048770 0.225552
C88   C     C_3   0.038968 0.270242 0.995526 -0.695955
H14   H     H_    0.057593 0.180469 0.044846 0.203095
H15   H     H_    0.015263 0.177944 0.952917 0.224003
H16   H     H_    0.068123 0.331652 0.968732 0.230010
Cl1   Cl    Cl    0.853598 0.615861 0.092991 -0.586635
Cl2   Cl    Cl    0.132296 0.794871 0.914373 -0.589072
Cl3   Cl    Cl    0.144544 0.080631 0.393608 -0.611245
Cl4   Cl    Cl    0.868031 0.310675 0.581033 -0.602600
Cl5   Cl    Cl    0.740733 0.621965 0.076558 -0.503403
Cl6   Cl    Cl    0.245483 0.762561 0.954164 -0.516843
Cl7   Cl    Cl    0.256949 0.121062 0.438990 -0.549929
Cl8   Cl    Cl    0.754673 0.281749 0.541228 -0.536238
C89   C     C_3   0.647737 0.936368 0.872976 -0.537786
H17   H     H_    0.625433 0.913501 0.813146 0.183705
H18   H     H_    0.672610 0.054213 0.868223 0.266082
H19   H     H_    0.668628 0.805702 0.889848 0.252966
C90   C     C_3   0.357555 0.155371 0.144592 -0.488607
H20   H     H_    0.379744 0.155578 0.205372 0.178546
H21   H     H_    0.338540 0.291949 0.135869 0.281912
H22   H     H_    0.331029 0.039490 0.141483 0.250918
C91   C     C_3   0.356559 0.465543 0.645181 -0.541454
H23   H     H_    0.379692 0.449418 0.704883 0.182588
H24   H     H_    0.332388 0.587111 0.647442 0.273731
H25   H     H_    0.334872 0.335549 0.632991 0.246239
C92   C     C_3   0.640798 0.694937 0.361534 -0.549130
H26   H     H_    0.618272 0.699997 0.301015 0.185100
H27   H     H_    0.657161 0.835579 0.373365 0.240626
H28   H     H_    0.669411 0.588062 0.361360 0.270478
C93   C     C_3   0.151498 0.349484 0.715920 -0.627295
H29   H     H_    0.177804 0.398608 0.680650 0.215573
H30   H     H_    0.122622 0.277519 0.673282 0.179564
H31   H     H_    0.136157 0.473328 0.740657 0.227984
C94   C     C_3   0.862361 0.133848 0.313317 -0.621616
H32   H     H_    0.839643 0.207638 0.348839 0.228673
H33   H     H_    0.887402 0.038898 0.353130 0.175866
H34   H     H_    0.883452 0.243856 0.290092 0.227736
C95   C     C_3   0.849819 0.839299 0.789656 -0.627683
H35   H     H_    0.823818 0.881672 0.826587 0.218279
H36   H     H_    0.879160 0.763347 0.830212 0.179959
H37   H     H_    0.864671 0.967283 0.766972 0.223310
C96   C     C_3   0.141778 0.693154 0.216000 -0.609122
H38   H     H_    0.166102 0.740051 0.176741 0.218268
H39   H     H_    0.111739 0.618928 0.176684 0.183614
H40   H     H_    0.127391 0.817437 0.241889 0.236784
C97   C     C_3   0.256119 0.373154 0.786841 -0.582298
H41   H     H_    0.238960 0.511294 0.791717 0.229380
H42   H     H_    0.292859 0.380280 0.824730 0.202634
H43   H     H_    0.260375 0.350921 0.725255 0.218317
C98   C     C_3   0.761169 0.003145 0.310701 -0.526362
H44   H     H_    0.785243 0.913851 0.354686 0.202676
H45   H     H_    0.758799 0.142611 0.337427 0.267623
H46   H     H_    0.725041 0.934650 0.299829 0.208183
C99   C     C_3   0.745168 0.870976 0.719896 -0.584120
H47   H     H_    0.762409 0.009766 0.717199 0.226712
H48   H     H_    0.708341 0.881981 0.682450 0.202739
H49   H     H_    0.741112 0.841484 0.781151 0.219224
C100  C     C_3   0.241929 0.777017 0.293513 -0.544814
H50   H     H_    0.217292 0.897162 0.295787 0.228396
H51   H     H_    0.275785 0.807757 0.336602 0.225637
H52   H     H_    0.250416 0.769560 0.233787 0.231507
Cl9   Cl    Cl    0.392498 0.904186 0.720281 -0.636652
Cl10  Cl    Cl    0.612706 0.240957 0.289776 -0.646404
Cl11  Cl    Cl    0.612725 0.383962 0.784597 -0.630951
Cl12  Cl    Cl    0.382733 0.661663 0.213254 -0.637477
C101  C     C_3   0.485429 0.754605 0.818745 -0.706779
H53   H     H_    0.459914 0.635814 0.803541 0.217815
H54   H     H_    0.496193 0.804349 0.763967 0.226101
H55   H     H_    0.517102 0.694620 0.860025 0.220359
C102  C     C_3   0.517416 0.372849 0.190789 -0.702464
H56   H     H_    0.541905 0.495391 0.203454 0.217936
H57   H     H_    0.484933 0.426225 0.149334 0.223596
H58   H     H_    0.507575 0.325968 0.246678 0.226463
C103  C     C_3   0.516624 0.257915 0.691903 -0.693958
H59   H     H_    0.541040 0.135315 0.706940 0.221698
H60   H     H_    0.507321 0.311779 0.747024 0.225211
H61   H     H_    0.483839 0.201715 0.652397 0.223258
C104  C     C_3   0.474907 0.828376 0.304918 -0.711950
H62   H     H_    0.446664 0.938035 0.288748 0.225172
H63   H     H_    0.505475 0.899904 0.344044 0.213463
H64   H     H_    0.486018 0.779807 0.250390 0.225234

loop_
_geom_bond_atom_site_label_1
_geom_bond_atom_site_label_2
_ccdc_geom_bond_type
O17   V3    S    
C67   C71   A    
O1    C5    A    
C93   H29   S    
C23   C27   A    
O19   V1    S    
O13   V1    S    
C94   H32   S    
O3    C7    A    
C11   C12   D    
C68   C72   A    
C24   C40   A    
C48   C52   A    
C21   C37   A    
C11   C87   S    
C74   C102  S    
C92   H26   S    
C34   C38   A    
C95   H35   S    
C19   O28   S    
O7    C3    A    
C104  H64   S    
C91   H23   S    
C85   H5    S    
C25   C57   A    
C32   C36   A    
O9    V1    S    
N4    C40   S    
C14   O22   S    
N4    C20   A    
C32   Cl4   S    
C89   H18   S    
C22   C26   A    
O4    C8    A    
C33   C37   A    
C98   H45   S    
C78   Cl10  S    
C64   C67   A    
C49   C81   A    
O1    V3    S    
C103  H61   S    
C52   C84   A    
O2    V4    S    
C101  H53   S    
C51   C83   A    
C65   C82   A    
O3    V1    S    
C26   C93   S    
C21   C98   S    
C81   H1    S    
C61   C73   A    
C67   C84   A    
C56   C79   A    
C77   Cl9   S    
C1    O15   A    
C62   C74   A    
C10   C86   S    
C2    O16   A    
C100  H51   S    
C51   C91   S    
O2    C6    A    
C87   H13   S    
C16   C48   A    
O14   V2    S    
C45   C49   A    
C90   H21   S    
C12   C88   S    
C44   C56   A    
O5    V1    S    
C76   C104  S    
C36   Cl8   S    
C36   C40   A    
C86   H10   S    
C79   Cl11  S    
C100  H52   S    
C44   C71   A    
O11   C7    A    
C17   O26   S    
C64   C76   A    
O15   V3    S    
O12   C8    A    
C87   H12   S    
C28   C95   S    
C101  H54   S    
C31   C59   A    
C93   H30   S    
C30   Cl2   S    
O16   V4    S    
C1    C60   S    
C92   H27   S    
C63   C71   A    
C103  H59   S    
C25   C94   S    
C102  H57   S    
C88   H16   S    
C31   C35   A    
C20   O27   S    
O7    V3    S    
C30   C34   A    
N1    C37   S    
O8    V4    S    
C104  H62   S    
C17   C53   A    
C4    C57   S    
C27   C96   S    
C54   C77   A    
C53   C78   A    
C97   H42   S    
C19   C55   A    
C21   C25   A    
O18   V4    S    
C98   H46   S    
C15   O23   S    
C55   C80   A    
C14   C46   A    
C62   C65   A    
C7    C9    S    
C97   H41   S    
C13   C45   A    
C8    C10   S    
C76   C80   A    
C15   C47   A    
C99   H49   S    
N2    C38   S    
C82   H2    S    
O5    C1    A    
C103  H60   S    
C85   H7    S    
C88   H15   S    
C46   C50   A    
C65   C69   A    
C73   C101  S    
C22   C38   A    
N1    C17   A    
O8    C4    A    
C96   H40   S    
N3    C39   S    
C9    C85   S    
C9    C10   D    
C22   C97   S    
O9    C5    A    
C68   C83   A    
C27   C59   A    
C42   C54   A    
C90   H22   S    
C26   C58   A    
C41   C53   A    
C95   H36   S    
C63   C75   A    
C42   C69   A    
C5    C11   S    
C29   Cl1   S    
C41   C70   A    
O6    V2    S    
C2    C59   S    
C96   H38   S    
C93   H31   S    
C64   C72   A    
C35   Cl7   S    
C43   C72   A    
C101  H55   S    
C89   H19   S    
O12   V4    S    
C50   C82   A    
C13   N1    A    
C92   H28   S    
C66   C81   A    
C15   N3    A    
C86   H8    S    
C74   C78   A    
C102  H58   S    
C43   C55   A    
C16   N4    A    
C102  H56   S    
C24   C99   S    
C3    O13   A    
C31   Cl3   S    
C97   H43   S    
C43   C47   A    
C23   C100  S    
C63   C68   A    
C75   C79   A    
C44   C48   A    
O6    C2    A    
N3    C19   A    
C50   C90   S    
O11   V3    S    
C75   C103  S    
C83   H3    S    
C91   H25   S    
C6    C12   S    
C88   H14   S    
N2    C18   A    
C61   C69   A    
C18   O25   S    
O10   C6    A    
O20   V2    S    
C104  H63   S    
O10   V2    S    
C66   C70   A    
C89   H17   S    
C47   C51   A    
C3    C58   S    
C98   H44   S    
C87   H11   S    
C73   C77   A    
C49   C89   S    
C30   C58   A    
C95   H37   S    
C96   H39   S    
C35   C39   A    
C13   O21   S    
C99   H47   S    
C29   C57   A    
C20   C56   A    
O4    V2    S    
C34   Cl6   S    
C14   N2    A    
C18   C54   A    
C29   C33   A    
C16   O24   S    
C24   C28   A    
C62   C70   A    
C91   H24   S    
C100  H50   S    
C42   C46   A    
C4    O14   A    
C85   H6    S    
C41   C45   A    
C94   H34   S    
C32   C60   A    
C99   H48   S    
C90   H20   S    
C28   C60   A    
C33   Cl5   S    
C61   C66   A    
C80   Cl12  S    
C23   C39   A    
C52   C92   S    
C84   H4    S    
C86   H9    S    
C94   H33   S    
