data_mof_unit_25208.cif
_audit_creation_date              2013-03-05T15:40:09-0500
_audit_creation_method            fapswitch 2.2
_symmetry_space_group_name_H-M    P1
_symmetry_Int_Tables_number       1
_space_group_crystal_system       triclinic
_cell_length_a                    27.897768
_cell_length_b                    18.81565
_cell_length_c                    16.848819
_cell_angle_alpha                 90.121916
_cell_angle_beta                  62.604312
_cell_angle_gamma                 90.104516
_cell_volume                      7852.29444473

loop_
_atom_site_label
_atom_site_type_symbol
_atom_site_description
_atom_site_fract_x
_atom_site_fract_y
_atom_site_fract_z
_atom_type_partial_charge
O1    O     O_R   0.255040 0.869590 0.478480 -0.505096
O2    O     O_R   0.744960 0.130410 0.521520 -0.510871
O3    O     O_R   0.744960 0.869590 0.521520 -0.508773
O4    O     O_R   0.255040 0.130410 0.478480 -0.513070
O5    O     O_R   0.755040 0.369590 0.478480 -0.504816
O6    O     O_R   0.244960 0.630410 0.521520 -0.503501
O7    O     O_R   0.244960 0.369590 0.521520 -0.517418
O8    O     O_R   0.755040 0.630410 0.478480 -0.519972
O9    O     O_R   0.182050 0.796550 0.624440 -0.586770
O10   O     O_R   0.817950 0.203450 0.375560 -0.584957
O11   O     O_R   0.817950 0.796550 0.375560 -0.572626
O12   O     O_R   0.182050 0.203450 0.624440 -0.572920
O13   O     O_R   0.682050 0.296550 0.624440 -0.582860
O14   O     O_R   0.317950 0.703450 0.375560 -0.585986
O15   O     O_R   0.317950 0.296550 0.375560 -0.586082
O16   O     O_R   0.682050 0.703450 0.624440 -0.586666
Cu1   Cu    Cu3+1 0.209920 0.785290 0.495070 1.013661
Cu2   Cu    Cu3+1 0.790080 0.214710 0.504930 1.017770
Cu3   Cu    Cu3+1 0.790080 0.785290 0.504930 1.014492
Cu4   Cu    Cu3+1 0.209920 0.214710 0.495070 1.008567
Cu5   Cu    Cu3+1 0.709920 0.285290 0.495070 1.000350
Cu6   Cu    Cu3+1 0.290080 0.714710 0.504930 1.000588
Cu7   Cu    Cu3+1 0.290080 0.285290 0.504930 0.997299
Cu8   Cu    Cu3+1 0.709920 0.714710 0.495070 0.998212
C1    C     C_R   0.296558 0.731739 0.328740 0.803436
C2    C     C_R   0.702945 0.267186 0.671476 0.794219
C3    C     C_R   0.703745 0.731248 0.671298 0.790315
C4    C     C_R   0.295911 0.269335 0.328710 0.785143
C5    C     C_R   0.795847 0.230493 0.328779 0.805349
C6    C     C_R   0.207971 0.777256 0.668536 0.812908
C7    C     C_R   0.203719 0.231286 0.671292 0.820552
C8    C     C_R   0.795970 0.769238 0.328692 0.814412
O17   O     O_R   0.250530 0.763330 0.367210 -0.583047
O18   O     O_R   0.749470 0.236670 0.632790 -0.596662
O19   O     O_R   0.749470 0.763330 0.632790 -0.593229
O20   O     O_R   0.250530 0.236670 0.367210 -0.603147
O21   O     O_R   0.750530 0.263330 0.367210 -0.579930
O22   O     O_R   0.249470 0.736670 0.632790 -0.584581
O23   O     O_R   0.249470 0.263330 0.632790 -0.583287
O24   O     O_R   0.750530 0.736670 0.367210 -0.590202
O25   O     O_R   0.177260 0.690030 0.513710 -0.604173
O26   O     O_R   0.822740 0.309970 0.486290 -0.602700
O27   O     O_R   0.822740 0.690030 0.486290 -0.601052
O28   O     O_R   0.177260 0.309970 0.513710 -0.603084
O29   O     O_R   0.677260 0.190030 0.513710 -0.615032
O30   O     O_R   0.322740 0.809970 0.486290 -0.626660
O31   O     O_R   0.322740 0.190030 0.486290 -0.611226
O32   O     O_R   0.677260 0.809970 0.513710 -0.612780
C9    C     C_R   0.196100 0.632117 0.529428 0.837248
C10   C     C_R   0.803898 0.367883 0.470620 0.828232
C11   C     C_R   0.800025 0.630813 0.483806 0.821532
C12   C     C_R   0.199983 0.369181 0.516144 0.826944
C13   C     C_R   0.696158 0.131925 0.529035 0.819315
C14   C     C_R   0.303816 0.868081 0.471236 0.809467
C15   C     C_R   0.303733 0.131814 0.471481 0.815264
C16   C     C_R   0.696177 0.868127 0.528950 0.822691
H1    H     H_    0.534567 0.756381 0.525579 0.149552
H2    H     H_    0.464286 0.243575 0.478778 0.149081
H3    H     H_    0.464268 0.756428 0.476907 0.148365
H4    H     H_    0.534637 0.243521 0.527331 0.148617
H5    H     H_    0.084986 0.280321 0.374441 0.150129
H6    H     H_    0.915027 0.719734 0.625537 0.148189
H7    H     H_    0.999569 0.277360 0.366397 0.157111
H8    H     H_    0.000418 0.722670 0.633633 0.158573
C17   C     C_R   0.027391 0.619558 0.571813 0.090394
C18   C     C_R   0.972602 0.380465 0.428226 0.092374
C19   C     C_R   0.929197 0.616473 0.561561 0.092391
C20   C     C_R   0.070789 0.383555 0.438463 0.092046
C21   C     C_R   0.540828 0.128747 0.527983 0.088101
C22   C     C_R   0.458196 0.871208 0.475951 0.086724
C23   C     C_R   0.458117 0.128792 0.477089 0.086677
C24   C     C_R   0.540860 0.871154 0.526949 0.088586
C25   C     C_R   0.991014 0.676546 0.604728 -0.173975
C26   C     C_R   0.008975 0.323481 0.395305 -0.176814
C27   C     C_R   0.942194 0.674809 0.600211 -0.185613
C28   C     C_R   0.057795 0.325226 0.399809 -0.183282
C29   C     C_R   0.519381 0.193200 0.516961 -0.183376
C30   C     C_R   0.479508 0.806751 0.487308 -0.185024
C31   C     C_R   0.479503 0.193228 0.488811 -0.183568
C32   C     C_R   0.519358 0.806724 0.515519 -0.177881
C33   C     C_R   0.964914 0.558608 0.529597 0.030109
C34   C     C_R   0.035072 0.441417 0.470446 0.029445
C35   C     C_R   0.013898 0.559856 0.535506 0.027234
C36   C     C_R   0.986090 0.440169 0.464539 0.027099
C37   C     C_R   0.477922 0.064313 0.491310 0.027100
C38   C     C_R   0.520977 0.935638 0.512855 0.026946
C39   C     C_R   0.520961 0.064290 0.513365 0.027469
C40   C     C_R   0.477954 0.935663 0.490766 0.028057
C41   C     C_R   0.455726 0.000003 0.481088 -0.031408
C42   C     C_R   0.543270 0.999951 0.522805 -0.031290
C43   C     C_R   0.951080 0.498954 0.493646 -0.028476
C44   C     C_R   0.048908 0.501069 0.506396 -0.028811
C45   C     C_R   0.387414 0.934729 0.456895 -0.003855
C46   C     C_R   0.612136 0.065224 0.545451 0.001684
C47   C     C_R   0.612198 0.934663 0.544941 0.002398
C48   C     C_R   0.387236 0.065282 0.457660 0.005856
C49   C     C_R   0.886717 0.436286 0.456624 0.000558
C50   C     C_R   0.113289 0.563716 0.543413 0.001656
C51   C     C_R   0.130317 0.440253 0.491397 0.002271
C52   C     C_R   0.869666 0.559749 0.508612 0.004997
C53   C     C_R   0.336763 0.934529 0.454581 -0.209258
C54   C     C_R   0.663171 0.065428 0.546395 -0.220131
C55   C     C_R   0.663208 0.934577 0.546132 -0.221811
C56   C     C_R   0.336530 0.065337 0.455288 -0.232467
C57   C     C_R   0.835334 0.434824 0.457899 -0.208201
C58   C     C_R   0.164695 0.565160 0.542112 -0.212383
C59   C     C_R   0.173163 0.437154 0.515553 -0.227351
C60   C     C_R   0.826817 0.562826 0.484433 -0.229377
C61   C     C_R   0.313922 0.999860 0.447767 0.264496
C62   C     C_R   0.686072 0.000044 0.553006 0.262962
C63   C     C_R   0.810243 0.499560 0.458635 0.267203
C64   C     C_R   0.189796 0.500387 0.541258 0.263516
C65   C     C_R   0.409948 0.000012 0.465092 0.066523
C66   C     C_R   0.589341 0.999940 0.537964 0.067346
C67   C     C_R   0.902570 0.498417 0.485910 0.068787
C68   C     C_R   0.097422 0.501595 0.514121 0.069658
C69   C     C_R   0.582585 0.871760 0.550659 -0.199555
C70   C     C_R   0.416734 0.128187 0.452588 -0.202420
C71   C     C_R   0.416930 0.871877 0.451222 -0.208358
C72   C     C_R   0.582492 0.128079 0.551797 -0.203347
C73   C     C_R   0.118558 0.384225 0.446637 -0.205539
C74   C     C_R   0.881437 0.615792 0.553348 -0.203946
C75   C     C_R   0.923158 0.378581 0.425155 -0.196107
C76   C     C_R   0.076844 0.621433 0.574878 -0.196857
H9    H     H_    0.589627 0.822479 0.575838 0.177616
H10   H     H_    0.410098 0.177455 0.426913 0.178604
H11   H     H_    0.410276 0.822717 0.425041 0.179981
H12   H     H_    0.589535 0.177256 0.577488 0.177320
H13   H     H_    0.146669 0.341319 0.415364 0.165251
H14   H     H_    0.853347 0.658698 0.584545 0.161382
H15   H     H_    0.914773 0.333232 0.393937 0.162347
H16   H     H_    0.085231 0.666786 0.606086 0.165242
H17   H     H_    0.277779 0.887144 0.913480 0.138037
H18   H     H_    0.837216 0.291756 0.943056 0.154602
H19   H     H_    0.724980 0.847357 0.107811 0.144277
H20   H     H_    0.276468 0.150702 0.890319 0.145019
H21   H     H_    0.652415 0.190884 0.062918 0.151709
H22   H     H_    0.241138 0.657809 0.076033 0.155522
H23   H     H_    0.223813 0.349390 0.108392 0.142303
H24   H     H_    0.777602 0.649263 0.888930 0.147563
C77   C     C_R   0.230894 0.790058 0.947821 0.156748
C78   C     C_R   0.775609 0.229239 0.048077 0.144980
C79   C     C_R   0.781779 0.762230 0.043078 0.118694
C80   C     C_R   0.220369 0.236931 0.953197 0.151425
C81   C     C_R   0.714714 0.251330 0.956113 0.137846
C82   C     C_R   0.289330 0.753734 0.039425 0.155296
C83   C     C_R   0.280629 0.264218 0.043930 0.122206
C84   C     C_R   0.721418 0.735312 0.952361 0.151608
C85   C     C_R   0.220398 0.725830 0.994666 -0.144429
C86   C     C_R   0.723828 0.199619 0.080147 -0.137514
C87   C     C_R   0.796647 0.706546 0.981076 -0.127286
C88   C     C_R   0.205421 0.292637 0.015154 -0.122544
C89   C     C_R   0.766980 0.279620 0.922960 -0.140848
C90   C     C_R   0.299795 0.818176 0.992800 -0.137422
C91   C     C_R   0.295475 0.208332 0.982229 -0.127698
C92   C     C_R   0.706523 0.790874 0.014499 -0.121938
H25   H     H_    0.190096 0.689564 0.995033 0.154434
H26   H     H_    0.707079 0.167729 0.140374 0.142241
H27   H     H_    0.831385 0.673803 0.968076 0.153479
H28   H     H_    0.170528 0.325126 0.028364 0.141715
H29   H     H_    0.783909 0.311024 0.862323 0.140531
H30   H     H_    0.330766 0.853818 0.991123 0.135298
H31   H     H_    0.330158 0.175554 0.969484 0.150186
H32   H     H_    0.671622 0.823407 0.027889 0.139419
C93   C     C_R   0.249544 0.707703 0.040111 -0.134712
C94   C     C_R   0.693008 0.212060 0.035676 -0.124125
C95   C     C_R   0.766196 0.692721 0.936401 -0.141059
C96   C     C_R   0.235522 0.306229 0.060474 -0.129495
C97   C     C_R   0.797145 0.269048 0.968975 -0.106153
C98   C     C_R   0.269890 0.836924 0.948598 -0.132194
C99   C     C_R   0.265076 0.194327 0.937554 -0.142220
C100  C     C_R   0.736660 0.804272 0.059792 -0.122121
C101  C     C_R   0.148124 0.834192 0.943905 0.303055
C102  C     C_R   0.851215 0.166426 0.057162 0.297650
C103  C     C_R   0.855006 0.827486 0.054247 0.305030
C104  C     C_R   0.147850 0.168619 0.942650 0.294192
C105  C     C_R   0.642050 0.321582 0.947060 0.300420
C106  C     C_R   0.358755 0.679484 0.052052 0.295096
C107  C     C_R   0.353803 0.329452 0.055269 0.304186
C108  C     C_R   0.648694 0.667279 0.941894 0.293155
C109  C     C_R   0.119507 0.852963 0.896002 -0.158681
C110  C     C_R   0.879784 0.146229 0.104795 -0.166388
C111  C     C_R   0.881123 0.851726 0.104018 -0.171999
C112  C     C_R   0.120138 0.146307 0.894581 -0.172060
C113  C     C_R   0.617256 0.348988 0.896668 -0.169325
C114  C     C_R   0.382289 0.650320 0.103491 -0.170627
C115  C     C_R   0.380603 0.352534 0.104440 -0.173801
C116  C     C_R   0.620476 0.645805 0.894305 -0.170438
C117  C     C_R   0.139391 0.831714 0.807252 -0.300699
C118  C     C_R   0.861918 0.170349 0.192157 -0.295952
C119  C     C_R   0.862269 0.829111 0.192195 -0.289227
C120  C     C_R   0.137702 0.170429 0.807295 -0.286793
C121  C     C_R   0.636721 0.327825 0.807691 -0.287734
C122  C     C_R   0.362420 0.670824 0.192683 -0.293114
C123  C     C_R   0.362168 0.329227 0.192247 -0.299028
C124  C     C_R   0.637732 0.670436 0.807315 -0.291182
H33   H     H_    0.115743 0.841964 0.772418 0.204954
H34   H     H_    0.881285 0.150986 0.230789 0.206114
H35   H     H_    0.880005 0.851215 0.232083 0.210076
H36   H     H_    0.119311 0.149201 0.767943 0.209424
H37   H     H_    0.621333 0.353508 0.766579 0.206639
H38   H     H_    0.377720 0.644988 0.233828 0.206748
H39   H     H_    0.380407 0.350525 0.231793 0.208175
H40   H     H_    0.618988 0.649775 0.768221 0.207639
C125  C     C_R   0.190195 0.800213 0.761665 -0.084845
C126  C     C_R   0.818494 0.217264 0.231588 -0.091815
C127  C     C_R   0.819598 0.780707 0.230993 -0.077680
C128  C     C_R   0.179929 0.219416 0.768730 -0.097759
C129  C     C_R   0.677045 0.276137 0.769827 -0.093692
C130  C     C_R   0.321823 0.722036 0.230758 -0.091784
C131  C     C_R   0.319267 0.281181 0.231149 -0.070341
C132  C     C_R   0.680114 0.719180 0.768675 -0.091715
C133  C     C_R   0.223855 0.794183 0.804650 0.075492
C134  C     C_R   0.794308 0.245089 0.179647 0.060589
C135  C     C_R   0.797613 0.749297 0.177328 0.079051
C136  C     C_R   0.202046 0.250409 0.821978 0.060786
C137  C     C_R   0.694809 0.239457 0.825498 0.071808
C138  C     C_R   0.303243 0.758373 0.176020 0.058998
C139  C     C_R   0.296746 0.250596 0.177797 0.077029
C140  C     C_R   0.702599 0.749608 0.821714 0.059808
C141  C     C_R   0.200908 0.807403 0.897518 -0.077406
C142  C     C_R   0.808143 0.214680 0.095205 -0.078567
C143  C     C_R   0.813249 0.777486 0.091273 -0.079067
C144  C     C_R   0.188323 0.220551 0.906401 -0.071109
C145  C     C_R   0.681875 0.268679 0.910330 -0.056566
C146  C     C_R   0.319324 0.732921 0.088522 -0.064731
C147  C     C_R   0.312066 0.279418 0.092156 -0.081830
C148  C     C_R   0.689210 0.719190 0.905734 -0.072841
O33   O     O_R   0.051640 0.926880 0.885090 -0.595444
O34   O     O_R   0.948360 0.073120 0.114910 -0.596516
O35   O     O_R   0.948360 0.926880 0.114910 -0.586994
O36   O     O_R   0.051640 0.073120 0.885090 -0.590010
O37   O     O_R   0.551640 0.426880 0.885090 -0.596370
O38   O     O_R   0.448360 0.573120 0.114910 -0.596587
O39   O     O_R   0.448360 0.426880 0.114910 -0.591385
O40   O     O_R   0.551640 0.573120 0.885090 -0.594717
Cu9   Cu    Cu3+1 0.495240 0.500000 0.924150 1.099654
Cu10  Cu    Cu3+1 0.504760 0.500000 0.075850 1.101628
Cu11  Cu    Cu3+1 0.995240 0.000000 0.924150 1.107509
Cu12  Cu    Cu3+1 0.004760 0.000000 0.075850 1.106272
C149  C     C_R   0.925644 0.903890 0.067024 0.811549
C150  C     C_R   0.074914 0.095260 0.932451 0.810649
C151  C     C_R   0.073158 0.902219 0.934063 0.815088
C152  C     C_R   0.925320 0.095621 0.067269 0.807286
C153  C     C_R   0.425475 0.404151 0.067173 0.812132
C154  C     C_R   0.575019 0.595104 0.932359 0.810827
C155  C     C_R   0.574050 0.403303 0.933131 0.811384
C156  C     C_R   0.425800 0.596467 0.066950 0.809287
O41   O     O_R   0.940620 0.926560 0.986760 -0.526310
O42   O     O_R   0.059380 0.073440 0.013240 -0.527247
O43   O     O_R   0.059380 0.926560 0.013240 -0.517306
O44   O     O_R   0.940620 0.073440 0.986760 -0.519313
O45   O     O_R   0.440620 0.426560 0.986760 -0.523175
O46   O     O_R   0.559380 0.573440 0.013240 -0.525790
O47   O     O_R   0.559380 0.426560 0.013240 -0.515759
O48   O     O_R   0.440620 0.573440 0.986760 -0.520287
N1    N     N_R   0.268552 0.999578 0.429246 0.144877
O49   O     O_R   0.276098 0.984798 0.348891 -0.410700
O50   O     O_R   0.219557 0.001189 0.494657 -0.324996
N2    N     N_R   0.731759 0.000125 0.570696 0.146840
O51   O     O_R   0.780726 0.000088 0.505148 -0.324795
O52   O     O_R   0.724215 0.999912 0.652835 -0.394443
N3    N     N_R   0.769258 0.500628 0.429451 0.144846
O53   O     O_R   0.718491 0.502729 0.488205 -0.327898
O54   O     O_R   0.782053 0.483612 0.347237 -0.406014
N4    N     N_R   0.230898 0.499109 0.570164 0.148049
O55   O     O_R   0.217776 0.510664 0.653824 -0.374706
O56   O     O_R   0.281704 0.498016 0.511491 -0.329676
N5    N     N_R   0.124073 0.842325 0.039338 0.135194
O57   O     O_R   0.079962 0.808101 0.090267 -0.352699
O58   O     O_R   0.146784 0.882318 0.075597 -0.331610
N6    N     N_R   0.864521 0.137053 0.970906 0.136082
O59   O     O_R   0.834845 0.086736 0.963326 -0.313043
O60   O     O_R   0.901902 0.166557 0.899364 -0.356304
N7    N     N_R   0.869127 0.854801 0.966817 0.135174
O61   O     O_R   0.897079 0.815967 0.896565 -0.373337
O62   O     O_R   0.847834 0.913956 0.958403 -0.310371
N8    N     N_R   0.136726 0.137359 0.026999 0.135206
O63   O     O_R   0.155381 0.074462 0.029327 -0.330719
O64   O     O_R   0.113513 0.174750 0.100046 -0.366860
N9    N     N_R   0.628278 0.348170 0.034704 0.133189
O65   O     O_R   0.588707 0.319551 0.104268 -0.368997
O66   O     O_R   0.658921 0.395318 0.045578 -0.317500
N10   N     N_R   0.373590 0.654597 0.963217 0.131786
O67   O     O_R   0.354288 0.594602 0.951830 -0.315657
O68   O     O_R   0.398246 0.697033 0.895492 -0.366094
N11   N     N_R   0.367134 0.358106 0.968738 0.135992
O69   O     O_R   0.393773 0.319735 0.897485 -0.368623
O70   O     O_R   0.346528 0.418468 0.962295 -0.316037
N12   N     N_R   0.638115 0.635050 0.025490 0.134613
O71   O     O_R   0.655864 0.571347 0.026563 -0.313461
O72   O     O_R   0.616309 0.672070 0.098951 -0.361780
C157  C     C_3   0.284348 0.778665 0.752823 -0.387401
C158  C     C_3   0.297188 0.699881 0.755049 -0.659756
H41   H     H_    0.292162 0.684924 0.822040 0.257138
H42   H     H_    0.270500 0.665559 0.738824 0.267822
H43   H     H_    0.339784 0.689591 0.705603 0.234997
H44   H     H_    0.301687 0.798287 0.683113 0.213968
H45   H     H_    0.307265 0.810017 0.779662 0.194728
C159  C     C_3   0.759419 0.311918 0.207408 -0.338494
C160  C     C_3   0.698711 0.296117 0.256956 -0.697212
H46   H     H_    0.690267 0.243647 0.290848 0.243358
H47   H     H_    0.678012 0.337891 0.308028 0.246299
H48   H     H_    0.681068 0.296936 0.209923 0.254568
H49   H     H_    0.771312 0.346822 0.248646 0.230629
H50   H     H_    0.767946 0.344883 0.147671 0.202483
C161  C     C_3   0.759187 0.685417 0.208247 -0.389998
C162  C     C_3   0.786608 0.619619 0.221832 -0.678913
H51   H     H_    0.822393 0.605334 0.158147 0.232094
H52   H     H_    0.799809 0.628362 0.273895 0.258742
H53   H     H_    0.757863 0.574315 0.242670 0.271188
H54   H     H_    0.720985 0.697848 0.268458 0.232924
H55   H     H_    0.745382 0.669574 0.158803 0.219447
C163  C     C_3   0.236723 0.317473 0.793534 -0.347300
C164  C     C_3   0.297283 0.301760 0.752969 -0.692204
H56   H     H_    0.309584 0.294340 0.806273 0.259902
H57   H     H_    0.308298 0.253374 0.710440 0.247873
H58   H     H_    0.320448 0.347517 0.711446 0.246691
H59   H     H_    0.227976 0.349367 0.746392 0.230223
H60   H     H_    0.225199 0.353466 0.851806 0.200498
C165  C     C_3   0.723654 0.167634 0.800130 -0.356212
C166  C     C_3   0.688305 0.108076 0.860410 -0.766100
H61   H     H_    0.680578 0.115286 0.930402 0.244577
H62   H     H_    0.649123 0.106131 0.858217 0.249439
H63   H     H_    0.709024 0.056218 0.836596 0.268800
H64   H     H_    0.733094 0.149748 0.732259 0.250673
H65   H     H_    0.762426 0.170261 0.803577 0.223424
C167  C     C_3   0.269144 0.825778 0.207391 -0.358345
C168  C     C_3   0.208879 0.811623 0.240388 -0.676459
H66   H     H_    0.199891 0.804312 0.183300 0.260164
H67   H     H_    0.195344 0.763558 0.283188 0.249703
H68   H     H_    0.185235 0.857966 0.279784 0.249727
H69   H     H_    0.275643 0.853500 0.259787 0.239562
H70   H     H_    0.283148 0.865416 0.152705 0.194744
C169  C     C_3   0.258028 0.186992 0.208636 -0.388557
C170  C     C_3   0.285395 0.120626 0.220955 -0.687458
H71   H     H_    0.320989 0.106626 0.156875 0.228674
H72   H     H_    0.298872 0.128509 0.272826 0.256051
H73   H     H_    0.256512 0.075491 0.241376 0.271123
H74   H     H_    0.220056 0.199367 0.269307 0.225746
H75   H     H_    0.243711 0.171874 0.159622 0.218051
C171  C     C_3   0.737448 0.816531 0.793402 -0.338277
C172  C     C_3   0.797974 0.800444 0.752288 -0.710282
H76   H     H_    0.810549 0.792993 0.805264 0.260353
H77   H     H_    0.808595 0.751936 0.710056 0.232868
H78   H     H_    0.821224 0.845983 0.710369 0.249083
H79   H     H_    0.728607 0.848807 0.746652 0.229651
H80   H     H_    0.726195 0.852295 0.851806 0.196384

loop_
_geom_bond_atom_site_label_1
_geom_bond_atom_site_label_2
_geom_bond_distance
_ccdc_geom_bond_type
C166  H62   1.111116 S    
Cu11  O41   1.965551 S    
Cu2   Cu5   2.673172 S    
C59   C64   1.413913 A    
C102  C142  1.404212 A    
C114  C122  1.395049 A    
C160  H46   1.110851 S    
Cu10  O46   1.965552 S    
H22   C93   1.083346 S    
N10   O67   1.301129 A    
O35   C149  1.306807 A    
C171  H79   1.109719 S    
C38   C40   1.410762 A    
C166  H63   1.110906 S    
C123  H39   1.083310 S    
Cu6   O22   1.961400 S    
C121  H37   1.083259 S    
C6    O22   1.282889 A    
C104  C112  1.415455 A    
O37   Cu9   1.962843 S    
C134  C142  1.411575 A    
Cu4   O28   1.970190 S    
C118  C126  1.396053 A    
Cu11  Cu12  2.688533 S    
C162  H52   1.108452 S    
N6    O59   1.300765 A    
H18   C97   1.082926 S    
N11   O70   1.300963 A    
O3    Cu3   1.964709 S    
C36   C43   1.406678 A    
C49   C67   1.414990 A    
C83   C91   1.399537 A    
C162  H53   1.110249 S    
C113  C155  1.481564 S    
C49   C57   1.423931 A    
C126  C134  1.428935 A    
C79   C87   1.399747 A    
C25   C27   1.398932 A    
C52   C67   1.414037 A    
O25   C9    1.290411 A    
H21   C94   1.082885 S    
C81   C94   1.401881 A    
C29   C31   1.395787 A    
C41   C65   1.421407 A    
O40   C154  1.306311 A    
Cu7   O31   1.970190 S    
C38   C42   1.404097 A    
C45   C53   1.431417 A    
C51   C68   1.414050 A    
C171  C172  1.532053 S    
C132  C140  1.425567 A    
C3    O19   1.284432 A    
C163  C164  1.532047 S    
C165  H65   1.110575 S    
C153  O45   1.291103 A    
C108  N12   1.434960 S    
H17   C98   1.083137 S    
C136  C144  1.409591 A    
C62   N2    1.436279 S    
C167  H69   1.108726 S    
C82   C90   1.401538 A    
H20   C99   1.083307 S    
C13   C54   1.499169 S    
C137  C165  1.530188 S    
O12   Cu4   1.960197 S    
O13   Cu5   1.959500 S    
H19   C100  1.083283 S    
C44   C68   1.418043 A    
H2    C31   1.083687 S    
C34   C36   1.415196 A    
N5    O58   1.301298 A    
H6    C27   1.083613 S    
C159  C160  1.533540 S    
C103  C111  1.414753 A    
C160  H48   1.108825 S    
C117  H33   1.083606 S    
N3    O54   1.300844 A    
C16   C55   1.500219 S    
C170  H71   1.110958 S    
O2    C13   1.308410 A    
C20   C73   1.401391 A    
C9    C58   1.491739 S    
H7    C26   1.083581 S    
C50   C58   1.424360 A    
C60   C63   1.414389 A    
C129  C137  1.426018 A    
Cu3   O19   1.962461 S    
C101  N5    1.437204 S    
C158  H41   1.108370 S    
O10   Cu2   1.959500 S    
C87   C95   1.393819 A    
C107  N11   1.434654 S    
C120  H36   1.083307 S    
C103  N7    1.434492 S    
O34   C152  1.309189 A    
C169  C170  1.528313 S    
C124  C132  1.397563 A    
O5    Cu5   1.961962 S    
C40   C41   1.404728 A    
C46   C54   1.431162 A    
Cu12  O43   1.966305 S    
C165  C166  1.529364 S    
C84   C95   1.403070 A    
C112  C150  1.476070 S    
C110  C118  1.394212 A    
C138  C146  1.411785 A    
C77   C141  1.476256 S    
O6    Cu6   1.961960 S    
C159  H49   1.110661 S    
Cu9   O48   1.966302 S    
C21   C29   1.403221 A    
C84   C148  1.471106 S    
C102  C110  1.419438 A    
C23   C31   1.403454 A    
C105  C113  1.417349 A    
C47   C69   1.419966 A    
C4    C131  1.480422 S    
C50   C76   1.414102 A    
C80   C99   1.402816 A    
C90   C98   1.396106 A    
C26   C28   1.398835 A    
C55   C62   1.414958 A    
O7    C12   1.298942 A    
Cu2   O26   1.968381 S    
C30   C32   1.395778 A    
C86   C94   1.396384 A    
O40   Cu9   1.960780 S    
C76   H16   1.081667 S    
C161  H54   1.106634 S    
C17   C76   1.404504 A    
C157  H44   1.108242 S    
C46   C72   1.419749 A    
C10   C57   1.491845 S    
C139  C169  1.533092 S    
H8    C25   1.083580 S    
O33   Cu11  1.962843 S    
O28   C12   1.290691 A    
O16   C3    1.303851 A    
C42   C66   1.421012 A    
O29   C13   1.291695 A    
Cu9   Cu10  2.688533 S    
C168  H67   1.109712 S    
H1    C32   1.083671 S    
C133  C141  1.413208 A    
C170  H73   1.110173 S    
C121  C129  1.399731 A    
H3    C30   1.083692 S    
C33   C35   1.415281 A    
C47   C55   1.432418 A    
Cu5   O29   1.968381 S    
H5    C28   1.083714 S    
C52   C60   1.430686 A    
C151  O43   1.289695 A    
Cu8   O32   1.970190 S    
C85   C93   1.392418 A    
C106  N10   1.434756 S    
C83   C147  1.471432 S    
O37   C155  1.308091 A    
C102  N6    1.433956 S    
C91   H31   1.083087 S    
C6    C125  1.475258 S    
C15   C56   1.499706 S    
C92   C100  1.393422 A    
O35   Cu12  1.960780 S    
C87   H27   1.083058 S    
C157  C158  1.530238 S    
C106  C114  1.417862 A    
C104  N8    1.434918 S    
C122  C130  1.398364 A    
Cu4   Cu7   2.668764 S    
C119  C127  1.398700 A    
N4    O56   1.302767 A    
O9    C6    1.305109 A    
O26   C10   1.290126 A    
C82   C93   1.402477 A    
O11   C8    1.306274 A    
C19   C33   1.405669 A    
C172  H77   1.109658 S    
O12   C7    1.303506 A    
O39   Cu10  1.960780 S    
O13   C2    1.304331 A    
C124  H40   1.083312 S    
C5    O21   1.283413 A    
C169  H75   1.106596 S    
O9    Cu1   1.959500 S    
C163  H59   1.109734 S    
C164  H58   1.110317 S    
C103  C143  1.400382 A    
C104  C144  1.402355 A    
Cu11  O44   1.966302 S    
C90   H30   1.082865 S    
O39   C153  1.306721 A    
C167  C168  1.531491 S    
N9    O66   1.300794 A    
C131  C139  1.431838 A    
O1    Cu1   1.961962 S    
C51   C73   1.418015 A    
Cu10  O47   1.966305 S    
C20   C34   1.405661 A    
O14   Cu6   1.959500 S    
N10   O68   1.300888 A    
C80   C88   1.399488 A    
C171  H80   1.110566 S    
O7    Cu7   1.964709 S    
C3    C132  1.477742 S    
O8    Cu8   1.964711 S    
C107  C147  1.400280 A    
C1    C130  1.477807 S    
C101  C109  1.417321 A    
C19   C27   1.404689 A    
N6    O60   1.301002 A    
C18   C75   1.404305 A    
C45   C71   1.419974 A    
C69   H9    1.075833 S    
C109  C151  1.476772 S    
C1    O17   1.287438 A    
C71   H11   1.075940 S    
Cu12  O42   1.965552 S    
N7    O61   1.300773 A    
C101  C141  1.405414 A    
N3    O53   1.302757 A    
O11   Cu3   1.960197 S    
O36   C150  1.306243 A    
Cu9   O45   1.965551 S    
C169  H74   1.106676 S    
C107  C115  1.414679 A    
C47   C66   1.414715 A    
C53   C61   1.414584 A    
C165  H64   1.100857 S    
C122  H38   1.083330 S    
C34   C44   1.409368 A    
C140  C148  1.409665 A    
N12   O71   1.301029 A    
O38   Cu10  1.962840 S    
C116  C124  1.395523 A    
C167  H70   1.108350 S    
C108  C116  1.415710 A    
O38   C156  1.308658 A    
C109  C117  1.392295 A    
C12   C59   1.485286 S    
C117  C125  1.396195 A    
O36   Cu11  1.960780 S    
C112  C120  1.395636 A    
C161  H55   1.106766 S    
C21   C39   1.400240 A    
C166  H61   1.105008 S    
C57   C63   1.403151 A    
C125  C133  1.430304 A    
C164  H56   1.108257 S    
N5    O57   1.301160 A    
C115  C153  1.476265 S    
Cu1   O17   1.961399 S    
C114  C156  1.480986 S    
C88   C96   1.393597 A    
Cu3   O27   1.970190 S    
C160  H47   1.110515 S    
C161  C162  1.528434 S    
C150  O42   1.291553 A    
C158  H43   1.110314 S    
C170  H72   1.108509 S    
C37   C41   1.404215 A    
N2    O51   1.302871 A    
C154  O46   1.291575 A    
C108  C148  1.402713 A    
C111  C119  1.395598 A    
C18   C36   1.409004 A    
N11   O69   1.300787 A    
O30   C14   1.290392 A    
C127  C135  1.431696 A    
C149  O41   1.291202 A    
C45   C65   1.414007 A    
C14   C53   1.498892 S    
C78   C97   1.401432 A    
Cu6   O30   1.968381 S    
O4    C15   1.308584 A    
O5    C10   1.307847 A    
C54   C62   1.415278 A    
C138  C167  1.526963 S    
C118  H34   1.083359 S    
C159  H50   1.111809 S    
C86   H26   1.083196 S    
C75   H15   1.081688 S    
C73   H13   1.079172 S    
C110  C152  1.477481 S    
C79   C100  1.402103 A    
C24   C38   1.400385 A    
C72   H12   1.076120 S    
C51   C59   1.430336 A    
C21   C72   1.393356 A    
Cu1   Cu6   2.673172 S    
C78   C86   1.403339 A    
Cu3   Cu8   2.668764 S    
C7    C128  1.477810 S    
O10   C5    1.307868 A    
O27   C11   1.290899 A    
O15   C4    1.306554 A    
C81   C145  1.480997 S    
C77   C98   1.403852 A    
C43   C67   1.418036 A    
O14   C1    1.303058 A    
H23   C96   1.083304 S    
C83   C96   1.402138 A    
C33   C43   1.409378 A    
Cu5   O21   1.961399 S    
C4    O20   1.282369 A    
C24   C32   1.403292 A    
C39   C42   1.404564 A    
C89   C97   1.396622 A    
C84   C92   1.399386 A    
C139  C147  1.412029 A    
C85   H25   1.083219 S    
C89   H29   1.083278 S    
C18   C26   1.403696 A    
C172  H76   1.108275 S    
C88   H28   1.083072 S    
C22   C30   1.403326 A    
C168  H66   1.108278 S    
O34   Cu12  1.962840 S    
C78   C142  1.481359 S    
C22   C40   1.399925 A    
C46   C66   1.414053 A    
C77   C85   1.399739 A    
C58   C64   1.403460 A    
C35   C44   1.406701 A    
C48   C70   1.420409 A    
N7    O62   1.300926 A    
C119  H35   1.083298 S    
N1    O49   1.300381 A    
C79   C143  1.471977 S    
C56   C61   1.414814 A    
O33   C151  1.309581 A    
C17   C35   1.408984 A    
C17   C25   1.403817 A    
C23   C37   1.400033 A    
C2    O18   1.289100 A    
C11   C60   1.485249 S    
C24   C69   1.393743 A    
C140  C171  1.526323 S    
N12   O72   1.300843 A    
C133  C157  1.529844 S    
O15   Cu7   1.960197 S    
O16   Cu8   1.960197 S    
C120  C128  1.397746 A    
C37   C39   1.410787 A    
C163  H60   1.110601 S    
H4    C29   1.083688 S    
C164  H57   1.110113 S    
C106  C146  1.406393 A    
N2    O52   1.300616 A    
Cu4   O20   1.962459 S    
N9    O65   1.300848 A    
C105  C145  1.406019 A    
C5    C126  1.479671 S    
N1    O50   1.302889 A    
C157  H45   1.106691 S    
O1    C14   1.309418 A    
C123  C131  1.398561 A    
O3    C16   1.308307 A    
C50   C68   1.415083 A    
C155  O47   1.292508 A    
C22   C71   1.393063 A    
C20   C28   1.404582 A    
C8    C127  1.480950 S    
C116  C154  1.476235 S    
Cu2   O18   1.961400 S    
O8    C11   1.298721 A    
C63   N3    1.437746 S    
C134  C159  1.526522 S    
C49   C75   1.413884 A    
C105  N9    1.433152 S    
C168  H68   1.110289 S    
N8    O64   1.301389 A    
C19   C74   1.401494 A    
C64   N4    1.437582 S    
C162  H51   1.110952 S    
O31   C15   1.289086 A    
O32   C16   1.289673 A    
C152  O44   1.289112 A    
C23   C70   1.393523 A    
C115  C123  1.395447 A    
N8    O63   1.301598 A    
C113  C121  1.396422 A    
O2    Cu2   1.961960 S    
C135  C143  1.412181 A    
C156  O48   1.291613 A    
O4    Cu4   1.964711 S    
C111  C149  1.476560 S    
C130  C138  1.425015 A    
C48   C56   1.433414 A    
C81   C89   1.403683 A    
C158  H42   1.109469 S    
H24   C95   1.083307 S    
Cu7   O23   1.962461 S    
C136  C163  1.526200 S    
Cu8   O24   1.962459 S    
C7    O23   1.284652 A    
C2    C129  1.481158 S    
C52   C74   1.418096 A    
C8    O24   1.282764 A    
O6    C9    1.307594 A    
C61   N1    1.436303 S    
C48   C65   1.414881 A    
Cu1   O25   1.968381 S    
C80   C144  1.470566 S    
N4    O55   1.300890 A    
C135  C161  1.532742 S    
C91   C99   1.393195 A    
C92   H32   1.083086 S    
C128  C136  1.425346 A    
C172  H78   1.110266 S    
C137  C145  1.413591 A    
C70   H10   1.075552 S    
C82   C146  1.475612 S    
C74   H14   1.078692 S    
