data_mof_unit_36285.cif
_audit_creation_date              2012-12-10T18:47:49-0500
_audit_creation_method            fapswitch 2.2
_symmetry_space_group_name_H-M    P1
_symmetry_Int_Tables_number       1
_space_group_crystal_system       triclinic
_cell_length_a                    9.880673
_cell_length_b                    10.680566
_cell_length_c                    15.669416
_cell_angle_alpha                 91.867312
_cell_angle_beta                  66.61324
_cell_angle_gamma                 89.227411
_cell_volume                      1516.32661767

loop_
_atom_site_label
_atom_site_type_symbol
_atom_type_description
_atom_site_fract_x
_atom_site_fract_y
_atom_site_fract_z
_atom_type_partial_charge
C1    C     C_R   0.506057 0.738966 0.488684 0.899282
C2    C     C_R   0.380217 0.939988 0.490401 -0.044761
C3    C     C_R   0.490918 0.125695 0.520152 -0.165087
C4    C     C_R   0.512090 0.872705 0.475031 -0.151929
C5    C     C_R   0.963230 0.416182 0.444355 0.023938
C6    C     C_R   0.038486 0.586050 0.553764 -0.000443
C7    C     C_R   0.107761 0.416283 0.443691 0.030765
C8    C     C_R   0.894722 0.588845 0.552495 0.008827
C9    C     C_R   0.407108 0.491969 0.675957 0.886441
C10   C     C_R   0.592778 0.509267 0.324245 0.878660
C11   C     C_R   0.346854 0.480728 0.778319 -0.133941
C12   C     C_R   0.494874 0.260371 0.509878 0.891651
C13   C     C_R   0.653330 0.523606 0.222238 -0.174584
C14   C     C_R   0.180464 0.580658 0.922698 -0.249192
C15   C     C_R   0.822988 0.429241 0.076696 -0.255615
C16   C     C_R   0.204835 0.528768 0.835211 -0.023878
C17   C     C_R   0.796552 0.478293 0.165139 -0.032176
C18   C     C_R   0.443705 0.444059 0.820559 -0.081801
C19   C     C_R   0.556783 0.561520 0.180138 -0.079515
C20   C     C_R   0.414066 0.488768 0.913054 0.003862
C21   C     C_R   0.588712 0.519915 0.086579 0.068114
C22   C     C_R   0.291204 0.572595 0.956534 0.130904
C23   C     C_R   0.396877 0.648604 0.061489 -0.137606
C24   C     C_R   0.712872 0.437569 0.042466 0.140550
C25   C     C_R   0.507296 0.464425 0.961181 0.054633
C26   C     C_R   0.496737 0.545151 0.037852 0.098602
C27   C     C_2   0.418753 0.632130 0.239564 0.452149
C28   C     C_2   0.582288 0.373613 0.762587 0.411403
C29   C     C_1   0.917763 0.481271 0.194307 0.247339
C30   C     C_1   0.082788 0.525454 0.806816 0.206206
C31   C     C_2   0.790791 0.876908 0.422422 0.476370
C32   C     C_2   0.213139 0.122305 0.577856 0.404470
C33   C     C_1   0.737841 0.110371 0.529025 0.295001
C34   C     C_R   0.608444 0.361664 0.937140 -0.224361
C35   C     C_1   0.270067 0.887793 0.460903 0.304366
C36   C     C_1   0.927051 0.327632 0.385639 0.281908
C37   C     C_1   0.076357 0.673227 0.612568 0.359714
C38   C     C_2   0.219927 0.325311 0.381311 0.500216
C39   C     C_2   0.788100 0.690994 0.605853 0.399089
C40   C     C_R   0.285514 0.653698 0.029121 -0.166778
C41   C     C_R   0.720103 0.357455 0.969141 -0.185251
C42   C     C_R   0.639548 0.935182 0.469774 -0.063975
C43   C     C_R   0.363254 0.063087 0.525551 -0.074040
C44   C     C_R   0.623499 0.058385 0.503550 -0.092118
H1    H     H_    0.200776 0.727183 0.056160 0.158017
H2    H     H_    0.200374 0.205701 0.622119 0.090848
H3    H     H_    0.256836 0.247036 0.409222 0.067469
H4    H     H_    0.672558 0.674898 0.642121 0.118059
H5    H     H_    0.805496 0.284514 0.941874 0.159128
H6    H     H_    0.077915 0.632024 0.962606 0.154689
H7    H     H_    0.926482 0.379398 0.036412 0.156341
H8    H     H_    0.401827 0.726234 0.105785 0.141928
H9    H     H_    0.603499 0.282800 0.893964 0.176723
H10   H     H_    0.425063 0.714941 0.279681 0.033098
H11   H     H_    0.687971 0.406221 0.758954 0.074634
H12   H     H_    0.881001 0.908557 0.439711 0.109978
N1    N     N_R   0.142780 0.500030 0.500020 -0.155467
N2    N     N_R   0.857220 0.499970 0.499980 -0.142760
N3    N     N_1   0.016770 0.485593 0.215983 -0.096305
N4    N     N_1   0.983134 0.520882 0.785761 -0.232920
N5    N     N_1   0.828608 0.150620 0.550306 -0.115720
N6    N     N_1   0.182790 0.846947 0.436546 -0.162418
N7    N     N_1   0.899121 0.256166 0.338294 -0.207568
N8    N     N_1   0.105831 0.743811 0.659768 -0.166717
O1    O     O_R   0.385370 0.683250 0.500010 -0.640733
O2    O     O_2   0.578450 0.278599 0.718231 -0.564557
O3    O     O_2   0.817718 0.797047 0.359830 -0.564621
O4    O     O_2   0.101758 0.077241 0.575579 -0.553197
O5    O     O_2   0.265756 0.333375 0.297059 -0.529180
O6    O     O_2   0.829219 0.797595 0.609476 -0.580086
O7    O     O_R   0.614630 0.316750 0.499990 -0.594205
O8    O     O_R   0.614700 0.683220 0.500000 -0.600771
O9    O     O_R   0.385300 0.316780 0.500000 -0.674895
O10   O     O_R   0.319830 0.500020 0.632250 -0.623048
O11   O     O_R   0.680170 0.499980 0.367750 -0.591616
O12   O     O_R   0.549160 0.499990 0.632240 -0.641222
O13   O     O_R   0.450840 0.500010 0.367760 -0.587438
O14   O     O_2   0.297900 0.593334 0.249544 -0.498051
Zn1   Zn    Zn3+2 0.346870 0.500020 0.500000 0.967415
Zn2   Zn    Zn3+2 0.653130 0.499980 0.500000 0.997764

loop_
_geom_bond_atom_site_label_1
_geom_bond_atom_site_label_2
_ccdc_geom_bond_type
C2    C35   S    
C21   C26   A    
C11   C18   A    
O1    Zn1   S    
C31   C42   S    
C17   C29   S    
N1    Zn1   S    
C2    C4    A    
C27   O14   D    
C27   H10   S    
C31   O3    D    
C3    C43   A    
C5    N2    A    
C19   C21   A    
C28   H11   S    
C20   C25   A    
C16   C30   S    
C23   C40   A    
C5    C36   S    
C10   O11   A    
C23   C26   A    
C32   C43   S    
C3    C12   S    
C8    N2    A    
C39   O6    D    
C29   N3    T    
C30   N4    T    
C1    O1    A    
C9    O12   A    
C15   H7    S    
C31   H12   S    
C36   N7    T    
C19   C27   S    
O11   Zn2   S    
N2    Zn2   S    
C25   C34   A    
C32   O4    D    
C38   O5    D    
C12   O9    A    
C24   C41   A    
C6    N1    A    
C34   C41   A    
C42   C44   A    
C41   H5    S    
O7    Zn2   S    
C10   O13   A    
O13   Zn1   S    
C40   H1    S    
C3    C44   A    
C1    O8    A    
C13   C19   A    
C18   C28   S    
C5    C7    A    
C6    C8    A    
C25   C26   A    
C28   O2    D    
C11   C16   A    
C2    C43   A    
C22   C40   A    
O9    Zn1   S    
C6    C37   S    
C9    C11   S    
C38   H3    S    
C15   C24   A    
C8    C39   S    
C12   O7    A    
C20   C22   A    
O10   Zn1   S    
C14   C16   A    
C9    O10   A    
C37   N8    T    
C15   C17   A    
C33   C44   S    
C32   H2    S    
O12   Zn2   S    
C10   C13   S    
C13   C17   A    
C1    C4    S    
C14   C22   A    
O8    Zn2   S    
C23   H8    S    
C14   H6    S    
C4    C42   A    
C7    C38   S    
C35   N6    T    
C18   C20   A    
C34   H9    S    
C33   N5    T    
C21   C24   A    
C7    N1    A    
C39   H4    S    
