data_mof_unit_20746.cif
_audit_creation_date              2012-12-11T14:15:27-0500
_audit_creation_method            fapswitch 2.2
_symmetry_space_group_name_H-M    P1
_symmetry_Int_Tables_number       1
_space_group_crystal_system       triclinic
_cell_length_a                    11.062769
_cell_length_b                    12.825242
_cell_length_c                    24.317765
_cell_angle_alpha                 90.851341
_cell_angle_beta                  95.65791
_cell_angle_gamma                 68.650558
_cell_volume                      3197.02457286

loop_
_atom_site_label
_atom_site_type_symbol
_atom_type_description
_atom_site_fract_x
_atom_site_fract_y
_atom_site_fract_z
_atom_type_partial_charge
C1    C     C_R   0.146506 0.614544 0.427814 0.535111
C2    C     C_R   0.679187 0.542415 0.314131 -0.082428
C3    C     C_R   0.760135 0.690796 0.304067 0.224732
C4    C     C_R   0.693835 0.713990 0.252186 0.031357
C5    C     C_R   0.656440 0.630691 0.224266 0.039390
C6    C     C_R   0.615897 0.650368 0.166705 0.306467
C7    C     C_R   0.642636 0.836075 0.172920 -0.203061
C8    C     C_R   0.671114 0.819780 0.228341 -0.085239
C9    C     C_1   0.256749 0.122552 0.130321 -0.009116
C10   C     C_2   0.235804 0.159503 0.237587 -0.121248
C11   C     C_2   0.121522 0.226690 0.255867 -0.123897
C12   C     C_R   0.762468 0.598134 0.401519 0.538620
C13   C     C_1   0.113901 0.244670 0.314785 -0.055483
C14   C     C_1   0.245148 0.142629 0.178673 -0.057246
C15   C     C_1   0.107007 0.265484 0.363261 -0.009773
C16   C     C_1   0.166151 0.761106 0.125130 -0.024218
C17   C     C_2   0.115124 0.734731 0.229396 0.277357
C18   C     C_2   0.204660 0.661262 0.267063 0.039369
C19   C     C_1   0.183750 0.646756 0.324242 0.046332
C20   C     C_1   0.146133 0.745051 0.172186 -0.065591
C21   C     C_1   0.175022 0.629021 0.372313 -0.003132
C22   C     C_1   0.621730 0.760092 0.864313 0.028334
C23   C     C_R   0.095522 0.303677 0.419033 0.563453
C24   C     C_2   0.673528 0.736506 0.759085 -0.113262
C25   C     C_2   0.685929 0.641290 0.732250 -0.117164
C26   C     C_1   0.709392 0.628953 0.674344 -0.061944
C27   C     C_1   0.648855 0.748336 0.816902 -0.024506
C28   C     C_1   0.734556 0.613547 0.626841 -0.026559
C29   C     C_R   0.228485 0.173140 0.853664 -0.002728
C30   C     C_R   0.104492 0.273945 0.649662 -0.002931
C31   C     C_R   0.993495 0.290613 0.730915 -0.092610
C32   C     C_R   0.991468 0.278671 0.674282 0.218721
C33   C     C_R   0.238055 0.246342 0.684198 -0.125432
C34   C     C_R   0.129455 0.605589 0.595608 0.538356
C35   C     C_R   0.230565 0.229967 0.741949 -0.024545
C36   C     C_R   0.111219 0.243397 0.764109 -0.022230
C37   C     C_R   0.112786 0.201530 0.818400 -0.065617
C38   C     C_R   0.341759 0.188579 0.835258 0.282059
C39   C     C_R   0.341606 0.204837 0.779197 -0.126653
C40   C     C_R   0.132842 0.762118 0.848728 -0.037108
C41   C     C_R   0.176017 0.624417 0.652885 -0.028542
C42   C     C_R   0.297079 0.556641 0.744199 0.267767
C43   C     C_R   0.284885 0.545980 0.684657 0.237470
C44   C     C_R   0.103213 0.721773 0.677617 -0.152442
C45   C     C_R   0.777355 0.587488 0.572362 0.540720
C46   C     C_R   0.120176 0.733830 0.734283 -0.009524
C47   C     C_R   0.203771 0.646095 0.768660 -0.020050
C48   C     C_R   0.202967 0.656259 0.826994 0.005423
C49   C     C_R   0.052939 0.851636 0.811552 0.009550
C50   C     C_R   0.072969 0.839609 0.754838 0.205459
C51   C     C_R   0.278752 0.085042 0.074807 0.547531
C52   C     C_R   0.586545 0.776807 0.082648 0.550640
C53   C     C_R   0.189516 0.790409 0.070332 0.540799
C54   C     C_R   0.245817 0.113396 0.907363 0.545295
C55   C     C_R   0.575325 0.775988 0.918623 0.541150
C56   C     C_R   0.086595 0.319751 0.592189 0.527214
C57   C     C_R   0.165488 0.789281 0.906130 0.575082
C58   C     C_R   0.623676 0.751674 0.141517 0.018131
C59   C     C_R   0.731864 0.615948 0.340068 -0.059133
C60   C     C_R   0.661480 0.536644 0.256739 0.315539
Cr1   Cr    Cr6+3 0.189770 0.415650 0.511620 1.030387
Cr2   Cr    Cr6+3 0.930400 0.667320 0.496770 1.002732
Cr3   Cr    Cr6+3 0.879870 0.417010 0.491650 0.987702
Cr4   Cr    Cr6+3 0.149500 0.973980 0.985330 1.064316
Cr5   Cr    Cr6+3 0.457000 0.976510 0.994660 1.064185
Cr6   Cr    Cr6+3 0.411170 0.724270 0.995270 1.110227
H1    H     H_    0.681458 0.569761 0.754072 0.144923
H2    H     H_    0.677662 0.808152 0.737288 0.140231
H3    H     H_    0.901136 0.311563 0.748188 0.179932
H4    H     H_    0.431273 0.193725 0.765597 0.162578
H5    H     H_    0.634753 0.915305 0.154882 0.130883
H6    H     H_    0.029575 0.789007 0.653052 0.161176
H7    H     H_    0.682064 0.888794 0.252306 0.152720
H8    H     H_    0.648595 0.488900 0.338678 0.165689
H9    H     H_    0.034303 0.270735 0.228002 0.132175
H10   H     H_    0.323027 0.115805 0.265549 0.132328
O1    O     O_R   0.196340 0.303200 0.448500 -0.502755
O2    O     O_R   0.811960 0.658090 0.547150 -0.484761
O3    O     O_R   0.757930 0.506140 0.547110 -0.547940
O4    O     O_R   0.988670 0.321620 0.556040 -0.524304
O5    O     O_3   0.000020 0.499990 0.500010 -0.282469
O6    O     O_R   0.113660 0.883270 0.047820 -0.518260
O7    O     O_R   0.186930 0.068530 0.043990 -0.503395
O8    O     O_R   0.377770 0.089040 0.054220 -0.514491
O9    O     O_R   0.562800 0.872960 0.056970 -0.528055
O10   O     O_R   0.555390 0.700940 0.062700 -0.450456
O11   O     O_R   0.295020 0.731920 0.049950 -0.479670
O12   O     O_R   0.199310 0.519670 0.454880 -0.497852
O13   O     O_R   0.094290 0.884230 0.921550 -0.447310
O14   O     O_R   0.168980 0.069410 0.926940 -0.517112
O15   O     O_R   0.358400 0.089990 0.927950 -0.429443
O16   O     O_R   0.544850 0.873850 0.939920 -0.487070
O17   O     O_R   0.536020 0.701900 0.936430 -0.483235
O18   O     O_R   0.277070 0.732810 0.932890 -0.443410
O19   O     O_3   0.339220 0.891590 0.991750 -0.293509
O20   O     O_R   0.045660 0.691380 0.441680 -0.557487
O21   O     O_R   0.811930 0.659460 0.430950 -0.534643
O22   O     O_R   0.757900 0.507620 0.421760 -0.518986
O23   O     O_R   0.988630 0.322990 0.439840 -0.499896
O24   O     O_R   0.196380 0.301720 0.573850 -0.522035
O25   O     O_R   0.199350 0.518300 0.571080 -0.481399
O26   O     O_R   0.045700 0.689900 0.567030 -0.519002
O27   O     O_3   0.563430 0.585917 0.130588 -0.534490
C61   C     C_3   0.544158 0.485911 0.137990 -0.008412
H11   H     H_    0.458552 0.499837 0.161215 0.159933
H12   H     H_    0.638495 0.416592 0.149237 0.161162
H13   H     H_    0.511746 0.460242 0.097812 0.111057
O28   O     O_3   0.993196 0.799317 0.245384 -0.509471
C62   C     C_3   0.943303 0.906326 0.219406 -0.095467
H14   H     H_    0.902014 0.902601 0.176180 0.126055
H15   H     H_    0.018425 0.945272 0.220637 0.116523
H16   H     H_    0.863606 0.962112 0.242279 0.123989
C63   C     C_2   0.997854 0.184732 0.839171 0.232112
H17   H     H_    0.982962 0.194346 0.882568 0.152981
O29   O     O_2   0.914979 0.165670 0.808624 -0.552406
O30   O     O_3   0.453018 0.171075 0.873655 -0.534164
C64   C     C_3   0.567763 0.184646 0.860938 -0.080682
H18   H     H_    0.560181 0.271837 0.869196 0.156050
H19   H     H_    0.601542 0.150428 0.820977 0.123115
H20   H     H_    0.647496 0.133899 0.891713 0.182499
O31   O     O_3   0.913616 0.219284 0.654182 -0.612120
C65   C     C_3   0.845775 0.250525 0.601963 -0.073293
H21   H     H_    0.899885 0.196957 0.569079 0.161805
H22   H     H_    0.805761 0.342814 0.597002 0.174106
H23   H     H_    0.759003 0.228834 0.600243 0.123268
C66   C     C_2   0.380375 0.235204 0.663565 0.286779
H24   H     H_    0.303803 0.248932 0.648749 0.171699
O32   O     O_2   0.497357 0.206819 0.685038 -0.551957
C67   C     C_2   0.246737 0.551933 0.862397 0.288551
H25   H     H_    0.213737 0.484631 0.849438 0.099011
O33   O     O_2   0.325297 0.536126 0.903136 -0.457614
C68   C     C_2   0.929570 0.945508 0.825684 0.276993
H26   H     H_    0.854569 0.983125 0.792858 0.113615
O34   O     O_2   0.900584 0.979539 0.871344 -0.476143
O35   O     O_3   0.402635 0.489613 0.780142 -0.581785
C69   C     C_3   0.472585 0.390005 0.756471 -0.034620
H27   H     H_    0.540061 0.403684 0.729884 0.180306
H28   H     H_    0.399579 0.358402 0.737654 0.206585
H29   H     H_    0.537052 0.329654 0.787037 0.117982
O36   O     O_3   0.124107 0.908384 0.730878 -0.566930
C70   C     C_3   0.028069 0.013567 0.715790 -0.034820
H30   H     H_    0.057943 0.079894 0.733403 0.214335
H31   H     H_    0.926171 0.025472 0.723196 0.126725
H32   H     H_    0.022012 0.023197 0.670809 0.179818
O37   O     O_3   0.362901 0.450109 0.659775 -0.597620
C71   C     C_3   0.447492 0.469897 0.625522 -0.065240
H33   H     H_    0.535668 0.475471 0.649124 0.103347
H34   H     H_    0.398703 0.546867 0.599496 0.141263
H35   H     H_    0.482202 0.396166 0.598674 0.152275
O38   O     O_3   0.605524 0.463735 0.235842 -0.599973
C72   C     C_3   0.637929 0.359933 0.263239 -0.177211
H36   H     H_    0.556337 0.365917 0.287982 0.142635
H37   H     H_    0.733995 0.331869 0.288383 0.115716
H38   H     H_    0.643101 0.295200 0.231788 0.118135
O39   O     O_3   0.851315 0.740897 0.312181 -0.570156
C73   C     C_3   0.845679 0.791336 0.361669 -0.092730
H39   H     H_    0.910588 0.718438 0.378807 0.259171
H40   H     H_    0.745975 0.825267 0.376074 0.119226
H41   H     H_    0.889730 0.855823 0.363242 0.147375
C74   C     C_2   0.339798 0.599606 0.256869 0.194338
H42   H     H_    0.365571 0.520215 0.236452 0.116029
O40   O     O_2   0.422508 0.631746 0.278836 -0.506516

loop_
_geom_bond_atom_site_label_1
_geom_bond_atom_site_label_2
_ccdc_geom_bond_type
Cr5   O16   S    
C23   O23   A    
C1    C21   S    
C66   H24   S    
Cr2   O20   S    
C64   H18   S    
C6    C58   A    
C35   C39   A    
C35   C36   A    
C9    C51   S    
C24   C27   S    
Cr4   O14   S    
C4    C8    A    
C64   H19   S    
C61   H12   S    
O37   C71   S    
C7    C8    A    
Cr3   O3    S    
O28   C62   S    
C34   O26   A    
C57   O13   A    
Cr3   O5    S    
C36   C37   A    
C19   C21   T    
C54   O14   A    
Cr3   O22   S    
C62   H15   S    
C7    H5    S    
C5    C6    A    
C50   O36   S    
C37   C63   S    
C29   C54   S    
C40   C49   A    
Cr2   O21   S    
C17   C20   S    
O30   C64   S    
Cr5   O15   S    
C18   C19   S    
C72   H38   S    
C16   C53   S    
C33   C66   S    
Cr3   O23   S    
C63   H17   S    
C12   C59   S    
C10   H10   S    
C47   C48   A    
Cr1   O1    S    
C68   H26   S    
C25   H1    S    
C29   C38   A    
C72   H36   S    
C45   O2    A    
C7    C58   A    
C12   O22   A    
C5    C60   A    
C55   O17   A    
Cr6   O18   S    
C1    O12   A    
C15   C23   S    
C41   C43   A    
C34   C41   S    
Cr4   O13   S    
C53   O11   A    
C69   H29   S    
C61   H11   S    
C44   C46   A    
C71   H34   S    
Cr3   O4    S    
C49   C68   S    
C28   C45   S    
C34   O25   A    
O35   C69   S    
C24   C25   D    
C69   H28   S    
C10   C14   S    
C64   H20   S    
Cr6   O11   S    
C2    C59   A    
C4    C5    A    
Cr5   O8    S    
C25   C26   S    
C30   C56   S    
C23   O1    A    
C63   O29   D    
C53   O6    A    
C70   H31   S    
C74   O40   D    
Cr1   O25   S    
C9    C14   T    
Cr4   O7    S    
C55   O16   A    
C43   O37   S    
Cr1   O12   S    
C71   H35   S    
C38   O30   S    
C31   C32   A    
Cr5   O19   S    
C16   C20   T    
C3    O39   S    
C17   C18   D    
O31   C65   S    
C45   O3    A    
C60   O38   S    
C6    O27   S    
O36   C70   S    
Cr4   O6    S    
C12   O21   A    
C52   C58   S    
Cr6   O17   S    
Cr2   O5    S    
C52   O9    A    
C22   C27   T    
C13   C15   T    
C29   C37   A    
C41   C44   A    
C48   C67   S    
C62   H16   S    
Cr1   O24   S    
C42   C43   A    
C56   O24   A    
C65   H22   S    
C3    C4    A    
C51   O7    A    
O39   C73   S    
C71   H33   S    
C40   C48   A    
C46   C47   A    
C73   H39   S    
C66   O32   D    
C40   C57   S    
C30   C33   A    
C31   C36   A    
C32   O31   S    
Cr2   O2    S    
C73   H41   S    
Cr4   O19   S    
C69   H27   S    
C2    H8    S    
Cr6   O10   S    
Cr5   O9    S    
C22   C55   S    
C70   H32   S    
C46   C50   A    
C26   C28   T    
C56   O4    A    
C57   O18   A    
C74   H42   S    
C65   H23   S    
C73   H40   S    
C67   H25   S    
C54   O15   A    
Cr1   O5    S    
C70   H30   S    
C30   C32   A    
C11   C13   S    
C38   C39   A    
C1    O20   A    
C52   O10   A    
C8    H7    S    
C33   C35   A    
C39   H4    S    
C44   H6    S    
C2    C60   A    
C42   C47   A    
C72   H37   S    
C18   C74   S    
C10   C11   D    
C24   H2    S    
C31   H3    S    
C68   O34   D    
C49   C50   A    
C17   O28   S    
O27   C61   S    
O38   C72   S    
C42   O35   S    
C11   H9    S    
Cr2   O26   S    
C65   H21   S    
C62   H14   S    
C51   O8    A    
C61   H13   S    
Cr6   O19   S    
C67   O33   D    
C3    C59   A    
