data_mof_unit_18078.cif
_audit_creation_date              2012-10-26T19:52:25-0400
_audit_creation_method            fapswitch 2.2
_symmetry_space_group_name_H-M    P1
_symmetry_Int_Tables_number       1
_space_group_crystal_system       triclinic
_cell_length_a                    9.541371
_cell_length_b                    10.819401
_cell_length_c                    13.399388
_cell_angle_alpha                 90.464941
_cell_angle_beta                  72.429404
_cell_angle_gamma                 89.774002
_cell_volume                      1318.63717534

loop_
_atom_site_label
_atom_site_type_symbol
_atom_type_description
_atom_site_fract_x
_atom_site_fract_y
_atom_site_fract_z
_atom_type_partial_charge
C1    C     C_R   0.499720 0.737772 0.499775 0.536557
C2    C     C_R   0.370986 0.500536 0.815218 -0.000873
C3    C     C_R   0.374406 0.937384 0.497543 0.016422
C4    C     C_R   0.420839 0.504352 0.700332 0.534078
C5    C     C_R   0.495506 0.871156 0.507634 -0.004862
C6    C     C_R   0.609177 0.935331 0.531955 -0.173959
C7    C     C_R   0.609129 0.064119 0.533295 -0.163449
C8    C     C_R   0.495533 0.129461 0.510136 0.003497
C9    C     C_R   0.375292 0.064757 0.498525 0.005654
C10   C     C_3   0.303445 0.074471 0.414244 -0.242086
C11   C     C_3   0.302736 0.933641 0.411869 -0.106264
C12   C     C_R   0.437564 0.497510 0.977477 0.021084
C13   C     C_R   0.951571 0.415836 0.440695 0.159133
C14   C     C_R   0.896967 0.573898 0.566753 -0.009261
C15   C     C_R   0.045580 0.573017 0.567448 -0.027688
C16   C     C_R   0.499581 0.262419 0.501535 0.551995
C17   C     C_R   0.099145 0.416276 0.440309 0.162832
C18   C     C_3   0.152775 0.402941 0.324091 -0.288021
C19   C     C_3   0.993718 0.400920 0.324781 -0.280012
C20   C     C_R   0.578897 0.501174 0.299829 0.542965
C21   C     C_R   0.763127 0.635448 0.036897 -0.134333
C22   C     C_R   0.624058 0.518835 0.186530 -0.004175
C23   C     C_R   0.456454 0.548888 0.876755 0.044200
C24   C     C_R   0.247955 0.427550 0.861972 -0.137822
C25   C     C_R   0.217733 0.391257 0.965035 -0.145757
C26   C     C_R   0.313871 0.421303 0.021094 -0.126491
C27   C     C_3   0.148039 0.877350 0.447176 -0.275384
C28   C     C_3   0.069468 0.892352 0.364199 -0.452945
C29   C     C_3   0.537418 0.749112 0.769852 -0.280179
C30   C     C_3   0.389012 0.814816 0.812331 -0.439465
C31   C     C_R   0.541090 0.526237 0.031432 0.025459
C32   C     C_R   0.658611 0.607531 0.985493 0.034562
C33   C     C_R   0.663957 0.668666 0.893426 -0.127414
C34   C     C_R   0.556913 0.648477 0.843347 0.017553
C35   C     C_R   0.529650 0.479529 0.131164 -0.133511
C36   C     C_R   0.745220 0.592109 0.137515 -0.138890
Cu1   Cu    Cu3+1 0.359330 0.500020 0.500010 0.921589
Cu2   Cu    Cu3+1 0.640670 0.499980 0.499990 0.921770
H1    H     H_    0.819847 0.622871 0.179421 0.118546
H2    H     H_    0.963327 0.482172 0.285269 0.151201
H3    H     H_    0.746001 0.739608 0.864887 0.091430
H4    H     H_    0.959560 0.310001 0.300998 0.121064
H5    H     H_    0.853645 0.697029 0.001899 0.103827
H6    H     H_    0.444623 0.416496 0.170519 0.098533
H7    H     H_    0.179178 0.392538 0.817005 0.134019
H8    H     H_    0.286558 0.383985 0.098610 0.098840
H9    H     H_    0.123488 0.333542 0.999971 0.117109
H10   H     H_    0.700554 0.886556 0.546193 0.123499
H11   H     H_    0.052076 0.991692 0.351080 0.148699
H12   H     H_    0.700551 0.111902 0.548055 0.135839
H13   H     H_    0.134944 0.848568 0.289265 0.151271
H14   H     H_    0.960587 0.846692 0.390853 0.147019
H15   H     H_    0.158484 0.777333 0.459930 0.182866
H16   H     H_    0.080121 0.919961 0.522116 0.142051
H17   H     H_    0.297395 0.750510 0.815697 0.148362
H18   H     H_    0.376016 0.852769 0.891934 0.155446
H19   H     H_    0.382700 0.892319 0.759974 0.145277
H20   H     H_    0.624069 0.820568 0.759059 0.121795
H21   H     H_    0.549627 0.713716 0.691021 0.181397
H22   H     H_    0.193076 0.118845 0.443573 0.140768
H23   H     H_    0.376882 0.115263 0.341302 0.114002
H24   H     H_    0.375911 0.892745 0.337824 0.140854
H25   H     H_    0.818965 0.636132 0.618798 0.108491
H26   H     H_    0.078877 0.634331 0.620206 0.107977
H27   H     H_    0.211176 0.486465 0.285235 0.153572
H28   H     H_    0.211239 0.313685 0.298676 0.108749
N1    N     N_R   0.852320 0.499070 0.499340 -0.228623
N2    N     N_R   0.148230 0.499110 0.499340 -0.232094
O1    O     O_R   0.381190 0.680360 0.500000 -0.507015
O2    O     O_R   0.618780 0.680320 0.499990 -0.523440
O3    O     O_R   0.323230 0.500000 0.650990 -0.506315
O4    O     O_R   0.560820 0.499960 0.650980 -0.500378
O5    O     O_R   0.381220 0.319680 0.500010 -0.494211
O6    O     O_R   0.618810 0.319640 0.500000 -0.499762
O7    O     O_R   0.439180 0.500040 0.349020 -0.503691
O8    O     O_R   0.676770 0.500000 0.349010 -0.503478

loop_
_geom_bond_atom_site_label_1
_geom_bond_atom_site_label_2
_ccdc_geom_bond_type
C24   C25   A    
Cu2   O2    S    
Cu1   O1    S    
C10   H22   S    
C11   H24   S    
C27   H16   S    
C7    C8    A    
C21   C36   A    
Cu2   O8    S    
C18   H27   S    
C22   C35   A    
C12   C23   A    
Cu1   Cu2   S    
C6    H10   S    
C1    C5    S    
C24   H7    S    
Cu2   O6    S    
C5    C6    A    
C28   H13   S    
C15   N2    A    
C30   H19   S    
C20   O8    A    
C18   C19   S    
C21   H5    S    
C29   H21   S    
C8    C9    A    
C14   N1    A    
C9    C10   S    
C25   H9    S    
C19   H4    S    
Cu1   O7    S    
C8    C16   S    
C33   C34   A    
C21   C32   A    
Cu2   O4    S    
C13   C19   S    
C16   O5    A    
Cu1   N2    S    
C19   H2    S    
C25   C26   A    
C30   H18   S    
C29   C34   S    
C1    O1    A    
C20   O7    A    
C12   C26   A    
C2    C4    S    
C29   C30   S    
C3    C9    A    
C28   H11   S    
C31   C32   A    
C11   C27   S    
C15   H26   S    
C23   C34   A    
C17   C18   S    
C29   H20   S    
C35   H6    S    
C20   C22   S    
Cu1   O3    S    
C12   C31   A    
C2    C24   A    
C31   C35   A    
C10   H23   S    
C4    O4    A    
C13   N1    A    
Cu1   O5    S    
C17   N2    A    
C36   H1    S    
C7    H12   S    
C3    C5    A    
C27   H15   S    
C6    C7    A    
C16   O6    A    
C18   H28   S    
C22   C36   A    
C30   H17   S    
C1    O2    A    
C13   C17   A    
C33   H3    S    
C32   C33   A    
C28   H14   S    
C14   H25   S    
C3    C11   S    
C10   C11   S    
C26   H8    S    
Cu2   N1    S    
C2    C23   A    
C14   C15   A    
C4    O3    A    
C27   C28   S    
