data_mof_unit_51861.cif
_audit_creation_date              2012-12-11T14:06:39-0500
_audit_creation_method            fapswitch 2.2
_symmetry_space_group_name_H-M    P1
_symmetry_Int_Tables_number       1
_space_group_crystal_system       triclinic
_cell_length_a                    6.927145
_cell_length_b                    17.437293
_cell_length_c                    24.213063
_cell_angle_alpha                 105.121192
_cell_angle_beta                  90.242763
_cell_angle_gamma                 90.756422
_cell_volume                      2823.11176071

loop_
_atom_site_label
_atom_site_type_symbol
_atom_type_description
_atom_site_fract_x
_atom_site_fract_y
_atom_site_fract_z
_atom_type_partial_charge
O1    O     O_R   0.494290 0.391990 0.999150 -0.493977
O2    O     O_R   0.827170 0.534410 0.082350 -0.552458
O3    O     O_R   0.994360 0.608010 0.000850 -0.521005
C1    C     C_R   0.658629 0.549429 0.106007 0.724326
O4    O     O_R   0.824210 0.388010 0.004470 -0.518172
O5    O     O_R   0.991370 0.460560 0.922410 -0.545670
C2    C     C_R   0.652766 0.354498 0.999848 0.836107
O6    O     O_R   0.497270 0.539440 0.077590 -0.550668
O7    O     O_3   0.659770 0.523970 0.973170 -0.371811
V1    V     V_3+5 0.935840 0.495550 0.004980 1.592866
O8    O     O_R   0.320910 0.465590 0.917650 -0.533699
C3    C     C_R   0.150763 0.451110 0.893832 0.816306
O9    O     O_R   0.323870 0.611990 0.995530 -0.551683
C4    C     C_R   0.155079 0.645726 0.000317 0.695658
V2    V     V_3+5 0.435470 0.504450 0.995020 1.598984
O10   O     O_3   0.161670 0.476030 0.026830 -0.348195
C5    C     C_2   0.143239 0.733261 0.006181 0.172886
C6    C     C_2   0.971813 0.767973 0.998602 0.189584
C7    C     C_R   0.167194 0.261024 0.621162 0.717132
N1    N     N_R   0.081965 0.331631 0.647316 -0.583256
C8    C     C_R   0.984574 0.372453 0.614816 0.755420
C9    C     C_R   0.944603 0.336689 0.556242 -0.112823
C10   C     C_R   0.054498 0.269868 0.528325 -0.082028
C11   C     C_R   0.178981 0.235062 0.560640 -0.157317
C12   C     C_R   0.803513 0.365577 0.524266 0.485309
C13   C     C_R   0.792291 0.334293 0.464949 -0.160105
C14   C     C_R   0.912541 0.272873 0.436471 -0.075515
C15   C     C_R   0.042917 0.239326 0.468109 0.007475
C16   C     C_R   0.159608 0.175201 0.439525 -0.224019
C17   C     C_R   0.279551 0.137939 0.472578 0.310997
C18   C     C_R   0.305729 0.174462 0.531963 0.392014
C19   C     C_R   0.901479 0.243060 0.376763 0.740182
N2    N     N_R   0.023161 0.184840 0.349078 -0.543445
C20   C     C_R   0.156005 0.153283 0.378607 0.723608
O11   O     O_2   0.232350 0.214462 0.653529 -0.415423
O12   O     O_2   0.934710 0.448289 0.638426 -0.437730
H1    H     H_    0.687060 0.357923 0.440808 0.233898
O13   O     O_2   0.772723 0.273120 0.346391 -0.441263
O14   O     O_2   0.290017 0.104562 0.348700 -0.448872
C21   C     C_R   0.876192 0.094313 0.264432 -0.085542
H2    H     H_    0.785582 0.070603 0.292583 0.198529
C22   C     C_R   0.859733 0.062670 0.205381 -0.183786
H3    H     H_    0.757755 0.014378 0.188937 0.167118
C23   C     C_R   0.976880 0.091305 0.167895 -0.204609
C24   C     C_R   0.107520 0.155641 0.190723 0.265638
C25   C     C_R   0.126688 0.186572 0.250616 0.476511
C26   C     C_R   0.009772 0.155390 0.287652 0.148318
C27   C     C_R   0.935177 0.391743 0.743059 0.447370
C28   C     C_R   0.955273 0.420794 0.802954 -0.252326
H4    H     H_    0.828700 0.441906 0.828201 0.134066
C29   C     C_R   0.135137 0.422048 0.830318 -0.079753
C30   C     C_R   0.296403 0.394026 0.796543 -0.131687
H5    H     H_    0.436862 0.393399 0.816200 0.145973
C31   C     C_R   0.277458 0.364983 0.737020 -0.124009
H6    H     H_    0.403169 0.342801 0.712072 0.216966
C32   C     C_R   0.097779 0.363163 0.709310 0.291182
C33   C     C_R   0.637526 0.856998 0.618421 0.758466
N3    N     N_R   0.528666 0.817157 0.649424 -0.543848
C34   C     C_R   0.432573 0.748009 0.623522 0.731596
C35   C     C_R   0.455336 0.712418 0.564383 -0.208288
C36   C     C_R   0.548037 0.757505 0.531085 -0.100135
C37   C     C_R   0.638865 0.831737 0.557630 -0.158054
C38   C     C_R   0.381182 0.635171 0.536851 0.453251
C39   C     C_R   0.399342 0.604141 0.477461 0.442602
C40   C     C_R   0.495311 0.648829 0.444389 -0.226549
C41   C     C_R   0.552774 0.727534 0.470850 -0.060628
C42   C     C_R   0.613100 0.776605 0.436607 -0.095338
C43   C     C_R   0.694288 0.851193 0.462305 -0.097851
C44   C     C_R   0.725068 0.876309 0.521794 0.408914
C45   C     C_R   0.543482 0.617410 0.385971 0.732997
N4    N     N_R   0.587689 0.667487 0.352087 -0.524842
C46   C     C_R   0.598750 0.747756 0.376757 0.765600
O15   O     O_2   0.741150 0.920743 0.647049 -0.413465
O16   O     O_2   0.312759 0.715268 0.655050 -0.441512
O17   O     O_2   0.552173 0.538061 0.364051 -0.470058
O18   O     O_2   0.592516 0.799360 0.344025 -0.445486
H7    H     H_    0.750848 0.886485 0.435131 0.218394
C47   C     C_R   0.779723 0.655403 0.261410 0.429009
C48   C     C_R   0.793346 0.625729 0.201542 -0.266121
H8    H     H_    0.917913 0.640983 0.179480 0.181396
C49   C     C_R   0.647164 0.577845 0.169407 -0.152112
C50   C     C_R   0.486421 0.557932 0.197900 -0.270025
H9    H     H_    0.373423 0.520308 0.173403 0.144860
C51   C     C_R   0.469138 0.585498 0.257743 0.466117
C52   C     C_R   0.613581 0.636122 0.290435 0.196677
C53   C     C_R   0.600318 0.813208 0.749328 0.371213
C54   C     C_R   0.557411 0.839374 0.808599 0.257368
C55   C     C_R   0.466100 0.913630 0.830575 -0.415440
C56   C     C_R   0.389754 0.953927 0.791686 0.281587
C57   C     C_R   0.398175 0.918899 0.732251 0.339153
C58   C     C_R   0.509932 0.850091 0.710768 0.018636
C59   C     C_2   0.634702 0.269832 0.000543 -0.453851
H10   H     H_    0.762244 0.244144 0.014413 0.153909
C60   C     C_2   0.469916 0.224546 0.987621 0.308466
O19   O     O_R   0.618210 0.960470 0.922400 -0.536657
O20   O     O_R   0.291310 0.111960 0.995450 -0.503285
O21   O     O_R   0.124210 0.039530 0.077580 -0.544636
C61   C     C_R   0.461527 0.143617 0.995844 0.713602
O22   O     O_R   0.288310 0.965490 0.917650 -0.504028
O23   O     O_R   0.121180 0.892010 0.999220 -0.516323
C62   C     C_R   0.456498 0.949256 0.893945 0.894313
O24   O     O_R   0.621230 0.107990 0.000760 -0.563297
O25   O     O_3   0.455770 0.976060 0.026840 -0.388804
V3    V     V_3+5 0.179680 0.004440 0.995020 1.672453
O26   O     O_R   0.791670 0.888040 0.004570 -0.565688
C63   C     C_R   0.960718 0.854918 0.001937 0.748848
O27   O     O_R   0.794680 0.034510 0.082370 -0.544260
C64   C     C_R   0.964098 0.053147 0.105515 0.691534
V4    V     V_3+5 0.680070 0.995560 0.005010 1.548199
O28   O     O_3   0.953840 0.023940 0.973160 -0.342289
O29   O     O_3   0.305580 0.780865 0.023197 -0.655103
H11   H     H_    0.408736 0.748965 0.034313 0.290049
S1    S     S_3+6 0.293393 0.266419 0.276687 0.127053
O30   O     O_2   0.308702 0.290860 0.340826 -0.298233
O31   O     O_2   0.488602 0.241505 0.252074 -0.275451
O32   O     O_3   0.221357 0.344645 0.253778 -0.471624
H12   H     H_    0.327523 0.384428 0.264778 0.385634
O33   O     O_3   0.757252 0.389359 0.717100 -0.602913
H13   H     H_    0.668520 0.423435 0.744616 0.298312
O34   O     O_3   0.289313 0.587760 0.566392 -0.540967
H14   H     H_    0.371403 0.587332 0.599873 0.371356
O35   O     O_3   0.312960 0.531307 0.453166 -0.541914
H15   H     H_    0.261389 0.531949 0.415073 0.350081
S2    S     S_3+6 0.895617 0.955524 0.545887 0.185497
O36   O     O_2   0.958164 0.988815 0.497470 -0.310530
O37   O     O_2   0.815213 0.022212 0.591830 -0.169281
O38   O     O_3   0.089958 0.919832 0.571967 -0.454350
H16   H     H_    0.144238 0.880202 0.538868 0.333514
S3    S     S_3+6 0.979992 0.712353 0.297338 0.039374
O39   O     O_2   0.019279 0.691836 0.352881 -0.339954
O40   O     O_2   0.155353 0.695429 0.260204 -0.325738
O41   O     O_3   0.939391 0.810195 0.310040 -0.452998
H17   H     H_    0.043135 0.836212 0.336992 0.398217
O42   O     O_3   0.806941 0.720742 0.985488 -0.625932
H18   H     H_    0.696322 0.753478 0.980650 0.322543
O43   O     O_3   0.308859 0.565324 0.285053 -0.578136
H19   H     H_    0.221689 0.530204 0.256492 0.315926
S4    S     S_3+6 0.773609 0.737649 0.722680 0.152871
O44   O     O_2   0.875342 0.752202 0.671578 -0.303250
O45   O     O_2   0.922902 0.736437 0.767650 -0.245373
O46   O     O_3   0.659663 0.648821 0.702936 -0.441917
H20   H     H_    0.762895 0.610045 0.688644 0.415907
S5    S     S_3+6 0.596058 0.775898 0.854393 0.105663
O47   O     O_2   0.589861 0.689943 0.821596 -0.232462
O48   O     O_2   0.790814 0.794935 0.882460 -0.332926
O49   O     O_3   0.422573 0.788756 0.904292 -0.491903
H21   H     H_    0.481146 0.823137 0.939555 0.335798
S6    S     S_3+6 0.280803 0.048328 0.817012 0.159089
O50   O     O_2   0.406572 0.099486 0.863127 -0.312435
O51   O     O_2   0.256012 0.090247 0.770549 -0.199649
O52   O     O_3   0.063157 0.035941 0.844213 -0.455942
H22   H     H_    0.992044 0.998513 0.812624 0.345712
O53   O     O_3   0.297871 0.954054 0.696147 -0.524102
H23   H     H_    0.291524 0.917852 0.657328 0.358116
S7    S     S_3+6 0.255473 0.257290 0.959848 0.055991
O54   O     O_2   0.160429 0.315777 0.008219 -0.349490
O55   O     O_2   0.306234 0.295783 0.912962 -0.330931
O56   O     O_3   0.096591 0.182969 0.933139 -0.439491
H24   H     H_    0.987175 0.208361 0.918646 0.369685
S8    S     S_3+6 0.622495 0.433511 0.556198 0.068914
O57   O     O_2   0.704126 0.516512 0.567724 -0.299864
O58   O     O_2   0.451676 0.425083 0.516469 -0.299585
O59   O     O_3   0.548263 0.415758 0.617803 -0.465723
H25   H     H_    0.441917 0.453361 0.631119 0.372149
S9    S     S_3+6 0.372224 0.040233 0.442915 0.181481
O60   O     O_2   0.563705 0.047231 0.415521 -0.258728
O61   O     O_2   0.399399 0.997418 0.488707 -0.256373
O62   O     O_3   0.222364 0.984241 0.392987 -0.442009
H26   H     H_    0.090884 0.003562 0.404139 0.353744
S10   S     S_3+6 0.519754 0.156806 0.567580 0.169001
O63   O     O_2   0.475181 0.094959 0.599005 -0.190779
O64   O     O_2   0.679716 0.128989 0.525740 -0.272821
O65   O     O_3   0.595203 0.240958 0.614721 -0.486902
H27   H     H_    0.710672 0.225696 0.633424 0.386953
O66   O     O_3   0.215882 0.190864 0.155955 -0.594839
H28   H     H_    0.148625 0.183535 0.118763 0.292117

loop_
_geom_bond_atom_site_label_1
_geom_bond_atom_site_label_2
_ccdc_geom_bond_type
C56   S6    S    
C54   C55   A    
C21   H2    S    
S9    O60   D    
C21   C26   A    
C20   O14   S    
C7    N1    A    
S6    O52   S    
C1    O6    A    
C55   C62   S    
C57   C58   A    
C33   C37   A    
C8    O12   S    
O65   H27   S    
O34   H14   S    
O53   H23   S    
C13   C14   A    
C35   C38   A    
C8    C9    A    
C15   C16   A    
C47   S3    S    
S6    O51   D    
S3    O39   D    
C53   C58   A    
C24   O66   S    
O5    C3    A    
C17   C18   A    
S7    O55   D    
S10   O63   D    
C60   C61   S    
V2    O10   S    
O23   V3    S    
O32   H12   S    
S5    O48   D    
C42   C46   A    
C33   O15   S    
C28   H4    S    
O33   H13   S    
N4    C52   S    
O21   C64   A    
O8    V2    S    
C36   C41   A    
C51   O43   S    
C1    C49   S    
O59   H25   S    
O41   H17   S    
C28   C29   A    
C9    C12   A    
O20   C61   A    
O19   C62   A    
C10   C11   A    
C45   N4    A    
O1    V2    S    
C19   O13   S    
N3    C58   S    
C25   S1    S    
C46   O18   S    
S3    O41   S    
C55   C56   A    
C21   C22   A    
C41   C42   A    
C34   C35   A    
S9    O61   D    
O1    C2    A    
O9    C4    A    
S7    O56   S    
O27   V4    S    
C4    C5    S    
C22   C23   A    
C5    O29   S    
C30   C31   A    
C49   C50   A    
O4    C2    A    
C23   C64   S    
C31   C32   A    
S7    O54   D    
C38   C39   A    
C42   C43   A    
S8    O59   S    
S6    O50   D    
S1    O30   D    
O19   V4    S    
S5    O49   S    
C48   C49   A    
C47   C48   A    
C43   C44   A    
C27   O33   S    
C44   S2    S    
C12   C13   A    
C61   O24   A    
C16   C20   A    
C29   C30   A    
C37   C44   A    
S1    O31   D    
C35   C36   A    
S8    O58   D    
C40   C45   A    
O2    C1    A    
C6    C63   S    
C16   C17   A    
O66   H28   S    
O52   H22   S    
C12   S8    S    
C59   C60   D    
C5    C6    D    
C60   S7    S    
C10   C15   A    
C51   C52   A    
C57   O53   S    
C34   O16   S    
O3    C4    A    
S4    O45   D    
S2    O38   S    
C47   C52   A    
C27   C28   A    
O22   C62   A    
C40   C41   A    
S9    O62   S    
C50   C51   A    
O20   V3    S    
O56   H24   S    
N2    C26   S    
C22   H3    S    
O27   C64   A    
O38   H16   S    
O2    V1    S    
O25   V3    S    
C3    C29   S    
C23   C24   A    
S2    O37   D    
O49   H21   S    
O7    V1    S    
C43   H7    S    
C27   C32   A    
O26   V4    S    
C25   C26   A    
O62   H26   S    
O22   V3    S    
O29   H11   S    
C14   C19   A    
C53   C54   A    
C17   S9    S    
O43   H19   S    
S4    O46   S    
O5    V1    S    
C31   H6    S    
O8    C3    A    
C13   H1    S    
O42   H18   S    
C18   S10   S    
O6    V2    S    
O26   C63   A    
O23   C63   A    
O25   V4    S    
C19   N2    A    
S1    O32   S    
O9    V2    S    
C7    C11   A    
N3    C34   A    
C11   C18   A    
N4    C46   A    
O3    V1    S    
V1    O10   S    
O46   H20   S    
S8    O57   D    
V3    O28   S    
C38   O34   S    
C33   N3    A    
S10   O64   D    
C39   O35   S    
C2    C59   S    
C39   C40   A    
C59   H10   S    
N2    C20   A    
C6    O42   S    
N1    C32   S    
O7    V2    S    
C36   C37   A    
O21   V3    S    
S4    O44   D    
C53   S4    S    
C48   H8    S    
C24   C25   A    
O4    V1    S    
N1    C8    A    
C45   O17   S    
C50   H9    S    
C14   C15   A    
O35   H15   S    
C9    C10   A    
O24   V4    S    
C7    O11   S    
C54   S5    S    
C56   C57   A    
V4    O28   S    
S5    O47   D    
C30   H5    S    
S2    O36   D    
S3    O40   D    
S10   O65   S    
