data_mof_unit_6632.cif
_audit_creation_date              2013-03-05T15:58:45-0500
_audit_creation_method            fapswitch 2.2
_symmetry_space_group_name_H-M    P1
_symmetry_Int_Tables_number       1
_space_group_crystal_system       triclinic
_cell_length_a                    6.948166
_cell_length_b                    14.396368
_cell_length_c                    15.955173
_cell_angle_alpha                 90.229446
_cell_angle_beta                  89.917239
_cell_angle_gamma                 89.787464
_cell_volume                      1595.94422688

loop_
_atom_site_label
_atom_site_type_symbol
_atom_site_description
_atom_site_fract_x
_atom_site_fract_y
_atom_site_fract_z
_atom_type_partial_charge
O1    O     O_R   0.494320 0.415010 0.412140 -0.589456
O2    O     O_R   0.824010 0.404260 0.587250 -0.613434
O3    O     O_R   0.994320 0.584990 0.587860 -0.597595
C1    C     C_R   0.654929 0.381458 0.616043 0.928540
O4    O     O_R   0.824040 0.403870 0.412760 -0.588964
O5    O     O_R   0.994350 0.584590 0.412130 -0.514787
C2    C     C_R   0.655647 0.382283 0.383089 1.082545
O6    O     O_R   0.494300 0.415410 0.587870 -0.607537
O7    O     O_3   0.660800 0.559290 0.500000 -0.234200
V1    V     V_3+5 0.935650 0.489000 0.500000 1.257374
O8    O     O_R   0.324060 0.595740 0.412750 -0.597886
C3    C     C_R   0.154476 0.618552 0.384126 1.027214
O9    O     O_R   0.324040 0.596130 0.587240 -0.583642
C4    C     C_R   0.154967 0.618922 0.615552 1.026987
V2    V     V_3+5 0.435660 0.511000 0.500000 1.256892
O10   O     O_3   0.160640 0.440710 0.500000 -0.281219
C5    C     C_3   0.954476 0.728657 0.722481 -0.192814
C6    C     C_3   0.035125 0.712196 0.811055 0.421051
H1    H     H_    0.806309 0.711396 0.701735 0.174282
C7    C     C_3   0.122699 0.809833 0.813238 -0.273913
C8    C     C_3   0.044695 0.827829 0.723810 -0.234956
C9    C     C_3   0.232593 0.786322 0.688156 0.433217
C10   C     C_3   0.312870 0.769912 0.776738 -0.215138
C11   C     C_3   0.222838 0.670708 0.775255 -0.263450
C12   C     C_3   0.144678 0.688737 0.685867 -0.261424
H2    H     H_    0.974309 0.892533 0.701620 0.181720
H3    H     H_    0.461011 0.787234 0.797483 0.171855
H4    H     H_    0.293613 0.605982 0.797226 0.170589
C13   C     C_3   0.337650 0.794021 0.216325 0.250633
H5    H     H_    0.393235 0.861606 0.240461 0.115206
C14   C     C_3   0.345890 0.723837 0.289605 -0.619539
H6    H     H_    0.417543 0.756076 0.344504 0.257243
H7    H     H_    0.438085 0.663186 0.272605 0.232694
H8    H     H_    0.101044 0.689507 0.101807 0.212842
H9    H     H_    0.165020 0.588578 0.210124 0.114800
C15   C     C_3   0.036022 0.715839 0.160896 -0.392823
C16   C     C_3   0.010993 0.848294 0.263455 -0.640876
C17   C     C_3   0.124973 0.810526 0.186484 -0.173551
H10   H     H_    0.861041 0.865544 0.244659 0.210819
H11   H     H_    0.072999 0.916172 0.282670 0.208597
C18   C     C_3   0.141227 0.689219 0.313226 -0.243207
C19   C     C_3   0.059963 0.642421 0.231672 0.327536
C20   C     C_3   0.012385 0.776372 0.337938 0.803598
H12   H     H_    0.881656 0.725255 0.146975 0.255088
C21   C     C_3   0.431186 0.282244 0.704490 -0.335209
H13   H     H_    0.344845 0.344552 0.722399 0.151765
H14   H     H_    0.365761 0.252701 0.646627 0.209856
C22   C     C_3   0.418356 0.209975 0.775600 -0.333042
H15   H     H_    0.349683 0.145679 0.751065 0.211227
H16   H     H_    0.321576 0.236656 0.825816 0.160455
H17   H     H_    0.647255 0.416040 0.786322 0.207024
C23   C     C_3   0.727646 0.351748 0.769049 -0.500158
C24   C     C_3   0.758898 0.221127 0.664846 -0.323403
C25   C     C_3   0.643604 0.310694 0.686850 -0.051254
H18   H     H_    0.912688 0.238812 0.653832 0.125816
H19   H     H_    0.703913 0.191154 0.605313 0.236918
C26   C     C_3   0.621799 0.186863 0.811034 -0.189389
C27   C     C_3   0.719023 0.278919 0.841379 0.390650
C28   C     C_3   0.746111 0.148204 0.736660 0.363336
H20   H     H_    0.895691 0.134409 0.759139 0.020224
H21   H     H_    0.879911 0.372669 0.758739 0.163976
H22   H     H_    0.869831 0.262356 0.859675 0.114009
C29   C     C_3   0.482460 0.340488 0.248333 -0.572917
H23   H     H_    0.344425 0.353691 0.281334 0.184077
H24   H     H_    0.519628 0.408577 0.219846 0.231404
C30   C     C_3   0.454975 0.265850 0.177539 0.991965
C31   C     C_3   0.616235 0.211593 0.344799 0.066980
C32   C     C_3   0.838522 0.310557 0.260283 0.244455
C33   C     C_3   0.645758 0.312791 0.311048 -0.256176
H25   H     H_    0.953347 0.283572 0.302669 0.085412
C34   C     C_3   0.620366 0.191280 0.183745 -0.373745
C35   C     C_3   0.605382 0.140066 0.270429 0.158082
C36   C     C_3   0.821061 0.242211 0.183755 0.025634
H26   H     H_    0.929449 0.186659 0.194508 0.112634
H27   H     H_    0.749245 0.193497 0.380361 0.070447
H28   H     H_    0.733090 0.092878 0.275131 0.066281
O11   O     O_R   0.771990 0.083520 0.910980 -0.627913
O12   O     O_R   0.442180 0.095020 0.086060 -0.522408
O13   O     O_R   0.271950 0.914280 0.086680 -0.579418
C37   C     C_R   0.610911 0.119620 0.113269 1.107510
O14   O     O_R   0.442270 0.094630 0.911580 -0.596626
O15   O     O_R   0.272040 0.913890 0.910940 -0.605384
C38   C     C_R   0.611003 0.116731 0.882332 0.951109
O16   O     O_R   0.771900 0.083910 0.086710 -0.610926
O17   O     O_3   0.605520 0.939610 0.998840 -0.229535
V3    V     V_3+5 0.330640 0.009880 0.998810 1.286819
O18   O     O_R   0.942330 0.902710 0.911540 -0.589187
C39   C     C_R   0.111574 0.879865 0.883323 1.002343
O19   O     O_R   0.942240 0.903100 0.086030 -0.551868
C40   C     C_R   0.112004 0.880289 0.114775 0.996990
V4    V     V_3+5 0.830640 0.987830 0.998780 1.271074
O20   O     O_3   0.105630 0.058150 0.998800 -0.250201
N1    N     N_R   0.924953 0.667915 0.877544 0.236305
O21   O     O_R   0.856372 0.584938 0.865959 -0.387335
O22   O     O_R   0.896787 0.709849 0.948841 -0.385321
N2    N     N_R   0.087125 0.820928 0.414735 0.236530
O23   O     O_R   0.001500 0.807298 0.486292 -0.328027
O24   O     O_R   0.232283 0.877850 0.412300 -0.372285
O25   O     O_3   0.822392 0.747298 0.355353 -0.692431
H29   H     H_    0.751813 0.738544 0.302097 0.339726
O26   O     O_3   0.884192 0.597592 0.247185 -0.713057
H30   H     H_    0.843517 0.568480 0.193579 0.379292
O27   O     O_3   0.628254 0.315542 0.913296 -0.647006
H31   H     H_    0.501781 0.341541 0.896566 0.341073
O28   O     O_3   0.667638 0.065286 0.704931 -0.671766
H32   H     H_    0.710798 0.014313 0.742249 0.304918
O29   O     O_3   0.461915 0.308941 0.098756 -0.674805
H33   H     H_    0.350117 0.351990 0.095332 0.348847
O30   O     O_3   0.273920 0.222724 0.183348 -0.729927
H34   H     H_    0.239358 0.214118 0.242688 0.349536
N3    N     N_R   0.456090 0.202971 0.404812 0.272663
O31   O     O_R   0.284839 0.234633 0.388618 -0.412176
O32   O     O_R   0.485699 0.162326 0.476317 -0.375125
O33   O     O_3   0.439747 0.084287 0.274780 -0.701675
H35   H     H_    0.462036 0.038050 0.319792 0.366790
O34   O     O_3   0.890937 0.400592 0.236030 -0.681233
H36   H     H_    0.030204 0.398636 0.222083 0.325859
N4    N     N_R   0.869117 0.285457 0.102523 0.293527
O35   O     O_R   0.805337 0.367419 0.082102 -0.254565
O36   O     O_R   0.993871 0.245410 0.053277 -0.337870
N5    N     N_R   0.345120 0.830490 0.622372 0.254893
O37   O     O_R   0.396461 0.916765 0.630818 -0.315449
O38   O     O_R   0.407863 0.782662 0.558632 -0.327077
N6    N     N_R   0.464056 0.763210 0.147857 0.234541
O39   O     O_R   0.451041 0.680320 0.115526 -0.395647
O40   O     O_R   0.601882 0.817203 0.123371 -0.392347

loop_
_geom_bond_atom_site_label_1
_geom_bond_atom_site_label_2
_geom_bond_distance
_ccdc_geom_bond_type
C27   H22   1.113391 S    
O18   C39   1.299263 A    
C29   H24   1.113208 S    
O26   H30   0.992856 S    
O18   V4    2.004374 S    
C36   H26   1.110496 S    
C15   C19   1.558461 S    
N3    O31   1.299289 A    
C30   O29   1.404809 S    
C1    O6    1.298365 A    
O33   H35   0.993084 S    
C24   C28   1.559786 S    
C22   C26   1.558460 S    
C21   H13   1.113387 S    
C16   C17   1.555521 S    
C6    C11   1.540596 S    
N6    O40   1.296444 A    
C20   O25   1.413876 S    
C16   H11   1.111593 S    
C23   H21   1.113247 S    
O5    C3    1.296491 A    
O12   C37   1.300639 A    
C21   C22   1.545160 S    
O11   C38   1.299215 A    
V2    O10   2.165596 S    
C13   N6    1.466968 S    
C35   O33   1.407552 S    
O34   H36   0.992862 S    
C31   C35   1.570054 S    
C18   C19   1.569652 S    
C21   H14   1.113261 S    
H9    C19   1.115711 S    
N4    O35   1.301713 A    
O13   C40   1.296073 A    
O8    V2    2.009270 S    
C29   C33   1.565477 S    
C32   C33   1.564379 S    
C9    C12   1.534318 S    
N2    O24   1.302515 A    
C13   C17   1.570707 S    
O29   H33   0.993631 S    
C14   H7    1.113458 S    
O1    V2    2.004881 S    
O16   V4    2.006659 S    
C10   H3    1.110611 S    
O19   V4    2.009180 S    
O7    V1    2.157920 S    
C6    C7    1.534028 S    
O14   V3    2.011155 S    
C37   O16   1.299111 A    
O12   V3    2.009326 S    
C22   H16   1.111626 S    
C29   C30   1.568222 S    
C28   H20   1.117298 S    
N1    O22   1.299913 A    
C8    C9    1.540933 S    
C18   C20   1.586757 S    
C34   C37   1.524620 S    
O14   C38   1.302255 A    
C8    H2    1.109948 S    
C23   C25   1.552063 S    
C20   N2    1.476662 S    
C24   H18   1.113266 S    
O17   V4    1.713649 S    
H17   C23   1.112789 S    
C11   C12   1.549357 S    
V4    O20   2.165616 S    
C34   C36   1.577886 S    
C32   C36   1.570151 S    
O17   V3    2.157972 S    
C5    C8    1.561475 S    
C31   C33   1.569332 S    
C16   C20   1.579317 S    
C30   O30   1.408027 S    
O2    C1    1.304401 A    
C30   C34   1.573176 S    
C2    C33   1.522596 S    
C13   H5    1.115502 S    
O25   H29   0.989544 S    
C7    C10   1.550755 S    
C10   C11   1.561407 S    
N2    O23   1.302553 A    
C26   C38   1.525966 S    
C5    C6    1.539909 S    
C35   H28   1.118310 S    
N3    O32   1.300548 A    
N1    O21   1.300352 A    
C28   O28   1.406880 S    
N5    O37   1.300072 A    
O3    C4    1.297494 A    
C23   C27   1.563530 S    
C32   O34   1.403423 S    
C31   N3    1.472845 S    
C22   H15   1.112934 S    
C21   C25   1.558688 S    
O6    V2    2.009548 S    
O9    V2    2.004276 S    
C15   H12   1.103608 S    
C31   H27   1.115706 S    
O2    V1    2.011314 S    
C19   O26   1.405551 S    
C9    N5    1.457384 S    
O4    C2    1.301060 A    
C24   H19   1.110576 S    
C6    N1    1.457547 S    
O11   V4    2.009771 S    
C36   N4    1.478402 S    
C14   C18   1.554926 S    
C1    C25   1.526402 S    
O1    C2    1.298513 A    
C14   H6    1.109152 S    
C11   H4    1.110279 S    
O5    V1    2.010883 S    
O8    C3    1.305639 A    
C24   C25   1.554206 S    
C3    C18   1.527068 S    
O28   H32   0.992643 S    
C17   C40   1.527966 S    
C5    C12   1.551621 S    
C15   C17   1.552208 S    
O7    V2    1.714187 S    
O4    V1    2.009318 S    
C13   C14   1.549324 S    
O3    V1    2.007802 S    
V3    O20   1.708532 S    
O30   H34   0.984830 S    
O15   V3    2.007813 S    
C26   C27   1.565106 S    
O15   C39   1.296510 A    
C7    C39   1.504333 S    
C5    H1    1.110578 S    
H8    C15   1.109631 S    
C4    C12   1.504705 S    
N4    O36   1.300699 A    
N5    O38   1.299718 A    
C26   C28   1.565937 S    
C29   H23   1.108875 S    
C34   C35   1.573408 S    
C7    C8    1.549481 S    
C16   H10   1.112086 S    
O27   H31   0.991256 S    
C32   H25   1.116311 S    
C9    C10   1.538963 S    
V1    O10   1.708522 S    
C27   O27   1.408180 S    
O19   C40   1.307450 A    
O9    C4    1.298526 A    
O13   V3    2.010966 S    
N6    O39   1.301644 A    
