data_mof_unit_53667.cif
_audit_creation_date              2012-10-26T20:17:36-0400
_audit_creation_method            fapswitch 2.2
_symmetry_space_group_name_H-M    P1
_symmetry_Int_Tables_number       1
_space_group_crystal_system       triclinic
_cell_length_a                    27.777791
_cell_length_b                    8.672225
_cell_length_c                    7.433058
_cell_angle_alpha                 102.970761
_cell_angle_beta                  93.962432
_cell_angle_gamma                 92.405719
_cell_volume                      1737.68399932

loop_
_atom_site_label
_atom_site_type_symbol
_atom_type_description
_atom_site_fract_x
_atom_site_fract_y
_atom_site_fract_z
_atom_type_partial_charge
C1    C     C_R   0.498542 0.199658 0.453207 0.554696
C2    C     C_R   0.869211 0.357783 0.440930 0.024975
C3    C     C_R   0.354640 0.498867 0.509238 0.006802
C4    C     C_R   0.645359 0.501098 0.490744 0.006877
C5    C     C_R   0.971500 0.353639 0.455140 0.018553
C6    C     C_R   0.028490 0.646254 0.545007 0.018543
C7    C     C_R   0.977188 0.646987 0.536064 0.019104
C8    C     C_R   0.022801 0.352905 0.464002 0.019100
C9    C     C_R   0.949042 0.500671 0.491718 0.034843
C10   C     C_R   0.050949 0.499222 0.508388 0.034840
C11   C     C_R   0.941529 0.211820 0.410274 -0.146722
C12   C     C_R   0.501457 0.800342 0.546793 0.554696
C13   C     C_R   0.058462 0.788069 0.589998 -0.146743
C14   C     C_R   0.891537 0.214265 0.403685 -0.112210
C15   C     C_R   0.108454 0.785622 0.596604 -0.112222
C16   C     C_R   0.407493 0.499650 0.502836 0.552872
C17   C     C_R   0.592507 0.500346 0.497162 0.552908
C18   C     C_R   0.047253 0.210299 0.430196 -0.146180
C19   C     C_R   0.952735 0.789592 0.569730 -0.146155
C20   C     C_2   0.497842 0.031741 0.426806 -0.147618
C21   C     C_2   0.502157 0.968258 0.573193 -0.147615
C22   C     C_R   0.175821 0.356216 0.484096 0.399441
C23   C     C_R   0.102253 0.498506 0.515861 -0.026693
C24   C     C_R   0.824168 0.643681 0.515862 0.399514
C25   C     C_R   0.181298 0.638790 0.562916 0.401993
C26   C     C_R   0.818695 0.361102 0.437252 0.402005
C27   C     C_R   0.283676 0.519940 0.684784 -0.052014
C28   C     C_R   0.725508 0.523573 0.649926 -0.052856
C29   C     C_R   0.333787 0.520741 0.679664 -0.140115
C30   C     C_R   0.675485 0.522375 0.655449 -0.135523
C31   C     C_R   0.324484 0.475746 0.344344 -0.135643
C32   C     C_R   0.666244 0.481019 0.320510 -0.139931
C33   C     C_R   0.274462 0.474509 0.349882 -0.052875
C34   C     C_R   0.897737 0.501387 0.484232 -0.026699
C35   C     C_R   0.716355 0.481786 0.315448 -0.051889
C36   C     C_R   0.253993 0.496728 0.519887 0.246865
C37   C     C_R   0.746004 0.503155 0.480160 0.247037
C38   C     C_R   0.125199 0.354202 0.479252 0.024042
C39   C     C_R   0.874790 0.645694 0.520726 0.024029
C40   C     C_R   0.097317 0.211352 0.437528 -0.116738
C41   C     C_R   0.902672 0.788543 0.562361 -0.116717
C42   C     C_R   0.130781 0.642106 0.559258 0.024995
Cu1   Cu    Cu3+1 0.505380 0.517380 0.684380 0.964934
Cu2   Cu    Cu3+1 0.494620 0.482620 0.315620 0.964946
H1    H     H_    0.339461 0.458477 0.211025 0.131249
H2    H     H_    0.356111 0.538779 0.808842 0.131731
H3    H     H_    0.748421 0.539732 0.777457 0.126681
H4    H     H_    0.267879 0.537204 0.816560 0.124862
H5    H     H_    0.870383 0.102235 0.369281 0.173567
H6    H     H_    0.129608 0.897651 0.631094 0.173586
H7    H     H_    0.955240 0.095532 0.378766 0.106555
H8    H     H_    0.044750 0.904357 0.621617 0.106605
H9    H     H_    0.029020 0.094435 0.397085 0.104193
H10   H     H_    0.970968 0.905453 0.602719 0.104150
H11   H     H_    0.493777 0.960047 0.285776 0.135897
H12   H     H_    0.643944 0.464479 0.191455 0.131445
H13   H     H_    0.506223 0.039953 0.714224 0.135908
H14   H     H_    0.462192 0.378195 0.948561 0.239748
H15   H     H_    0.537808 0.621804 0.051439 0.239718
H16   H     H_    0.251528 0.456935 0.222182 0.127028
H17   H     H_    0.732177 0.465917 0.183870 0.124461
H18   H     H_    0.114106 0.098787 0.409468 0.164760
H19   H     H_    0.885881 0.901107 0.590316 0.164708
H20   H     H_    0.660484 0.538169 0.788593 0.131131
N1    N     N_R   0.202602 0.497210 0.524397 -0.402765
N2    N     N_R   0.797392 0.502685 0.475648 -0.402815
N3    N     N_2   0.486510 0.456430 0.038510 -0.258533
N4    N     N_2   0.513490 0.543570 0.961490 -0.258545
O1    O     O_R   0.503500 0.286120 0.619780 -0.504741
O2    O     O_2   0.801834 0.781282 0.551519 -0.471647
O3    O     O_2   0.791059 0.224128 0.397481 -0.468498
O4    O     O_2   0.208930 0.775770 0.602730 -0.468662
O5    O     O_R   0.496500 0.713880 0.380220 -0.504745
O6    O     O_R   0.494410 0.256780 0.308360 -0.495071
O7    O     O_R   0.505590 0.743220 0.691640 -0.495068
O8    O     O_R   0.434810 0.514700 0.655690 -0.507843
O9    O     O_R   0.565190 0.485300 0.344310 -0.507804
O10   O     O_R   0.425720 0.485350 0.344280 -0.502437
O11   O     O_R   0.574280 0.514650 0.655720 -0.502450
O12   O     O_2   0.198152 0.218611 0.448386 -0.471809

loop_
_geom_bond_atom_site_label_1
_geom_bond_atom_site_label_2
_ccdc_geom_bond_type
C27   H4    S    
C28   H3    S    
C30   H20   S    
C27   C29   A    
C24   C39   A    
C24   O2    S    
C39   C41   A    
C21   H13   S    
C23   C42   A    
C1    O6    A    
Cu2   O9    S    
C35   C37   A    
C5    C11   A    
C11   C14   A    
C14   H5    S    
Cu1   O11   S    
C22   C38   A    
C17   O11   A    
C33   C36   A    
C40   H18   S    
C15   H6    S    
C3    C29   A    
C18   C40   A    
C18   H9    S    
Cu1   N4    S    
C31   C33   A    
C24   N2    A    
C2    C34   A    
Cu1   O1    S    
C12   O5    A    
C26   O3    S    
C20   H11   S    
Cu1   O7    S    
N3    N4    D    
C26   N2    A    
C32   C35   A    
C25   N1    A    
C35   H17   S    
C36   N1    S    
C12   C21   S    
C8    C18   A    
C34   C39   A    
Cu2   O6    S    
Cu1   Cu2   S    
C22   N1    A    
C5    C9    A    
H15   N4    S    
C13   H8    S    
C37   N2    S    
C17   O9    A    
C2    C26   A    
C25   O4    S    
C3    C31   A    
C4    C32   A    
C4    C17   S    
C19   H10   S    
C33   H16   S    
C7    C19   A    
C13   C15   A    
C9    C34   A    
C10   C23   A    
C41   H19   S    
Cu1   O8    S    
C7    C9    A    
C1    C20   S    
C16   O8    A    
C15   C42   A    
C25   C42   A    
C6    C10   A    
C5    C8    A    
C6    C7    A    
C27   C36   A    
C23   C38   A    
C29   H2    S    
C28   C30   A    
C22   O12   S    
C6    C13   A    
C38   C40   A    
C28   C37   A    
Cu2   O10   S    
C16   O10   A    
Cu2   O5    S    
C2    C14   A    
C1    O1    A    
C11   H7    S    
H14   N3    S    
C20   C21   D    
C8    C10   A    
C31   H1    S    
C12   O7    A    
Cu2   N3    S    
C32   H12   S    
C4    C30   A    
C3    C16   S    
C19   C41   A    
