data_mof_unit_61677.cif
_audit_creation_date              2013-03-05T15:45:01-0500
_audit_creation_method            fapswitch 2.2
_symmetry_space_group_name_H-M    P1
_symmetry_Int_Tables_number       1
_space_group_crystal_system       triclinic
_cell_length_a                    21.742655
_cell_length_b                    21.765505
_cell_length_c                    22.131443
_cell_angle_alpha                 60.93403
_cell_angle_beta                  119.073019
_cell_angle_gamma                 89.462034
_cell_volume                      7576.74640615

loop_
_atom_site_label
_atom_site_type_symbol
_atom_site_description
_atom_site_fract_x
_atom_site_fract_y
_atom_site_fract_z
_atom_type_partial_charge
O1    O     O_R   0.590210 0.447820 0.500000 -0.582923
O2    O     O_R   0.590150 0.552170 0.500020 -0.587912
C1    C     C_R   0.619893 0.498601 0.502436 0.756776
O3    O     O_R   0.439580 0.508290 0.379070 -0.529634
O4    O     O_R   0.439510 0.612640 0.379090 -0.578632
C2    C     C_R   0.421227 0.579967 0.340006 0.860221
Cu1   Cu    Cu3+1 0.500040 0.438210 0.499990 1.054687
Cu2   Cu    Cu3+1 0.499960 0.561790 0.500010 1.013376
O5    O     O_R   0.409850 0.447830 0.499980 -0.575251
O6    O     O_R   0.409790 0.552180 0.500000 -0.579212
O7    O     O_R   0.560490 0.387360 0.620910 -0.571083
O8    O     O_R   0.560420 0.491710 0.620930 -0.586686
C3    C     C_R   0.378344 0.503025 0.494450 0.840233
C4    C     C_R   0.580189 0.419954 0.660167 0.795180
C5    C     C_3   0.284381 0.730652 0.972431 0.241388
C6    C     C_3   0.316971 0.761066 0.028131 -0.354446
H1    H     H_    0.370893 0.772062 0.049693 0.207028
C7    C     C_1   0.376778 0.624567 0.250633 -0.034941
C8    C     C_1   0.124511 0.874957 0.749380 -0.087776
C9    C     C_3   0.261285 0.677092 0.028463 0.209281
C10   C     C_3   0.292503 0.707072 0.084162 -0.159281
C11   C     C_3   0.184904 0.736305 0.972852 0.138355
C12   C     C_3   0.207567 0.790144 0.915877 -0.122419
C13   C     C_3   0.215675 0.766431 0.028022 0.220750
C14   C     C_3   0.238974 0.819645 0.972025 0.322061
C15   C     C_1   0.338904 0.661903 0.175510 0.186807
C16   C     C_1   0.161948 0.836836 0.824504 0.203604
H2    H     H_    0.646505 0.485013 0.403782 0.165451
C17   C     C_R   0.749383 0.504577 0.629830 -0.163617
H3    H     H_    0.705094 0.494902 0.639131 0.144357
C18   C     C_R   0.807582 0.516363 0.684174 -0.125381
H4    H     H_    0.806529 0.516995 0.732275 0.150650
C19   C     C_R   0.866686 0.528003 0.676191 -0.116453
H5    H     H_    0.911164 0.538562 0.717461 0.164653
C20   C     C_R   0.869069 0.525516 0.615592 -0.155694
H6    H     H_    0.915582 0.535939 0.611328 0.204774
C21   C     C_R   0.811969 0.511138 0.561436 0.086815
C22   C     C_R   0.749439 0.504264 0.566044 0.098745
C23   C     C_R   0.689132 0.496299 0.507427 -0.086725
C24   C     C_R   0.692719 0.491074 0.448717 -0.183284
H7    H     H_    0.756801 0.489784 0.400693 0.167840
C25   C     C_R   0.754940 0.495134 0.446025 -0.185371
C26   C     C_R   0.814770 0.504648 0.501898 -0.097128
C27   C     C_3   0.722468 0.196713 0.026514 0.261981
C28   C     C_3   0.681649 0.280028 0.971893 0.319950
C29   C     C_1   0.625408 0.375184 0.749813 -0.145991
C30   C     C_1   0.875229 0.125124 0.250184 -0.111951
C31   C     C_3   0.750310 0.206665 0.971071 -0.233003
C32   C     C_3   0.709513 0.291242 0.916701 0.044408
C33   C     C_3   0.820865 0.218168 0.028165 -0.240756
C34   C     C_3   0.791972 0.207373 0.083264 -0.001011
C35   C     C_3   0.779567 0.303436 0.972223 -0.246858
C36   C     C_3   0.750944 0.291140 0.027590 0.340579
C37   C     C_1   0.663404 0.337395 0.825116 0.060931
C38   C     C_1   0.837723 0.162313 0.174893 0.095312
H8    H     H_    0.802797 0.348102 0.949651 0.170096
H9    H     H_    0.878701 0.192230 0.051914 0.180829
H10   H     H_    0.749587 0.171539 0.947610 0.186725
H11   H     H_    0.333389 0.557006 0.557080 0.167191
C39   C     C_R   0.251856 0.468604 0.386755 0.349799
C40   C     C_R   0.209968 0.425872 0.364378 -0.258100
H12   H     H_    0.207892 0.416330 0.319848 0.212952
C41   C     C_R   0.169015 0.396445 0.397455 -0.165515
H13   H     H_    0.139829 0.360677 0.382554 0.183836
C42   C     C_R   0.164677 0.413309 0.448749 0.434841
C43   C     C_R   0.201330 0.462082 0.466044 -0.063072
C44   C     C_R   0.254432 0.479463 0.446307 -0.048507
C45   C     C_R   0.306964 0.507727 0.486350 -0.049895
C46   C     C_R   0.294939 0.533872 0.527660 -0.160216
H14   H     H_    0.223098 0.554179 0.560448 0.148456
C47   C     C_R   0.233561 0.530141 0.532084 -0.186738
C48   C     C_R   0.186608 0.494700 0.501504 -0.069890
O9    O     O_R   0.052170 0.909710 0.500000 -0.568727
O10   O     O_R   0.947780 0.909820 0.499990 -0.538226
C49   C     C_R   0.998322 0.883170 0.496205 0.982105
O11   O     O_R   0.112650 0.939420 0.620930 -0.569403
O12   O     O_R   0.008260 0.939530 0.620910 -0.567570
C50   C     C_R   0.079971 0.919950 0.660036 0.797836
Cu3   Cu    Cu3+1 0.061810 0.999860 0.500010 1.029349
Cu4   Cu    Cu3+1 0.938190 0.999990 0.499990 1.063089
O13   O     O_R   0.052220 0.090030 0.500010 -0.583162
O14   O     O_R   0.947830 0.090140 0.500000 -0.589213
O15   O     O_R   0.991740 0.060320 0.379090 -0.574495
O16   O     O_R   0.887350 0.060430 0.379070 -0.565857
C51   C     C_R   0.001131 0.117111 0.502795 0.788774
C52   C     C_R   0.919932 0.080554 0.339820 0.852389
O17   O     O_R   0.964960 0.625150 0.430050 -0.598341
O18   O     O_R   0.034940 0.555150 0.570020 -0.539887
C53   C     C_R   0.002148 0.618855 0.500219 0.852662
O19   O     O_R   0.874830 0.535020 0.430000 -0.580462
O20   O     O_R   0.944810 0.465010 0.569970 -0.602886
C54   C     C_R   0.881070 0.502532 0.500272 0.766672
Cu5   Cu    Cu3+1 0.958570 0.541460 0.417120 1.043017
Cu6   Cu    Cu3+1 0.041430 0.458560 0.582880 1.007572
O21   O     O_R   0.965060 0.444870 0.429980 -0.514617
O22   O     O_R   0.035040 0.374860 0.569950 -0.603298
O23   O     O_R   0.055190 0.535000 0.430030 -0.559180
O24   O     O_R   0.125170 0.465000 0.570000 -0.591004
C55   C     C_R   0.996621 0.381039 0.499823 0.879054
C56   C     C_R   0.119136 0.498976 0.500282 0.799869
C57   C     C_R   0.002025 0.876972 0.366055 0.454589
C58   C     C_R   0.021444 0.866716 0.318716 -0.198356
H15   H     H_    0.020868 0.913401 0.267913 0.142231
C59   C     C_R   0.041391 0.796620 0.335955 -0.154193
H16   H     H_    0.057581 0.789206 0.300149 0.176214
C60   C     C_R   0.038169 0.736391 0.397174 -0.125632
H17   H     H_    0.053921 0.682960 0.408003 0.148434
C61   C     C_R   0.016384 0.744968 0.444036 -0.047374
C62   C     C_R   0.005042 0.814335 0.434076 -0.012299
C63   C     C_R   0.996828 0.818164 0.492314 -0.182063
C64   C     C_R   0.993876 0.756482 0.553948 0.283515
C65   C     C_R   0.993229 0.691750 0.554324 0.318544
C66   C     C_R   0.005744 0.685712 0.500591 -0.159601
H18   H     H_    0.003294 0.242298 0.396701 0.147767
C67   C     C_R   0.000395 0.119895 0.633069 -0.246569
H19   H     H_    0.010804 0.066675 0.641612 0.132040
C68   C     C_R   0.991088 0.123590 0.689868 0.480644
C69   C     C_R   0.977578 0.191542 0.680011 -0.100841
H20   H     H_    0.968212 0.195507 0.721977 0.167172
C70   C     C_R   0.976288 0.254681 0.616701 -0.242967
H21   H     H_    0.963216 0.306095 0.610809 0.169766
C71   C     C_R   0.989325 0.251316 0.561475 0.009643
C72   C     C_R   0.997013 0.183884 0.566887 0.055960
C73   C     C_R   0.001724 0.181984 0.506346 -0.096745
C74   C     C_R   0.001127 0.244707 0.443470 -0.302484
C75   C     C_R   0.996243 0.310897 0.438947 0.462418
C76   C     C_R   0.992883 0.313790 0.499655 -0.131809
O25   O     O_3   0.608835 0.312692 0.942050 -0.675366
H22   H     H_    0.608664 0.294977 0.992534 0.354785
N1    N     N_R   0.689361 0.139900 0.053602 0.142731
O26   O     O_R   0.630020 0.137588 0.998335 -0.296599
O27   O     O_R   0.718776 0.091241 0.132642 -0.329216
O28   O     O_3   0.750947 0.334540 0.057819 -0.694928
H23   H     H_    0.720555 0.385697 0.007533 0.344521
N2    N     N_R   0.323526 0.708491 0.944686 0.176745
O29   O     O_R   0.388263 0.657370 0.999479 -0.288934
O30   O     O_R   0.294260 0.739316 0.865533 -0.318758
N3    N     N_R   0.280385 0.510287 0.338552 0.122445
O31   O     O_R   0.299289 0.484936 0.305392 -0.307052
O32   O     O_R   0.270789 0.579945 0.311691 -0.354436
O33   O     O_3   0.129595 0.376370 0.486097 -0.704971
H24   H     H_    0.157219 0.365124 0.543320 0.314576
O34   O     O_3   0.993318 0.760626 0.614144 -0.704203
H25   H     H_    0.016352 0.710151 0.666036 0.354294
O35   O     O_3   0.976061 0.947799 0.343349 -0.748121
H26   H     H_    0.976642 0.984361 0.294365 0.318423
O36   O     O_3   0.226084 0.894889 0.941889 -0.659430
H27   H     H_    0.253656 0.896169 0.992218 0.349283
O37   O     O_3   0.979300 0.634114 0.605501 -0.742375
H28   H     H_    0.947703 0.654277 0.616421 0.332867
O38   O     O_3   0.993869 0.062106 0.754744 -0.680211
H29   H     H_    0.004070 0.018382 0.753473 0.344061
O39   O     O_3   0.995158 0.373198 0.375966 -0.666382
H30   H     H_    0.998313 0.361455 0.339304 0.322081
N4    N     N_R   0.175962 0.788487 0.055324 0.171069
O40   O     O_R   0.111649 0.840274 0.000230 -0.268075
O41   O     O_R   0.204129 0.756548 0.134420 -0.295507
N5    N     N_R   0.114638 0.720839 0.946353 0.189354
O42   O     O_R   0.103526 0.673829 0.001978 -0.249773
O43   O     O_R   0.062901 0.753587 0.867422 -0.307988
N6    N     N_R   0.272136 0.599592 0.056239 0.189649
O44   O     O_R   0.242368 0.582886 0.001470 -0.266354
O45   O     O_R   0.311028 0.546910 0.135430 -0.277832

loop_
_geom_bond_atom_site_label_1
_geom_bond_atom_site_label_2
_geom_bond_distance
_ccdc_geom_bond_type
C27   C31   1.544399 S    
C10   C15   1.462712 S    
C41   C42   1.393054 A    
Cu5   Cu6   2.654004 S    
N4    O41   1.300147 A    
H7    C25   1.083801 S    
C64   C65   1.405160 A    
C7    C15   1.202833 T    
O11   Cu3   1.947134 S    
Cu4   O16   1.947133 S    
O25   H22   0.991199 S    
C59   C60   1.388277 A    
N6    O44   1.300225 A    
N2    O29   1.300203 A    
C4    C29   1.435377 S    
O12   C50   1.295889 A    
C35   C36   1.544678 S    
Cu1   O7    1.946955 S    
C57   O35   1.379479 S    
C57   C58   1.407510 A    
C74   C75   1.394071 A    
C20   C21   1.414718 A    
C21   C22   1.415975 A    
O16   C52   1.297107 A    
C65   O37   1.381396 S    
O4    C2    1.296440 A    
O7    C4    1.297876 A    
O21   C55   1.286477 A    
C5    N2    1.456761 S    
C60   H17   1.081278 S    
Cu6   O24   1.971378 S    
C28   O25   1.398046 S    
C57   C62   1.427380 A    
C32   C37   1.466445 S    
O22   C55   1.288319 A    
C61   C62   1.416246 A    
C51   C73   1.451650 S    
C40   C41   1.388383 A    
C71   C76   1.422695 A    
C46   C47   1.385071 A    
O5    C3    1.299110 A    
C69   H20   1.082994 S    
C59   H16   1.082661 S    
C63   C64   1.405178 A    
O33   H24   0.990604 S    
C43   C48   1.415457 A    
O36   H27   0.991133 S    
C39   C44   1.423808 A    
C45   C46   1.401098 A    
C67   C68   1.404545 A    
C17   C22   1.415583 A    
C33   C35   1.561803 S    
O38   H29   0.991857 S    
C18   C19   1.389271 A    
H14   C47   1.084060 S    
C12   C16   1.463186 S    
C8    C16   1.202895 T    
C13   N4    1.456783 S    
C64   O34   1.384030 S    
Cu6   O22   1.972992 S    
C5    C12   1.544574 S    
C43   C44   1.415891 A    
C1    C23   1.453498 S    
Cu5   O21   1.973508 S    
O10   Cu4   1.971691 S    
N5    O43   1.300141 A    
O9    C49   1.294531 A    
C58   H15   1.082972 S    
O3    Cu1   1.947727 S    
C65   C66   1.403968 A    
N6    O45   1.300134 A    
C70   C71   1.415235 A    
O35   H26   0.991953 S    
O18   Cu6   1.973506 S    
C5    C9    1.536378 S    
C2    C7    1.430954 S    
C53   C66   1.461804 S    
C67   C72   1.414858 A    
O10   C49   1.294524 A    
C44   C45   1.423945 A    
C30   C52   1.435164 S    
C72   C73   1.412275 A    
C36   O28   1.397826 S    
C13   C14   1.536382 S    
Cu4   O14   1.975378 S    
C23   C24   1.396144 A    
Cu3   O13   1.971693 S    
H18   C74   1.084636 S    
C6    H1    1.109974 S    
C55   C76   1.468425 S    
C11   N5    1.456720 S    
C28   C36   1.529555 S    
Cu3   Cu4   2.687589 S    
C39   C40   1.401750 A    
O1    C1    1.295571 A    
C20   H6    1.076748 S    
C61   C66   1.414942 A    
C21   C26   1.420746 A    
C8    C50   1.430524 S    
N1    O27   1.300227 A    
C17   H3    1.080905 S    
O28   H23   0.991199 S    
C42   O33   1.374789 S    
C14   O36   1.397836 S    
O19   C54   1.289085 A    
C18   H4    1.082548 S    
C28   C32   1.533256 S    
Cu2   O8    1.947728 S    
C32   C35   1.551096 S    
C29   C37   1.205713 T    
C33   C34   1.551046 S    
O9    Cu3   1.975374 S    
C68   O38   1.379562 S    
O18   C53   1.283416 A    
C58   C59   1.386563 A    
N3    O32   1.301307 A    
H11   C46   1.083442 S    
C27   C34   1.536272 S    
O3    C2    1.297336 A    
C31   C32   1.550249 S    
C9    C11   1.538184 S    
O24   C56   1.279688 A    
O17   C53   1.286481 A    
N5    O42   1.300243 A    
N2    O30   1.300170 A    
C11   C13   1.536442 S    
C25   C26   1.398113 A    
Cu5   O23   1.971485 S    
O20   C54   1.282250 A    
O23   C56   1.288172 A    
C70   H21   1.079939 S    
O19   Cu5   1.971378 S    
C30   C38   1.205518 T    
C48   C56   1.455339 S    
O12   Cu4   1.947500 S    
C6    C14   1.555010 S    
Cu1   O5    1.970041 S    
C49   C63   1.458384 S    
O1    Cu1   1.973519 S    
C33   H9    1.110098 S    
O2    Cu2   1.970041 S    
C27   C28   1.527920 S    
O11   C50   1.296315 A    
C24   C25   1.384562 A    
O6    C3    1.298857 A    
O4    Cu2   1.946953 S    
C6    C10   1.561654 S    
C31   H10   1.110113 S    
O14   C51   1.292241 A    
C26   C54   1.460221 S    
O2    C1    1.293139 A    
O8    C4    1.298062 A    
C47   C48   1.394937 A    
C17   C18   1.392958 A    
O37   H28   0.990798 S    
O20   Cu6   1.971484 S    
Cu3   O15   1.947499 S    
C67   H19   1.081419 S    
C22   C23   1.414916 A    
C60   C61   1.413749 A    
C75   C76   1.411370 A    
C5    C6    1.553280 S    
O17   Cu5   1.972774 S    
C31   C33   1.563123 S    
C19   C20   1.393661 A    
C19   H5    1.082592 S    
N1    O26   1.300231 A    
C34   C38   1.467144 S    
C12   C14   1.543254 S    
C40   H12   1.082688 S    
C69   C70   1.393808 A    
Cu1   Cu2   2.689983 S    
N3    O31   1.301676 A    
C9    N6    1.457042 S    
C41   H13   1.082982 S    
C75   O39   1.383157 S    
C35   H8    1.110097 S    
O15   C52   1.297457 A    
C9    C10   1.543635 S    
Cu2   O6    1.973521 S    
C42   C43   1.422244 A    
C10   C13   1.544686 S    
C62   C63   1.424020 A    
N4    O40   1.300231 A    
C71   C72   1.414749 A    
H2    C24   1.083904 S    
C11   C12   1.544333 S    
C34   C36   1.535118 S    
O39   H30   0.991784 S    
C68   C69   1.391918 A    
C27   N1    1.456870 S    
O13   C51   1.294093 A    
O34   H25   0.990703 S    
C39   N3    1.434979 S    
C73   C74   1.391607 A    
C3    C45   1.469706 S    
