data_mof_unit_50572.cif
_audit_creation_date              2012-12-10T17:02:32-0500
_audit_creation_method            fapswitch 2.2
_symmetry_space_group_name_H-M    P1
_symmetry_Int_Tables_number       1
_space_group_crystal_system       triclinic
_cell_length_a                    10.850162
_cell_length_b                    11.079116
_cell_length_c                    9.811586
_cell_angle_alpha                 111.18586
_cell_angle_beta                  99.740835
_cell_angle_gamma                 90.896133
_cell_volume                      1080.0921563

loop_
_atom_site_label
_atom_site_type_symbol
_atom_type_description
_atom_site_fract_x
_atom_site_fract_y
_atom_site_fract_z
_atom_type_partial_charge
C1    C     C_R   0.491652 0.253926 0.440045 0.801375
C2    C     C_R   0.508355 0.746074 0.559955 0.801373
C3    C     C_2   0.489662 0.114243 0.404091 -0.068441
C4    C     C_2   0.510359 0.885757 0.595910 -0.068410
C5    C     C_2   0.500083 0.069279 0.514417 -0.112933
C6    C     C_2   0.500055 0.930727 0.485597 -0.112887
C7    C     C_2   0.510812 0.510277 0.082236 -0.004831
C8    C     C_2   0.489188 0.489723 0.917764 -0.004839
C9    C     C_R   0.262570 0.513288 0.501512 0.803650
C10   C     C_R   0.737429 0.486709 0.498487 0.803636
C11   C     C_R   0.161234 0.646427 0.771630 -0.121246
C12   C     C_R   0.838763 0.353560 0.228370 -0.121246
C13   C     C_R   0.126796 0.665794 0.908661 0.057739
C14   C     C_R   0.873204 0.334186 0.091339 0.057759
C15   C     C_R   0.012539 0.608180 0.910284 -0.284924
C16   C     C_R   0.987460 0.391799 0.089713 -0.284929
C17   C     C_R   0.931826 0.536889 0.777326 -0.143594
C18   C     C_R   0.068172 0.463095 0.222671 -0.143603
C19   C     C_R   0.960995 0.525284 0.637626 0.096321
C20   C     C_R   0.039003 0.474705 0.362372 0.096319
C21   C     C_R   0.083786 0.566536 0.635843 0.022835
C22   C     C_R   0.916212 0.433454 0.364156 0.022834
C23   C     C_R   0.873171 0.472846 0.500604 -0.221278
C24   C     C_R   0.126828 0.527146 0.499394 -0.221278
Cu1   Cu    Cu3+1 0.521920 0.521810 0.644910 0.951552
Cu2   Cu    Cu3+1 0.478080 0.478190 0.355090 0.951556
H1    H     H_    0.014345 0.382095 0.985098 0.141426
H2    H     H_    0.985654 0.617880 0.014898 0.141424
H3    H     H_    0.248078 0.695816 0.771712 0.179834
H4    H     H_    0.751919 0.304174 0.228291 0.179837
H5    H     H_    0.850369 0.485965 0.787322 0.165791
H6    H     H_    0.149628 0.514018 0.212671 0.165797
H7    H     H_    0.491431 0.863450 0.371230 0.206096
H8    H     H_    0.508793 0.136562 0.628795 0.206142
H9    H     H_    0.415487 0.417516 0.842669 0.155396
H10   H     H_    0.584514 0.582484 0.157331 0.155381
H11   H     H_    0.624441 0.622235 0.936583 0.193330
H12   H     H_    0.375559 0.377765 0.063417 0.193332
N1    N     N_2   0.445130 0.445420 0.137360 -0.284394
N2    N     N_2   0.554870 0.554580 0.862640 -0.284397
O1    O     O_R   0.511700 0.332340 0.577400 -0.589717
O2    O     O_R   0.488300 0.667660 0.422600 -0.589706
O3    O     O_R   0.474680 0.295500 0.332650 -0.569070
O4    O     O_R   0.525320 0.704500 0.667350 -0.569071
O5    O     O_R   0.338170 0.518410 0.622370 -0.575724
O6    O     O_R   0.661830 0.481590 0.377630 -0.575731
O7    O     O_R   0.301150 0.481570 0.377630 -0.584116
O8    O     O_R   0.698850 0.518430 0.622370 -0.584119
C25   C     C_2   0.211700 0.740475 0.050757 0.323827
H13   H     H_    0.181200 0.757942 0.155621 0.066082
O9    O     O_2   0.317249 0.781639 0.052684 -0.555640
C26   C     C_2   0.788302 0.259496 0.949243 0.323812
H14   H     H_    0.818801 0.242030 0.844379 0.066068
O10   O     O_2   0.682757 0.218322 0.947317 -0.555671
N3    N     N_3   0.521981 0.972418 0.748152 -0.539980
H15   H     H_    0.447142 0.947747 0.790280 0.231676
H16   H     H_    0.605037 0.956517 0.808447 0.258917
N4    N     N_3   0.477911 0.027574 0.251833 -0.539940
H17   H     H_    0.552691 0.052223 0.209598 0.231718
H18   H     H_    0.394807 0.043490 0.191632 0.258879

loop_
_geom_bond_atom_site_label_1
_geom_bond_atom_site_label_2
_ccdc_geom_bond_type
C10   O6    A    
C19   C23   A    
N3    H15   S    
C9    C24   S    
C9    O5    A    
Cu1   O5    S    
C10   C23   S    
C7    H10   S    
C2    C4    S    
C11   C21   A    
C6    H7    S    
C3    C5    D    
C5    H8    S    
C20   C24   A    
C16   H1    S    
N3    H16   S    
Cu1   Cu2   S    
C7    C8    S    
C4    N3    S    
C16   C18   A    
C2    O4    A    
C11   C13   A    
Cu1   O8    S    
C11   H3    S    
C15   H2    S    
C5    C6    S    
Cu2   O7    S    
C2    O2    A    
C13   C25   S    
Cu1   O4    S    
C1    O1    A    
C19   C21   A    
C26   O10   D    
Cu2   O3    S    
C9    O7    A    
H11   N2    S    
C18   C20   A    
C13   C15   A    
Cu1   N2    S    
C10   O8    A    
H12   N1    S    
C17   H5    S    
C14   C16   A    
Cu2   N1    S    
C18   H6    S    
C20   C22   A    
N4    H18   S    
C3    N4    S    
C12   C22   A    
C26   H14   S    
Cu2   O2    S    
C4    C6    D    
C25   H13   S    
C21   C24   A    
Cu1   O1    S    
C15   C17   A    
C7    N1    D    
C22   C23   A    
C17   C19   A    
C8    N2    D    
C12   H4    S    
N4    H17   S    
Cu2   O6    S    
C1    O3    A    
C14   C26   S    
C25   O9    D    
C12   C14   A    
C1    C3    S    
C8    H9    S    
