data_mof_unit_66619.cif
_audit_creation_date              2012-12-11T18:17:41-0500
_audit_creation_method            fapswitch 2.2
_symmetry_space_group_name_H-M    P1
_symmetry_Int_Tables_number       1
_space_group_crystal_system       triclinic
_cell_length_a                    8.399055
_cell_length_b                    14.416741
_cell_length_c                    15.1486
_cell_angle_alpha                 96.017176
_cell_angle_beta                  97.611265
_cell_angle_gamma                 92.118252
_cell_volume                      1805.71338625

loop_
_atom_site_label
_atom_site_type_symbol
_atom_type_description
_atom_site_fract_x
_atom_site_fract_y
_atom_site_fract_z
_atom_type_partial_charge
Ba1   Ba    Ba6+2 0.833410 0.543320 0.453520 1.615987
Ba2   Ba    Ba6+2 0.356410 0.456750 0.546480 1.599771
C1    C     C_3   0.429260 0.835078 0.129146 -0.364641
C2    C     C_R   0.107476 0.478567 0.205862 0.104431
C3    C     C_R   0.924714 0.485753 0.768028 -0.251822
C4    C     C_3   0.012089 0.815953 0.203350 0.372563
C5    C     C_R   0.828674 0.461546 0.830646 0.019220
C6    C     C_R   0.883815 0.477793 0.922619 -0.150785
C7    C     C_R   0.044541 0.509946 0.953882 0.009312
C8    C     C_R   0.134081 0.544972 0.888987 -0.046040
C9    C     C_R   0.118299 0.509700 0.046785 -0.005953
C10   C     C_R   0.275255 0.554718 0.073820 -0.026124
C11   C     C_R   0.358754 0.588816 0.006626 0.102694
C12   C     C_3   0.487508 0.782042 0.208615 0.493759
C13   C     C_R   0.285047 0.587219 0.918627 -0.077508
C14   C     C_R   0.051108 0.458452 0.111842 0.010371
C15   C     C_R   0.246800 0.536334 0.230787 -0.289404
C16   C     C_3   0.910639 0.861066 0.128282 -0.175158
C17   C     C_R   0.073218 0.532689 0.794989 0.070075
C18   C     C_R   0.707416 0.935539 0.546980 -0.040811
C19   C     C_R   0.515149 0.798066 0.494406 0.058254
C20   C     C_R   0.365980 0.764428 0.445875 -0.259703
C21   C     C_R   0.256978 0.825574 0.408061 -0.012850
C22   C     C_R   0.300185 0.920235 0.414147 -0.121678
C23   C     C_3   0.419801 0.266661 0.279830 0.339026
C24   C     C_R   0.451186 0.955543 0.457675 0.027926
C25   C     C_R   0.559668 0.895505 0.500127 -0.036064
C26   C     C_R   0.637014 0.090957 0.508659 -0.040084
C27   C     C_R   0.747993 0.031559 0.549690 -0.003458
C28   C     C_3   0.210327 0.741715 0.639310 0.348133
C29   C     C_R   0.676240 0.188377 0.515928 0.035929
C30   C     C_R   0.817473 0.224994 0.569228 -0.252227
C31   C     C_R   0.935501 0.165766 0.599508 0.017746
C32   C     C_R   0.899857 0.069190 0.591477 -0.130008
C33   C     C_R   0.490840 0.051346 0.461842 -0.050267
C34   C     C_3   0.404301 0.220086 0.182815 -0.198569
C35   C     C_3   0.204102 0.848038 0.653282 -0.105370
C36   C     C_3   0.929830 0.240973 0.316609 0.294266
C37   C     C_3   0.927578 0.134805 0.276567 0.139988
C38   C     C_3   0.691000 0.691389 0.731824 0.416053
C39   C     C_3   0.620542 0.716310 0.819208 -0.149133
C40   C     C_3   0.002658 0.258321 0.414551 -0.273428
C41   C     C_3   0.845974 0.122179 0.177948 -0.391161
C42   C     C_3   0.835755 0.069223 0.328928 -0.430447
C43   C     C_3   0.098851 0.100791 0.277232 -0.340465
C44   C     C_3   0.688478 0.808911 0.871790 -0.406271
C45   C     C_3   0.216491 0.261294 0.802205 0.395130
C46   C     C_3   0.447594 0.371968 0.282898 -0.233364
C47   C     C_3   0.537076 0.253345 0.132289 -0.434337
C48   C     C_3   0.321789 0.330900 0.959389 -0.445900
C49   C     C_3   0.577816 0.155974 0.728363 -0.264567
C50   C     C_3   0.725784 0.152774 0.935927 -0.375626
C51   C     C_3   0.036024 0.715000 0.168686 -0.300307
C52   C     C_3   0.951983 0.368379 0.082268 -0.402726
C53   C     C_3   0.012300 0.900656 0.062988 -0.518142
C54   C     C_3   0.292549 0.240007 0.895533 0.044414
C55   C     C_3   0.699805 0.225287 0.786982 0.383280
C56   C     C_3   0.808723 0.176301 0.856616 0.054768
C57   C     C_R   0.341720 0.563313 0.166829 -0.005598
H1    H     H_    0.208053 0.877511 0.588706 0.043712
H2    H     H_    0.305374 0.252594 0.305264 0.059647
H3    H     H_    0.409149 0.143145 0.183407 0.108437
H4    H     H_    0.286070 0.234493 0.145968 0.069561
H5    H     H_    0.351195 0.788125 0.077017 0.086108
H6    H     H_    0.817711 0.809974 0.089879 0.129738
H7    H     H_    0.287050 0.321399 0.784162 0.091531
H8    H     H_    0.090593 0.281554 0.803964 -0.086919
H9    H     H_    0.410492 0.211017 0.888805 0.140145
H10   H     H_    0.780497 0.254569 0.743107 -0.048653
H11   H     H_    0.908389 0.227524 0.884203 0.074143
H12   H     H_    0.088337 0.866140 0.677250 0.098171
H13   H     H_    0.292763 0.550783 0.301252 0.062278
H14   H     H_    0.878684 0.473104 0.697401 0.063795
H15   H     H_    0.800763 0.462821 0.968512 0.090652
H16   H     H_    0.353121 0.617009 0.872544 0.104519
H17   H     H_    0.328722 0.691529 0.444169 0.061365
H18   H     H_    0.212256 0.966923 0.388702 0.057053
H19   H     H_    0.991113 0.023684 0.616483 0.077533
H20   H     H_    0.130386 0.855094 0.221898 -0.011112
H21   H     H_    0.844514 0.299619 0.577733 0.058458
H22   H     H_    0.792497 0.893561 0.582356 0.113159
H23   H     H_    0.806201 0.264010 0.310227 0.076192
H24   H     H_    0.405166 0.094809 0.429205 0.097544
H25   H     H_    0.843507 0.917738 0.158289 0.109612
H26   H     H_    0.325812 0.722075 0.617228 -0.015520
H27   H     H_    0.110050 0.715760 0.586187 0.047949
H28   H     H_    0.648166 0.888981 0.260648 0.189765
H29   H     H_    0.623216 0.809785 0.331179 0.215495
H30   H     H_    0.442017 0.887378 0.688280 0.187242
H31   H     H_    0.316905 0.959458 0.734271 0.191077
H32   H     H_    0.939123 0.314032 0.449188 0.065160
H33   H     H_    0.005577 0.194990 0.447797 0.037008
H34   H     H_    0.637760 0.621167 0.703041 0.062244
H35   H     H_    0.127340 0.283780 0.419596 0.178936
H36   H     H_    0.871160 0.183383 0.142862 0.124964
H37   H     H_    0.714285 0.108168 0.173292 0.119584
H38   H     H_    0.891876 0.062848 0.138526 0.110826
H39   H     H_    0.831926 0.997547 0.295502 0.143603
H40   H     H_    0.896484 0.063987 0.397340 0.118173
H41   H     H_    0.710724 0.089475 0.331303 0.141150
H42   H     H_    0.156082 0.131313 0.225104 0.105656
H43   H     H_    0.171606 0.118987 0.343534 0.098034
H44   H     H_    0.096976 0.024033 0.259960 0.097935
H45   H     H_    0.532883 0.862490 0.099373 0.104730
H46   H     H_    0.915371 0.754647 0.769461 0.193009
H47   H     H_    0.898030 0.667843 0.687506 0.167658
H48   H     H_    0.815424 0.802705 0.900846 0.126165
H49   H     H_    0.680654 0.866373 0.828221 0.168596
H50   H     H_    0.618348 0.826892 0.927839 0.109160
H51   H     H_    0.396903 0.408491 0.340050 0.093353
H52   H     H_    0.576581 0.391324 0.288587 0.155591
H53   H     H_    0.389491 0.393744 0.219778 -0.012530
H54   H     H_    0.518622 0.324120 0.112659 0.125378
H55   H     H_    0.653972 0.259446 0.175085 0.146880
H56   H     H_    0.642871 0.659201 0.862275 0.057407
H57   H     H_    0.538656 0.203249 0.072206 0.119633
H58   H     H_    0.282418 0.324210 0.025327 0.123370
H59   H     H_    0.450817 0.354400 0.968478 0.155001
H60   H     H_    0.254559 0.387010 0.930862 0.119399
H61   H     H_    0.272988 0.129088 0.969084 0.171392
H62   H     H_    0.121586 0.199922 0.974023 0.170125
H63   H     H_    0.508345 0.193002 0.676925 0.152995
H64   H     H_    0.638192 0.098965 0.694136 0.078935
H65   H     H_    0.495687 0.123189 0.768782 0.122622
H66   H     H_    0.939121 0.057746 0.863917 0.204400
H67   H     H_    0.489001 0.721394 0.802459 0.139583
H68   H     H_    0.954896 0.112411 0.773706 0.192278
H69   H     H_    0.692428 0.218684 0.971371 0.124621
H70   H     H_    0.618502 0.104627 0.913995 0.120681
H71   H     H_    0.810308 0.118952 0.983754 0.101774
H72   H     H_    0.118114 0.685643 0.219434 0.056185
H73   H     H_    0.920297 0.672930 0.156735 0.163911
H74   H     H_    0.090892 0.711315 0.105855 0.050296
H75   H     H_    0.535137 0.687633 0.003779 0.167535
H76   H     H_    0.589474 0.576037 0.985183 0.181637
H77   H     H_    0.013454 0.311195 0.113220 0.122104
H78   H     H_    0.379183 0.748833 0.229520 -0.059207
H79   H     H_    0.828896 0.373705 0.100678 0.140206
H80   H     H_    0.947304 0.344671 0.010284 0.094856
H81   H     H_    0.933581 0.935162 0.012812 0.139262
H82   H     H_    0.103761 0.953680 0.099074 0.133348
H83   H     H_    0.072930 0.844241 0.026929 0.144402
H84   H     H_    0.359546 0.894930 0.151400 0.080916
N1    N     N_3   0.561755 0.847737 0.283569 -0.508700
N2    N     N_3   0.337714 0.888877 0.719038 -0.474692
N3    N     N_3   0.863811 0.687253 0.750009 -0.527307
N4    N     N_3   0.195692 0.169050 0.930376 -0.503217
N5    N     N_3   0.872946 0.091900 0.814764 -0.515174
N6    N     N_3   0.524047 0.620763 0.023764 -0.455547
O1    O     O_2   0.841250 0.444240 0.280450 -0.474534
O2    O     O_2   0.252508 0.165754 0.569262 -0.493834
O3    O     O_3   0.223392 0.184034 0.738731 -0.630200
O4    O     O_3   0.112870 0.447390 0.393710 -0.499617
O5    O     O_3   0.560600 0.613720 0.540760 -0.493266
O6    O     O_2   0.387470 0.270310 0.467210 -0.485020
O7    O     O_3   0.545402 0.225931 0.330456 -0.674746
O8    O     O_2   0.497101 0.457522 0.825021 -0.504460
O9    O     O_3   0.615444 0.294618 0.831790 -0.635749
O10   O     O_3   0.597960 0.615760 0.327700 -0.471625
O11   O     O_2   0.677401 0.543938 0.173831 -0.466459
O12   O     O_3   0.655256 0.760107 0.674681 -0.659145
O13   O     O_3   0.018790 0.294898 0.266755 -0.676361
O14   O     O_3   0.601858 0.718475 0.183151 -0.564838
O15   O     O_2   0.802240 0.729720 0.532850 -0.469210
O16   O     O_3   0.017190 0.664840 0.371090 -0.459141
O17   O     O_2   0.954909 0.827568 0.449633 -0.485799
O18   O     O_3   0.928168 0.820141 0.278281 -0.583916
O19   O     O_2   0.348460 0.555790 0.719610 -0.476983
O20   O     O_3   0.076820 0.552690 0.606290 -0.504690
O21   O     O_3   0.591740 0.384320 0.672310 -0.475406
O22   O     O_3   0.195010 0.705635 0.720401 -0.635774
O23   O     O_3   0.629090 0.386360 0.459240 -0.474340
O24   O     O_3   0.172500 0.335240 0.628910 -0.487563
P1    P     P_3+3 0.018620 0.416870 0.295980 0.951269
P2    P     P_3+3 0.635650 0.716500 0.560900 0.953531
P3    P     P_3+3 0.044447 0.785739 0.373654 0.944209
P4    P     P_3+3 0.171070 0.583210 0.704020 0.956443
P5    P     P_3+3 0.144197 0.214040 0.633345 0.909692
P6    P     P_3+3 0.552350 0.607504 0.211971 0.992541
P7    P     P_3+3 0.563879 0.267188 0.444377 0.906157
P8    P     P_3+3 0.633270 0.402155 0.789270 0.916762

loop_
_geom_bond_atom_site_label_1
_geom_bond_atom_site_label_2
_ccdc_geom_bond_type
C1    H45   S    
C13   H16   S    
C55   O9    S    
Ba2   O6    S    
C53   H82   S    
C48   H58   S    
C49   H64   S    
C46   H51   S    
C20   H17   S    
C38   H34   S    
C50   H69   S    
C5    C6    A    
C1    H5    S    
O16   P3    S    
H30   N2    S    
C24   C25   A    
O5    P2    S    
C50   H70   S    
C26   C27   A    
C22   C24   A    
Ba1   Ba2   S    
H31   N2    S    
C8    C13   A    
Ba2   O24   S    
C36   C37   S    
O12   P2    S    
C42   H40   S    
C56   N5    S    
O19   P4    D    
O7    P7    S    
C45   O3    S    
O15   P2    D    
C48   H59   S    
C40   H32   S    
C45   H8    S    
C12   O14   S    
C43   H44   S    
C10   C57   A    
C42   H39   S    
C29   C30   A    
C26   C33   A    
C6    C7    A    
C19   P2    S    
C44   H49   S    
C41   H36   S    
C21   C22   A    
H62   N4    S    
C49   C55   S    
Ba2   P4    S    
H28   N1    S    
C28   H27   S    
C34   H4    S    
C7    C8    A    
C17   P4    S    
C45   H7    S    
C57   P6    S    
H68   N5    S    
C37   C43   S    
O23   P7    S    
C47   H55   S    
C19   C25   A    
Ba2   O5    S    
C53   H83   S    
C2    P1    S    
C18   H22   S    
C36   H23   S    
C23   O7    S    
O3    P5    S    
C49   H65   S    
O8    P8    D    
C39   H56   S    
C34   H3    S    
O20   P4    S    
C41   H37   S    
C55   C56   S    
C18   C27   A    
C4    C16   S    
C12   N1    S    
Ba1   P1    S    
C5    P8    S    
C48   H60   S    
Ba1   O10   S    
C1    H84   S    
Ba1   O15   S    
C3    C5    A    
C33   H24   S    
C56   H11   S    
O2    P5    D    
C37   C41   S    
C21   P3    S    
Ba2   O20   S    
H76   N6    S    
H75   N6    S    
O4    P1    S    
C48   C54   S    
C53   H81   S    
C28   C35   S    
C16   H6    S    
C2    C14   A    
O13   P1    S    
O11   P6    D    
C30   H21   S    
C9    C14   A    
C24   C33   A    
C16   H25   S    
C52   H80   S    
C12   H78   S    
Ba1   O16   S    
C8    C17   A    
C39   C44   S    
C52   H77   S    
C44   H48   S    
C47   H57   S    
C6    H15   S    
C47   H54   S    
C51   H74   S    
Ba1   O1    S    
C51   H73   S    
C23   H2    S    
C50   C56   S    
C28   H26   S    
Ba1   O4    S    
C7    C9    A    
C23   C46   S    
C1    C12   S    
C43   H42   S    
C16   C53   S    
C15   C57   A    
C51   H72   S    
C2    C15   A    
C38   C39   S    
C46   H53   S    
C45   C54   S    
Ba2   O21   S    
Ba2   O4    S    
C35   H12   S    
O21   P8    S    
O14   P6    S    
C4    C51   S    
Ba2   O19   S    
O6    P7    D    
C55   H10   S    
C4    O18   S    
Ba1   P2    S    
O1    P1    D    
C31   P5    S    
C40   H35   S    
C39   H67   S    
C26   C29   A    
C41   H38   S    
O10   P6    S    
H66   N5    S    
C9    C10   A    
C36   C40   S    
C37   C42   S    
C3    C17   A    
C18   C25   A    
Ba1   O23   S    
O17   P3    D    
H47   N3    S    
C38   N3    S    
C29   P7    S    
C50   H71   S    
C30   C31   A    
C54   N4    S    
C11   C13   A    
C11   N6    S    
C38   O12   S    
C54   H9    S    
C32   H19   S    
C42   H41   S    
C4    H20   S    
C52   H79   S    
O24   P5    S    
H46   N3    S    
C27   C32   A    
Ba1   O20   S    
C31   C32   A    
C40   H33   S    
C3    H14   S    
Ba1   O5    S    
O9    P8    S    
C14   C52   S    
C28   O22   S    
C35   H1    S    
C43   H43   S    
C34   C47   S    
C23   C34   S    
C22   H18   S    
C36   O13   S    
C46   H52   S    
C10   C11   A    
C15   H13   S    
C44   H50   S    
C49   H63   S    
C20   C21   A    
O22   P4    S    
C35   N2    S    
C19   C20   A    
H29   N1    S    
H61   N4    S    
Ba2   O23   S    
O18   P3    S    
