data_mof_unit_7154.cif
_audit_creation_date              2012-10-26T20:50:49-0400
_audit_creation_method            fapswitch 2.2
_symmetry_space_group_name_H-M    P1
_symmetry_Int_Tables_number       1
_space_group_crystal_system       triclinic
_cell_length_a                    11.062531
_cell_length_b                    10.806164
_cell_length_c                    9.549921
_cell_angle_alpha                 89.927595
_cell_angle_beta                  103.169936
_cell_angle_gamma                 90.391642
_cell_volume                      1111.5786805

loop_
_atom_site_label
_atom_site_type_symbol
_atom_type_description
_atom_site_fract_x
_atom_site_fract_y
_atom_site_fract_z
_atom_type_partial_charge
C1    C     C_R   0.501190 0.262469 0.500482 0.549148
C2    C     C_R   0.423099 0.424011 0.054229 0.000824
C3    C     C_R   0.423111 0.423969 0.905383 -0.004720
C4    C     C_R   0.262354 0.498135 0.440785 0.559549
C5    C     C_R   0.585773 0.568558 0.948561 0.160412
C6    C     C_3   0.601280 0.706132 0.947455 -0.150482
C7    C     C_3   0.602335 0.705298 0.106977 -0.259492
C8    C     C_R   0.501494 0.737598 0.500462 0.558982
C9    C     C_R   0.737295 0.499701 0.558905 0.543472
C10   C     C_2   0.126215 0.492278 0.403976 0.049032
C11   C     C_2   0.065585 0.499292 0.511126 -0.139323
C12   C     C_R   0.509984 0.129464 0.504476 0.031439
C13   C     C_2   0.872496 0.503486 0.592590 -0.133013
C14   C     C_2   0.931565 0.481601 0.488014 -0.131373
C15   C     C_R   0.472988 0.063662 0.613291 -0.007580
C16   C     C_3   0.723995 0.747554 0.911764 -0.258582
C17   C     C_3   0.742589 0.887890 0.929549 -0.312620
C18   C     C_3   0.857363 0.930961 0.879337 -0.426972
C19   C     C_2   0.061103 0.476387 0.250216 0.559968
C20   C     C_2   0.244837 0.874983 0.556203 0.585956
C21   C     C_R   0.561442 0.065309 0.404419 -0.141281
C22   C     C_R   0.562138 0.936158 0.405077 -0.142015
C23   C     C_R   0.509821 0.870874 0.504321 0.036012
C24   C     C_R   0.471478 0.936329 0.612303 -0.015794
C25   C     C_3   0.352912 0.930752 0.663493 -0.055119
C26   C     C_3   0.355133 0.071749 0.664199 -0.258970
C27   C     C_R   0.585604 0.568482 0.096093 0.164136
Cu1   Cu    Cu3+1 0.499990 0.499980 0.640670 0.949982
Cu2   Cu    Cu3+1 0.500010 0.500020 0.359330 0.979039
H1    H     H_    0.879256 0.450631 0.383641 0.198026
H2    H     H_    0.597837 0.114487 0.323865 0.129605
H3    H     H_    0.600322 0.888041 0.326109 0.113655
H4    H     H_    0.366049 0.891191 0.773344 0.099043
H5    H     H_    0.279023 0.116341 0.583979 0.164363
H6    H     H_    0.941590 0.884553 0.942657 0.174824
H7    H     H_    0.846967 0.909664 0.763383 0.162995
H8    H     H_    0.869095 0.032542 0.894647 0.159437
H9    H     H_    0.660243 0.936779 0.865760 0.167869
H10   H     H_    0.753503 0.913598 0.044428 0.169218
H11   H     H_    0.803716 0.699443 0.981911 0.167859
H12   H     H_    0.371146 0.111560 0.774226 0.110265
H13   H     H_    0.721685 0.722040 0.798554 0.182369
H14   H     H_    0.920114 0.525415 0.086599 0.326958
H15   H     H_    0.143642 0.868858 0.351859 0.343694
H16   H     H_    0.359082 0.364321 0.093268 0.151680
H17   H     H_    0.359099 0.364219 0.832786 0.116760
H18   H     H_    0.518454 0.752558 0.881478 0.156018
H19   H     H_    0.692702 0.731234 0.179241 0.143343
H20   H     H_    0.520116 0.752643 0.129834 0.143836
H21   H     H_    0.116712 0.515628 0.621134 0.163219
H22   H     H_    0.923055 0.528889 0.700245 0.112629
N1    N     N_R   0.500780 0.500930 0.148120 -0.239568
N2    N     N_R   0.500790 0.500890 0.852210 -0.237686
O1    O     O_R   0.500000 0.319640 0.618810 -0.505510
O2    O     O_R   0.956293 0.546783 0.191141 -0.724406
O3    O     O_2   0.181520 0.794627 0.595268 -0.526965
O4    O     O_R   0.217583 0.914307 0.412879 -0.693963
O5    O     O_R   0.500010 0.319680 0.381230 -0.509131
O6    O     O_R   0.320680 0.500000 0.575130 -0.507567
O7    O     O_R   0.320690 0.500040 0.337550 -0.464224
O8    O     O_R   0.499990 0.680320 0.618770 -0.511126
O9    O     O_R   0.500000 0.680360 0.381190 -0.504757
O10   O     O_R   0.679310 0.499960 0.662450 -0.506661
O11   O     O_R   0.679320 0.500000 0.424870 -0.494539
O12   O     O_2   0.101473 0.403610 0.174383 -0.522177

loop_
_geom_bond_atom_site_label_1
_geom_bond_atom_site_label_2
_ccdc_geom_bond_type
C23   C24   A    
Cu2   O7    S    
C24   C25   S    
C6    C7    S    
H14   O2    S    
C16   H13   S    
C9    O11   A    
C3    N2    A    
C18   H6    S    
C22   H3    S    
C3    H17   S    
C12   C15   A    
C20   O3    D    
C10   C19   S    
Cu1   N2    S    
C7    H19   S    
C4    O7    A    
H15   O4    S    
C2    C3    A    
C5    N2    A    
Cu2   O11   S    
C11   H21   S    
C13   H22   S    
C13   C14   D    
Cu1   O8    S    
C21   H2    S    
C5    C27   A    
C18   H7    S    
Cu2   O9    S    
C1    C12   S    
C2    N1    A    
C14   H1    S    
C1    O1    A    
C4    O6    A    
C21   C22   A    
C15   C24   A    
C25   C26   S    
C18   H8    S    
C16   H11   S    
C19   O12   D    
C17   H9    S    
C2    H16   S    
C17   H10   S    
C5    C6    S    
Cu2   N1    S    
C11   C14   S    
C25   H4    S    
C6    H18   S    
C8    O8    A    
C6    C16   S    
Cu1   O10   S    
C1    O5    A    
C8    C23   S    
C7    C27   S    
Cu2   O5    S    
C7    H20   S    
C17   C18   S    
C10   C11   D    
Cu1   O6    S    
C19   O2    S    
C9    C13   S    
C22   C23   A    
Cu1   Cu2   S    
C15   C26   S    
Cu1   O1    S    
C20   O4    S    
C9    O10   A    
C4    C10   S    
C12   C21   A    
C26   H5    S    
C27   N1    A    
C26   H12   S    
C8    O9    A    
C16   C17   S    
C20   C25   S    
