data_mof_unit_19660.cif
_audit_creation_date              2012-12-10T16:57:54-0500
_audit_creation_method            fapswitch 2.2
_symmetry_space_group_name_H-M    P1
_symmetry_Int_Tables_number       1
_space_group_crystal_system       triclinic
_cell_length_a                    10.648866
_cell_length_b                    10.940256
_cell_length_c                    9.715896
_cell_angle_alpha                 89.158352
_cell_angle_beta                  89.97691
_cell_angle_gamma                 90.518581
_cell_volume                      1131.7460688

loop_
_atom_site_label
_atom_site_type_symbol
_atom_type_description
_atom_site_fract_x
_atom_site_fract_y
_atom_site_fract_z
_atom_type_partial_charge
C1    C     C_R   0.491473 0.265628 0.501172 0.742617
C2    C     C_3   0.959570 0.500252 0.367391 -0.308106
C3    C     C_3   0.041509 0.398626 0.435428 -0.270320
C4    C     C_3   0.123381 0.499197 0.501476 -0.117680
C5    C     C_2   0.464330 0.934609 0.394773 0.497058
C6    C     C_2   0.521050 0.867080 0.494196 0.240390
C7    C     C_2   0.486624 0.068046 0.392832 -0.263528
C8    C     C_2   0.464748 0.134392 0.504950 0.293999
C9    C     C_2   0.419606 0.435856 0.922727 0.674614
C10   C     C_2   0.406553 0.459819 0.077633 -0.113338
C11   C     C_R   0.259670 0.499851 0.500238 0.865634
C12   C     C_R   0.503712 0.734609 0.498703 0.754389
C13   C     C_R   0.740364 0.500294 0.499780 0.873107
C14   C     C_3   0.041203 0.499387 0.633229 -0.311126
C15   C     C_3   0.957965 0.401552 0.564872 0.416787
C16   C     C_3   0.876762 0.500508 0.498510 -0.078492
C17   C     C_3   0.960304 0.598464 0.563039 0.297354
C18   C     C_3   0.042814 0.598489 0.434757 0.410942
Cu1   Cu    Cu3+1 0.500030 0.500020 0.638630 1.053538
Cu2   Cu    Cu3+1 0.499970 0.499980 0.361370 0.989255
H1    H     H_    0.317859 0.439726 0.127896 0.149404
H2    H     H_    0.586087 0.500433 0.108393 0.215968
H3    H     H_    0.075112 0.498155 0.741287 0.182667
H4    H     H_    0.925193 0.502507 0.259531 0.170773
H5    H     H_    0.077318 0.315192 0.385549 0.154145
H6    H     H_    0.520235 0.110513 0.297798 0.121063
N1    N     N_2   0.498620 0.498660 0.846910 -0.032928
N2    N     N_2   0.498590 0.498630 0.153040 -0.266566
O1    O     O_R   0.500020 0.321960 0.617040 -0.545622
O2    O     O_R   0.499980 0.321920 0.382900 -0.612724
O3    O     O_R   0.316870 0.499990 0.617050 -0.555051
O4    O     O_R   0.316830 0.499950 0.382910 -0.566234
O5    O     O_R   0.500020 0.678080 0.617100 -0.564794
O6    O     O_R   0.499980 0.678040 0.382960 -0.523743
O7    O     O_R   0.683170 0.500050 0.617090 -0.578650
O8    O     O_R   0.683130 0.500010 0.382950 -0.606898
O9    O     O_3   0.908800 0.297975 0.632221 -0.708840
H7    H     H_    0.982823 0.251762 0.665236 0.328915
O10   O     O_3   0.410543 0.078797 0.619905 -0.696502
H8    H     H_    0.393556 0.141255 0.689902 0.352640
O11   O     O_3   0.344000 0.350872 0.855152 -0.580587
C19   C     C_3   0.290415 0.262460 0.945087 -0.437614
H9    H     H_    0.210068 0.301319 0.002172 0.171109
H10   H     H_    0.361383 0.222493 0.016378 0.161966
H11   H     H_    0.252109 0.186626 0.882818 0.213035
O12   O     O_3   0.534909 0.606017 0.902038 -0.523934
C20   C     C_3   0.664817 0.620903 0.879591 -0.097029
H12   H     H_    0.682710 0.671019 0.781720 0.205852
H13   H     H_    0.716579 0.532781 0.882970 0.133068
H14   H     H_    0.703675 0.678114 0.963020 0.132230
O13   O     O_3   0.914620 0.703150 0.626061 -0.753456
H15   H     H_    0.990030 0.747463 0.659345 0.344243
O14   O     O_3   0.091730 0.702805 0.368588 -0.707662
H16   H     H_    0.017659 0.748786 0.335331 0.326097
O15   O     O_3   0.393035 0.876221 0.293796 -0.567140
C21   C     C_3   0.305494 0.955144 0.230613 -0.232657
H17   H     H_    0.353535 0.021449 0.160211 0.140318
H18   H     H_    0.247768 0.003220 0.308206 0.156493
H19   H     H_    0.240453 0.899549 0.167402 0.209739
O16   O     O_3   0.600969 0.922620 0.587534 -0.695362
H20   H     H_    0.640417 0.858819 0.646133 0.337173

loop_
_geom_bond_atom_site_label_1
_geom_bond_atom_site_label_2
_ccdc_geom_bond_type
C14   H3    S    
O15   C21   S    
O9    H7    S    
C8    O10   S    
C2    C18   S    
C1    C8    S    
C2    C16   S    
O11   C19   S    
C9    O11   S    
C20   H12   S    
C21   H19   S    
Cu2   O6    S    
C6    C12   S    
C17   O13   S    
C1    O1    A    
C17   C18   S    
Cu1   O3    S    
C7    C8    D    
C20   H13   S    
Cu1   O7    S    
O14   H16   S    
C4    C11   S    
C2    H4    S    
C14   C17   S    
C7    H6    S    
C19   H10   S    
O16   H20   S    
C15   C16   S    
N1    O12   S    
C1    O2    A    
H2    N2    S    
C21   H18   S    
C11   O4    A    
C13   O7    A    
C20   H14   S    
C2    C3    S    
C10   H1    S    
C4    C14   S    
C5    C6    D    
C19   H9    S    
C11   O3    A    
O13   H15   S    
Cu1   O1    S    
C9    C10   S    
C6    O16   S    
C3    H5    S    
Cu1   N1    S    
C21   H17   S    
C9    N1    D    
C13   O8    A    
Cu2   O4    S    
C13   C16   S    
C10   N2    D    
O10   H8    S    
C5    C7    S    
C14   C15   S    
C15   O9    S    
C3    C15   S    
Cu2   O2    S    
Cu2   N2    S    
C18   O14   S    
C12   O5    A    
O12   C20   S    
C12   O6    A    
C4    C18   S    
C5    O15   S    
C3    C4    S    
Cu1   Cu2   S    
Cu1   O5    S    
C16   C17   S    
C19   H11   S    
Cu2   O8    S    
