data_mof_unit_16402.cif
_audit_creation_date              2012-12-11T14:08:09-0500
_audit_creation_method            fapswitch 2.2
_symmetry_space_group_name_H-M    P1
_symmetry_Int_Tables_number       1
_space_group_crystal_system       triclinic
_cell_length_a                    10.960408
_cell_length_b                    10.958649
_cell_length_c                    18.705808
_cell_angle_alpha                 89.5162
_cell_angle_beta                  89.652305
_cell_angle_gamma                 60.265952
_cell_volume                      1950.88640988

loop_
_atom_site_label
_atom_site_type_symbol
_atom_type_description
_atom_site_fract_x
_atom_site_fract_y
_atom_site_fract_z
_atom_type_partial_charge
C1    C     C_R   0.231075 0.646379 0.606323 0.533022
C2    C     C_3   0.728960 0.523136 0.800060 -0.275598
C3    C     C_3   0.698671 0.675742 0.813098 0.020306
C4    C     C_3   0.668846 0.641891 0.678128 0.017884
C5    C     C_3   0.784869 0.682712 0.685980 -0.119747
C6    C     C_3   0.705083 0.506003 0.721424 -0.222923
C7    C     C_2   0.670458 0.166139 0.673673 -0.140913
C8    C     C_2   0.681758 0.178918 0.830477 -0.104573
C9    C     C_2   0.791924 0.146492 0.787412 -0.168056
C10   C     C_2   0.774833 0.169663 0.709463 -0.193047
C11   C     C_2   0.171399 0.656578 0.676461 -0.111044
C12   C     C_R   0.650914 0.617318 0.603205 0.543098
C13   C     C_2   0.182259 0.680742 0.836577 0.133088
C14   C     C_2   0.220454 0.559942 0.800404 -0.037436
C15   C     C_2   0.246659 0.551266 0.723038 -0.160923
C16   C     C_2   0.670690 0.684546 0.331164 -0.100319
C17   C     C_2   0.724428 0.725320 0.181242 -0.027923
C18   C     C_2   0.822136 0.625279 0.224445 0.085555
C19   C     C_2   0.798761 0.621239 0.301647 -0.153133
C20   C     C_2   0.571092 0.323000 0.311995 -0.004403
C21   C     C_2   0.641139 0.184804 0.170605 -0.053989
C22   C     C_2   0.509779 0.256059 0.196518 -0.108437
C23   C     C_R   0.627247 0.229283 0.602647 0.552797
C24   C     C_2   0.484873 0.295481 0.272480 -0.136612
C25   C     C_2   0.123047 0.681139 0.344890 -0.102055
C26   C     C_2   0.116020 0.689919 0.190457 -0.073235
C27   C     C_2   0.042655 0.802048 0.233250 -0.148823
C28   C     C_2   0.076859 0.799308 0.307939 -0.154025
C29   C     C_R   0.700397 0.107896 0.899331 0.610961
C30   C     C_R   0.722653 0.687922 0.889057 0.575473
C31   C     C_R   0.120537 0.706821 0.908109 0.670876
C32   C     C_R   0.674585 0.108759 0.103822 0.526328
C33   C     C_R   0.737827 0.720447 0.103471 0.589524
C34   C     C_R   0.215777 0.651586 0.404559 0.552006
C35   C     C_R   0.087781 0.712340 0.115070 0.549655
C36   C     C_R   0.645321 0.627791 0.396276 0.546383
C37   C     C_R   0.573330 0.307315 0.390201 0.554110
C38   C     C_3   0.542440 0.784575 0.789205 0.092233
C39   C     C_3   0.528378 0.761780 0.708816 -0.220987
C40   C     C_3   0.811311 0.691564 0.766550 -0.098507
Cr1   Cr    Cr6+3 0.393010 0.398050 0.501480 1.028888
Cr2   Cr    Cr6+3 0.398820 0.707980 0.501630 1.020410
Cr3   Cr    Cr6+3 0.708140 0.393940 0.496850 1.020898
Cr4   Cr    Cr6+3 0.937950 0.938450 0.008940 1.065744
Cr5   Cr    Cr6+3 0.626180 0.937030 0.994750 1.106532
Cr6   Cr    Cr6+3 0.937790 0.625760 0.001410 1.097531
H1    H     H_    0.801706 0.414902 0.700215 0.195815
H2    H     H_    0.916578 0.602252 0.781168 0.184081
H3    H     H_    0.897613 0.095193 0.808843 0.174003
H4    H     H_    0.849627 0.190192 0.681284 0.162984
H5    H     H_    0.575599 0.235831 0.809383 0.117502
H6    H     H_    0.601768 0.135780 0.700727 0.096450
H7    H     H_    0.338082 0.455427 0.704508 0.143349
H8    H     H_    0.077203 0.752193 0.691356 0.085950
H9    H     H_    0.887182 0.542120 0.332211 0.138707
H10   H     H_    0.633093 0.816314 0.202945 0.061099
H11   H     H_    0.578758 0.763765 0.303280 0.114818
H12   H     H_    0.422246 0.264697 0.165575 0.147110
H13   H     H_    0.404945 0.279427 0.298395 0.131064
H14   H     H_    0.730792 0.166218 0.202755 0.107305
H15   H     H_    0.966333 0.903816 0.211323 0.146077
H16   H     H_    0.444002 0.735001 0.700705 0.153974
H17   H     H_    0.081146 0.889116 0.329148 0.157346
H18   H     H_    0.195030 0.587465 0.210170 0.099291
H19   H     H_    0.110615 0.595300 0.324473 0.091934
H20   H     H_    0.495568 0.859479 0.676770 0.110455
H21   H     H_    0.742593 0.787764 0.659902 0.041125
H22   H     H_    0.840136 0.445621 0.813361 0.163938
H23   H     H_    0.665436 0.493587 0.835063 0.119039
H24   H     H_    0.618347 0.481324 0.716741 0.112073
O1    O     O_R   0.507110 0.256280 0.580300 -0.506018
O2    O     O_R   0.524640 0.695370 0.425100 -0.491157
O3    O     O_R   0.735890 0.504390 0.415980 -0.538638
O4    O     O_R   0.690560 0.277820 0.422350 -0.516818
O5    O     O_3   0.499990 0.499990 0.499980 -0.281230
O6    O     O_R   0.089190 0.825870 0.932320 -0.472299
O7    O     O_R   0.819070 0.053960 0.931440 -0.471912
O8    O     O_R   0.607070 0.076440 0.916460 -0.444329
O9    O     O_R   0.647110 0.806550 0.917690 -0.462503
O10   O     O_R   0.837080 0.593860 0.915300 -0.514869
O11   O     O_R   0.064770 0.636080 0.932550 -0.450048
O12   O     O_R   0.280830 0.527190 0.577940 -0.486390
O13   O     O_R   0.068250 0.829200 0.092940 -0.516666
O14   O     O_R   0.799650 0.057040 0.080330 -0.516946
O15   O     O_R   0.586130 0.079760 0.077080 -0.520090
O16   O     O_R   0.627700 0.809630 0.066580 -0.508569
O17   O     O_R   0.816140 0.597180 0.075920 -0.457214
O18   O     O_R   0.045360 0.639170 0.081440 -0.499458
O19   O     O_3   0.833980 0.833750 0.001700 -0.289554
O20   O     O_R   0.261360 0.738990 0.584270 -0.518352
O21   O     O_R   0.532590 0.694780 0.574370 -0.515574
O22   O     O_R   0.744470 0.503750 0.577000 -0.498819
O23   O     O_R   0.698520 0.277230 0.571620 -0.492909
O24   O     O_R   0.498530 0.256920 0.419280 -0.515329
O25   O     O_R   0.272880 0.527780 0.428680 -0.526220
O26   O     O_R   0.252780 0.739630 0.423250 -0.506731
C41   C     C_2   0.502528 0.938381 0.797826 0.333070
H25   H     H_    0.555708 0.981841 0.766975 0.058213
O27   O     O_2   0.406208 0.016992 0.837036 -0.454989
C42   C     C_2   0.920579 0.586885 0.646818 0.225331
H26   H     H_    0.948504 0.625570 0.599444 0.110209
O28   O     O_2   0.997933 0.466008 0.666597 -0.517089
C43   C     C_2   0.254447 0.424992 0.836080 0.224791
H27   H     H_    0.248571 0.344058 0.805734 0.152654
O29   O     O_2   0.297305 0.399272 0.897535 -0.491242
N1    N     N_3   0.175373 0.803274 0.802789 -0.592122
H28   H     H_    0.243533 0.780116 0.759724 0.244229
H29   H     H_    0.072535 0.870885 0.786254 0.239152
N2    N     N_3   0.441294 0.760617 0.830565 -0.571570
H30   H     H_    0.452326 0.767533 0.885550 0.271642
H31   H     H_    0.453985 0.661474 0.820484 0.214276
N3    N     N_3   0.947504 0.509462 0.195464 -0.566681
H32   H     H_    0.941731 0.418086 0.204223 0.245413
H33   H     H_    0.033531 0.498385 0.224443 0.199572
C44   C     C_2   0.658529 0.378599 0.279737 0.198553
H34   H     H_    0.755013 0.358930 0.305416 0.131408
O30   O     O_2   0.621763 0.449563 0.225100 -0.497828
C45   C     C_2   0.823022 0.820153 0.780804 0.127373
H35   H     H_    0.805797 0.895614 0.738887 0.101289
O31   O     O_2   0.856987 0.838618 0.839562 -0.499094

loop_
_geom_bond_atom_site_label_1
_geom_bond_atom_site_label_2
_ccdc_geom_bond_type
Cr3   O3    S    
C7    C10   D    
C40   C45   S    
C37   O4    A    
C1    O20   A    
C12   O21   A    
C1    C11   S    
C5    H21   S    
Cr4   O13   S    
N3    H33   S    
C41   H25   S    
C14   C43   S    
Cr6   O19   S    
C25   C28   D    
Cr2   O5    S    
Cr2   O26   S    
C8    C29   S    
C15   H7    S    
Cr4   O7    S    
C18   N3    S    
C7    H6    S    
C18   C19   S    
C2    H22   S    
N2    H31   S    
C38   C39   S    
N1    H28   S    
Cr1   O12   S    
C44   H34   S    
C6    H24   S    
Cr2   O21   S    
Cr4   O6    S    
C26   H18   S    
C45   H35   S    
C27   H15   S    
C11   C15   D    
C43   O29   D    
C29   O8    A    
C20   C24   D    
C3    C38   S    
C8    C9    D    
C44   O30   D    
C5    C42   S    
Cr5   O8    S    
C4    C12   S    
C2    H23   S    
Cr5   O19   S    
C9    C10   S    
C25   C34   S    
Cr1   O1    S    
C30   O10   A    
Cr3   O4    S    
C21   C22   D    
C2    C6    S    
C17   C33   S    
C38   C41   S    
C42   O28   D    
N3    H32   S    
C41   O27   D    
C12   O22   A    
Cr6   O18   S    
Cr3   O5    S    
C32   O14   A    
C21   C32   S    
C6    H1    S    
C23   O1    A    
C9    H3    S    
C34   O25   A    
C21   H14   S    
C4    C6    S    
C35   O13   A    
C13   N1    S    
C1    O12   A    
C23   O23   A    
Cr2   O20   S    
C3    C30   S    
Cr5   O15   S    
C33   O16   A    
Cr1   O5    S    
Cr6   O11   S    
C35   O18   A    
Cr1   O24   S    
C8    H5    S    
C4    C39   S    
Cr2   O2    S    
C17   C18   D    
C26   C27   D    
C25   H19   S    
Cr5   O9    S    
C38   N2    S    
C17   H10   S    
C11   H8    S    
C30   O9    A    
C3    C40   S    
C39   H20   S    
C22   C24   S    
C10   H4    S    
C43   H27   S    
Cr6   O17   S    
C19   H9    S    
C40   H2    S    
C39   H16   S    
C13   C31   S    
C34   O26   A    
C4    C5    S    
Cr4   O14   S    
C22   H12   S    
C20   C44   S    
Cr3   O22   S    
C31   O11   A    
C2    C3    S    
C33   O17   A    
N2    H30   S    
C16   C36   S    
Cr6   O10   S    
C20   C37   S    
C31   O6    A    
Cr1   O25   S    
N1    H29   S    
C24   H13   S    
C7    C23   S    
C32   O15   A    
C42   H26   S    
Cr3   O23   S    
C37   O24   A    
Cr5   O16   S    
C16   H11   S    
C45   O31   D    
C36   O3    A    
C28   H17   S    
C26   C35   S    
C29   O7    A    
C5    C40   S    
C27   C28   S    
C14   C15   S    
C13   C14   D    
Cr4   O19   S    
C36   O2    A    
C16   C19   D    
