data_mof_unit_21728.cif
_audit_creation_date              2012-12-10T18:01:44-0500
_audit_creation_method            fapswitch 2.2
_symmetry_space_group_name_H-M    P1
_symmetry_Int_Tables_number       1
_space_group_crystal_system       triclinic
_cell_length_a                    10.885974
_cell_length_b                    9.599948
_cell_length_c                    19.39046
_cell_angle_alpha                 90.640268
_cell_angle_beta                  93.715656
_cell_angle_gamma                 90.467165
_cell_volume                      2021.92996605

loop_
_atom_site_label
_atom_site_type_symbol
_atom_type_description
_atom_site_fract_x
_atom_site_fract_y
_atom_site_fract_z
_atom_type_partial_charge
C1    C     C_R   0.262958 0.498893 0.505962 0.812072
C2    C     C_R   0.736878 0.499613 0.493449 0.806965
C3    C     C_R   0.470975 0.452296 0.929152 0.356111
C4    C     C_R   0.476125 0.452791 0.068851 0.344130
C5    C     C_R   0.507044 0.499550 0.367344 0.800134
C6    C     C_R   0.498796 0.500327 0.632745 0.797408
C7    C     C_R   0.062072 0.366283 0.506633 0.130359
C8    C     C_R   0.939644 0.622468 0.489706 0.130926
C9    C     C_R   0.935063 0.367564 0.488278 0.135617
C10   C     C_R   0.062998 0.620801 0.514376 0.130000
C11   C     C_R   0.871514 0.496623 0.486682 -0.136892
C12   C     C_R   0.128335 0.494673 0.512601 -0.143403
C13   C     C_R   0.426589 0.072750 0.452344 0.044722
C14   C     C_R   0.581679 0.928434 0.543241 0.078098
C15   C     C_R   0.572598 0.076496 0.547680 0.053999
C16   C     C_R   0.418033 0.924249 0.456646 0.071229
C17   C     C_R   0.497856 0.615821 0.248630 0.081453
C18   C     C_R   0.395396 0.410692 0.735958 0.137801
C19   C     C_R   0.569213 0.573797 0.755455 0.080871
C20   C     C_R   0.543864 0.367901 0.257362 0.159204
C21   C     C_R   0.476300 0.599654 0.176028 -0.001561
C22   C     C_R   0.393437 0.390046 0.808089 0.006537
C23   C     C_R   0.562497 0.558877 0.827693 0.028162
C24   C     C_R   0.516147 0.349320 0.185707 -0.003064
C25   C     C_R   0.485340 0.466376 0.144893 -0.153904
C26   C     C_R   0.474302 0.468007 0.853638 -0.151132
C27   C     C_R   0.516782 0.495793 0.290316 -0.124564
C28   C     C_R   0.486935 0.497451 0.709174 -0.077757
Cu1   Cu    Cu3+1 0.500000 0.640660 0.500000 0.908735
Cu2   Cu    Cu3+1 0.500000 0.359340 0.500000 0.911794
N1    N     N_R   0.500000 0.852070 0.500000 -0.261955
N2    N     N_R   0.500000 0.147930 0.500000 -0.270011
N3    N     N_R   0.575494 0.410955 0.035579 -0.230084
N4    N     N_R   0.371294 0.493874 0.962339 -0.230402
N5    N     N_R   0.572834 0.410221 0.966950 -0.179984
N6    N     N_R   0.373603 0.493572 0.031087 -0.197381
O1    O     O_R   0.319640 0.618740 0.500000 -0.591826
O2    O     O_R   0.680360 0.381260 0.500000 -0.606294
O3    O     O_R   0.680360 0.618740 0.500000 -0.603448
O4    O     O_R   0.319640 0.381260 0.500000 -0.605320
O5    O     O_R   0.499980 0.618820 0.400140 -0.611245
O6    O     O_R   0.500020 0.381180 0.599860 -0.580368
O7    O     O_R   0.500020 0.618820 0.599860 -0.603013
O8    O     O_R   0.499980 0.381180 0.400140 -0.592080
C29   C     C_3   0.121476 0.227350 0.524983 -0.776720
H1    H     H_    0.197441 0.238629 0.565122 0.240755
H2    H     H_    0.055793 0.155984 0.548614 0.241212
H3    H     H_    0.154330 0.176274 0.478169 0.238217
C30   C     C_3   0.889684 0.755861 0.458234 -0.776411
H4    H     H_    0.805683 0.738240 0.423675 0.230410
H5    H     H_    0.872273 0.833386 0.498776 0.263630
H6    H     H_    0.958550 0.801202 0.424863 0.251845
C31   C     C_3   0.872434 0.231106 0.464924 -0.785508
H7    H     H_    0.796251 0.247652 0.425734 0.233085
H8    H     H_    0.936189 0.162177 0.438305 0.239770
H9    H     H_    0.838569 0.175291 0.509830 0.236513
C32   C     C_3   0.116488 0.750054 0.550931 -0.755436
H10   H     H_    0.199721 0.727218 0.584838 0.235258
H11   H     H_    0.137267 0.831415 0.513552 0.265245
H12   H     H_    0.048654 0.792854 0.585781 0.245326
C33   C     C_3   0.519171 0.760973 0.279113 -0.667792
H13   H     H_    0.594380 0.761999 0.320532 0.207753
H14   H     H_    0.552718 0.834650 0.240783 0.259668
H15   H     H_    0.432754 0.801811 0.298133 0.259944
C34   C     C_3   0.294428 0.348110 0.687721 -0.719787
H16   H     H_    0.271403 0.418780 0.644115 0.182498
H17   H     H_    0.324378 0.245571 0.668160 0.264508
H18   H     H_    0.206985 0.335400 0.713455 0.243319
C35   C     C_3   0.658888 0.675330 0.727043 -0.730241
H19   H     H_    0.604875 0.759702 0.701543 0.233446
H20   H     H_    0.722166 0.728108 0.765898 0.274987
H21   H     H_    0.716917 0.620020 0.690715 0.207898
C36   C     C_3   0.627164 0.264278 0.295096 -0.704323
H22   H     H_    0.690006 0.320160 0.333274 0.186546
H23   H     H_    0.573444 0.184422 0.321077 0.277487
H24   H     H_    0.688272 0.211727 0.259409 0.228886
C37   C     C_2   0.444836 0.722059 0.131823 0.438733
H25   H     H_    0.480847 0.730985 0.081159 0.074300
O9    O     O_2   0.375000 0.811613 0.150738 -0.469281
C38   C     C_2   0.312169 0.281642 0.836449 0.403703
H26   H     H_    0.274830 0.295950 0.886447 0.104523
O10   O     O_2   0.290199 0.171957 0.805406 -0.510481
C39   C     C_2   0.646172 0.638567 0.877655 0.425432
H27   H     H_    0.607909 0.701444 0.917760 0.073426
O11   O     O_2   0.757716 0.626732 0.877241 -0.500610
C40   C     C_2   0.513561 0.206557 0.153795 0.426940
H28   H     H_    0.516164 0.191646 0.098490 0.094093
O12   O     O_2   0.502537 0.102866 0.188832 -0.495878
C41   C     C_2   0.358753 0.144814 0.394333 0.456823
H29   H     H_    0.312154 0.241590 0.401810 0.117056
O13   O     O_2   0.354897 0.095586 0.335859 -0.512650
C42   C     C_2   0.683306 0.858685 0.583952 0.361916
H30   H     H_    0.678264 0.751273 0.596045 0.148774
O14   O     O_2   0.777668 0.920857 0.603721 -0.583642
C43   C     C_2   0.636977 0.152170 0.606532 0.523129
H31   H     H_    0.695638 0.240914 0.598742 0.091773
O15   O     O_2   0.623838 0.115039 0.665668 -0.524478
C44   C     C_2   0.315994 0.850070 0.415904 0.415931
H32   H     H_    0.324773 0.745837 0.396670 0.137212
O16   O     O_2   0.216727 0.905906 0.403455 -0.579366

loop_
_geom_bond_atom_site_label_1
_geom_bond_atom_site_label_2
_ccdc_geom_bond_type
C4    N6    A    
C33   H15   S    
C36   H22   S    
C13   N2    A    
C43   H31   S    
C14   N1    A    
C4    C25   S    
C15   N2    A    
C37   H25   S    
C16   N1    A    
C23   C39   S    
C7    C29   S    
C15   C43   S    
C40   O12   D    
C32   H11   S    
Cu2   O2    S    
C35   H20   S    
C23   C26   A    
C33   H14   S    
C5    O5    A    
C1    O4    A    
C17   C33   S    
C5    C27   S    
C2    O3    A    
C6    C28   S    
C20   C24   A    
C34   H17   S    
C41   O13   D    
C1    O1    A    
Cu1   O5    S    
C34   H18   S    
C29   H2    S    
Cu1   O7    S    
C36   H23   S    
Cu2   O8    S    
C33   H13   S    
C1    C12   S    
C2    C11   S    
C37   O9    D    
C7    C12   A    
C17   C27   A    
C10   C32   S    
C18   C28   A    
C24   C25   A    
C38   O10   D    
C40   H28   S    
C32   H12   S    
C29   H3    S    
C3    N4    A    
C30   H5    S    
C29   H1    S    
C17   C21   A    
C18   C34   S    
C35   H21   S    
C19   C23   A    
Cu1   Cu2   S    
C2    O2    A    
C39   H27   S    
C3    N5    A    
C30   H6    S    
Cu1   O3    S    
C42   O14   D    
Cu2   O4    S    
C19   C28   A    
C9    C11   A    
C14   C42   S    
C10   C12   A    
C39   O11   D    
C5    O8    A    
C30   H4    S    
C44   O16   D    
C6    O7    A    
C6    O6    A    
C36   H24   S    
C19   C35   S    
C9    C31   S    
C31   H8    S    
C21   C37   S    
C31   H9    S    
C7    C9    A    
C21   C25   A    
C4    N3    A    
C13   C41   S    
C18   C22   A    
C3    C26   S    
C38   H26   S    
C43   O15   D    
C31   H7    S    
C20   C27   A    
C22   C38   S    
Cu1   N1    S    
Cu2   N2    S    
C16   C44   S    
C32   H10   S    
C8    C11   A    
C42   H30   S    
N3    N5    A    
C20   C36   S    
N4    N6    A    
C34   H16   S    
C35   H19   S    
C8    C10   A    
C44   H32   S    
C22   C26   A    
C13   C16   A    
Cu1   O1    S    
C14   C15   A    
Cu2   O6    S    
C41   H29   S    
C24   C40   S    
C8    C30   S    
