data_mof_unit_10332.cif
_audit_creation_date              2012-12-11T14:40:10-0500
_audit_creation_method            fapswitch 2.2
_symmetry_space_group_name_H-M    P1
_symmetry_Int_Tables_number       1
_space_group_crystal_system       triclinic
_cell_length_a                    19.627917
_cell_length_b                    10.874966
_cell_length_c                    19.530577
_cell_angle_alpha                 90.136465
_cell_angle_beta                  97.694721
_cell_angle_gamma                 89.580814
_cell_volume                      4131.2058621

loop_
_atom_site_label
_atom_site_type_symbol
_atom_type_description
_atom_site_fract_x
_atom_site_fract_y
_atom_site_fract_z
_atom_type_partial_charge
C1    C     C_R   0.725234 0.953722 0.361053 0.545661
C2    C     C_R   0.289012 0.991174 0.632377 0.555113
C3    C     C_R   0.226149 0.450482 0.360201 0.544332
C4    C     C_R   0.789653 0.492928 0.632523 0.556885
C5    C     C_3   0.709408 0.313326 0.499385 -0.137658
C6    C     C_3   0.278449 0.301701 0.516136 -0.094160
C7    C     C_3   0.188861 0.852763 0.493677 -0.146937
C8    C     C_3   0.813122 0.866914 0.520058 -0.124072
C9    C     C_3   0.739034 0.367971 0.437662 0.049422
C10   C     C_3   0.253752 0.397131 0.566335 0.040296
C11   C     C_3   0.237268 0.861831 0.438366 0.036715
C12   C     C_3   0.755351 0.888161 0.565023 0.039308
C13   C     C_3   0.723657 0.499901 0.459279 -0.095225
C14   C     C_3   0.286760 0.502595 0.530905 -0.106004
C15   C     C_3   0.252751 0.997637 0.455252 -0.085895
C16   C     C_3   0.736923 0.013434 0.533210 -0.117111
C17   C     C_3   0.796947 0.504015 0.500992 -0.170464
C18   C     C_3   0.217268 0.518594 0.483385 -0.136303
C19   C     C_3   0.314909 0.955024 0.507394 -0.150465
C20   C     C_3   0.684416 0.948147 0.479195 -0.130406
C21   C     C_3   0.811950 0.372017 0.478189 -0.094471
C22   C     C_3   0.184798 0.412845 0.520058 -0.113836
C23   C     C_3   0.299165 0.818935 0.489730 -0.116601
C24   C     C_3   0.703084 0.821878 0.511859 -0.112312
C25   C     C_3   0.782610 0.318007 0.540760 -0.113979
C26   C     C_3   0.209098 0.318775 0.468917 -0.111795
C27   C     C_3   0.251219 0.811583 0.546176 -0.138020
C28   C     C_3   0.760337 0.802861 0.465491 -0.165683
C29   C     C_3   0.768119 0.449742 0.563231 0.076110
C30   C     C_3   0.241406 0.423672 0.432842 0.070073
C31   C     C_3   0.267307 0.946847 0.563300 0.078531
C32   C     C_3   0.741477 0.927562 0.433233 0.078004
C33   C     C_3   0.521910 0.273852 0.969644 -0.104343
C34   C     C_3   0.479356 0.274716 0.030200 -0.103536
C35   C     C_3   0.021135 0.774663 0.969899 -0.104194
C36   C     C_3   0.978587 0.773908 0.030453 -0.103822
C37   C     C_3   0.569553 0.172195 0.004425 -0.145169
C38   C     C_3   0.431724 0.174007 0.995494 -0.144548
C39   C     C_3   0.069464 0.673748 0.004439 -0.145020
C40   C     C_3   0.931645 0.672454 0.995503 -0.144684
C41   C     C_3   0.526955 0.173419 0.064403 0.056913
C42   C     C_3   0.474297 0.173517 0.935508 0.056837
C43   C     C_3   0.026874 0.673368 0.064417 0.057082
C44   C     C_3   0.974217 0.673569 0.935523 0.056855
C45   C     C_R   0.535613 0.180280 0.338358 0.546431
C46   C     C_R   0.464805 0.179660 0.661923 0.545626
C47   C     C_R   0.035405 0.680246 0.338214 0.544014
C48   C     C_R   0.964714 0.679649 0.661850 0.543713
C49   C     C_3   0.479600 0.072373 0.030767 -0.106290
C50   C     C_3   0.521642 0.071508 0.969146 -0.106932
C51   C     C_3   0.980212 0.571564 0.030552 -0.106340
C52   C     C_3   0.022249 0.572314 0.968934 -0.107027
C53   C     C_1   0.763243 0.425683 0.904413 -0.006157
C54   C     C_1   0.236715 0.425499 0.095575 -0.003760
C55   C     C_1   0.263248 0.925694 0.904416 -0.006042
C56   C     C_1   0.736719 0.925492 0.095578 -0.004114
C57   C     C_1   0.747364 0.407760 0.034533 -0.048229
C58   C     C_1   0.252457 0.407689 0.965452 -0.048698
C59   C     C_1   0.247370 0.907776 0.034537 -0.048259
C60   C     C_1   0.752463 0.907675 0.965455 -0.048626
C61   C     C_1   0.754517 0.415455 0.963920 -0.047015
C62   C     C_1   0.245386 0.415266 0.036053 -0.047156
C63   C     C_1   0.254523 0.915470 0.963924 -0.046868
C64   C     C_1   0.745392 0.915253 0.036056 -0.047326
C65   C     C_1   0.742253 0.394463 0.094745 -0.008148
C66   C     C_1   0.257556 0.394407 0.905231 -0.006185
C67   C     C_1   0.242257 0.894475 0.094748 -0.008479
C68   C     C_1   0.757559 0.894397 0.905233 -0.006633
C69   C     C_R   0.726930 0.317863 0.368685 0.568561
C70   C     C_R   0.260261 0.364447 0.638473 0.539948
C71   C     C_R   0.226165 0.814997 0.368442 0.550276
C72   C     C_R   0.761507 0.859259 0.637095 0.543973
C73   C     C_R   0.721697 0.952922 0.163518 0.537946
C74   C     C_R   0.278269 0.952830 0.836490 0.545867
C75   C     C_R   0.221697 0.452924 0.163517 0.537994
C76   C     C_R   0.778268 0.452827 0.836488 0.545947
C77   C     C_R   0.558140 0.181657 0.135516 0.556010
C78   C     C_R   0.442587 0.182045 0.864605 0.556495
C79   C     C_R   0.058105 0.681646 0.135510 0.556504
C80   C     C_R   0.942553 0.682056 0.864599 0.556950
C81   C     C_R   0.735669 0.360200 0.164119 0.548029
C82   C     C_R   0.264265 0.359969 0.835863 0.538797
C83   C     C_R   0.235670 0.860203 0.164120 0.548161
C84   C     C_R   0.764265 0.859968 0.835864 0.540494
C85   C     C_1   0.486348 0.171316 0.594959 -0.022359
C86   C     C_1   0.515127 0.172603 0.405763 -0.019241
C87   C     C_1   0.985773 0.671259 0.594663 -0.024156
C88   C     C_1   0.014317 0.672474 0.405370 -0.018481
C89   C     C_1   0.505375 0.168744 0.465239 -0.069606
C90   C     C_1   0.496815 0.168104 0.535676 -0.070337
C91   C     C_1   0.004231 0.668644 0.464755 -0.064090
C92   C     C_1   0.995814 0.668054 0.535240 -0.067426
C93   C     C_3   0.696371 0.445125 0.522312 0.108663
C94   C     C_3   0.308946 0.408311 0.479582 0.095143
C95   C     C_3   0.206063 0.987069 0.511961 0.107342
C96   C     C_3   0.793032 0.991256 0.486746 0.114901
Cr1   Cr    Cr6+3 0.765830 0.160660 0.268180 1.027794
Cr2   Cr    Cr6+3 0.234170 0.160660 0.731820 1.029302
Cr3   Cr    Cr6+3 0.265830 0.660660 0.268180 1.037897
Cr4   Cr    Cr6+3 0.734170 0.660660 0.731820 1.037995
Cr5   Cr    Cr6+3 0.612110 0.009150 0.248770 1.025375
Cr6   Cr    Cr6+3 0.387890 0.009150 0.751230 1.026218
Cr7   Cr    Cr6+3 0.112110 0.509150 0.248770 1.022141
Cr8   Cr    Cr6+3 0.887890 0.509150 0.751230 1.022054
Cr9   Cr    Cr6+3 0.615930 0.324050 0.248450 1.027125
Cr10  Cr    Cr6+3 0.384070 0.324050 0.751550 1.022575
Cr11  Cr    Cr6+3 0.115930 0.824050 0.248450 1.021190
Cr12  Cr    Cr6+3 0.884070 0.824050 0.751550 1.018957
H1    H     H_    0.670479 0.239337 0.495367 0.100901
H2    H     H_    0.305544 0.214485 0.532057 0.104389
H3    H     H_    0.136652 0.812353 0.486432 0.111814
H4    H     H_    0.866149 0.835278 0.539042 0.123919
H5    H     H_    0.695727 0.568832 0.424109 0.128807
H6    H     H_    0.320376 0.573609 0.558255 0.117499
H7    H     H_    0.252524 0.072124 0.416483 0.116935
H8    H     H_    0.727091 0.091783 0.566773 0.101416
H9    H     H_    0.366746 0.997110 0.514505 0.115185
H10   H     H_    0.631464 0.981260 0.460891 0.131609
H11   H     H_    0.834707 0.579941 0.504383 0.105399
H12   H     H_    0.190404 0.605517 0.466825 0.103092
H13   H     H_    0.860418 0.341813 0.459552 0.158420
H14   H     H_    0.133667 0.416130 0.538408 0.135674
H15   H     H_    0.337547 0.748296 0.479172 0.149006
H16   H     H_    0.665583 0.751497 0.523464 0.168341
H17   H     H_    0.808286 0.246700 0.575866 0.140418
H18   H     H_    0.177518 0.247247 0.439657 0.142099
H19   H     H_    0.250178 0.739029 0.585836 0.125484
H20   H     H_    0.771773 0.725239 0.432180 0.109516
H21   H     H_    0.626617 0.171423 0.010023 0.111590
H22   H     H_    0.374661 0.174717 0.989923 0.111597
H23   H     H_    0.126523 0.674239 0.010034 0.111435
H24   H     H_    0.874586 0.671899 0.989920 0.111465
H25   H     H_    0.539418 0.356746 0.944053 0.143163
H26   H     H_    0.461814 0.358379 0.055684 0.143686
H27   H     H_    0.038072 0.858258 0.944526 0.142953
H28   H     H_    0.960483 0.856884 0.056146 0.143110
H29   H     H_    0.462949 0.990177 0.057580 0.135740
H30   H     H_    0.538260 0.988634 0.942319 0.135298
H31   H     H_    0.964136 0.488695 0.057174 0.135395
H32   H     H_    0.039430 0.490099 0.941922 0.134918
O1    O     O_R   0.783230 0.287800 0.346510 -0.502159
O2    O     O_R   0.216770 0.287800 0.653490 -0.503510
O3    O     O_R   0.283230 0.787800 0.346510 -0.505138
O4    O     O_R   0.716770 0.787800 0.653490 -0.514760
O5    O     O_R   0.554500 0.081650 0.170370 -0.497318
O6    O     O_R   0.445500 0.081650 0.829630 -0.499723
O7    O     O_R   0.054500 0.581650 0.170370 -0.497666
O8    O     O_R   0.945500 0.581650 0.829630 -0.499638
O9    O     O_R   0.545430 0.285140 0.163100 -0.515347
O10   O     O_R   0.454570 0.285140 0.836900 -0.514363
O11   O     O_R   0.045430 0.785140 0.163100 -0.515903
O12   O     O_R   0.954570 0.785140 0.836900 -0.514282
O13   O     O_R   0.677850 0.374730 0.185500 -0.503812
O14   O     O_R   0.322150 0.374730 0.814500 -0.506694
O15   O     O_R   0.177850 0.874730 0.185500 -0.504065
O16   O     O_R   0.822150 0.874730 0.814500 -0.505977
O17   O     O_3   0.664630 0.164620 0.255130 -0.292321
O18   O     O_3   0.335370 0.164620 0.744870 -0.288409
O19   O     O_3   0.164630 0.664620 0.255130 -0.293855
O20   O     O_3   0.835370 0.664620 0.744870 -0.290928
O21   O     O_R   0.760130 0.037060 0.338610 -0.499903
O22   O     O_R   0.239870 0.037060 0.661390 -0.488836
O23   O     O_R   0.260130 0.537060 0.338610 -0.495253
O24   O     O_R   0.739870 0.537060 0.661390 -0.477587
O25   O     O_R   0.666620 0.921370 0.332440 -0.519630
O26   O     O_R   0.333380 0.921370 0.667560 -0.516845
O27   O     O_R   0.166620 0.421370 0.332440 -0.523662
O28   O     O_R   0.833380 0.421370 0.667560 -0.525202
O29   O     O_R   0.557170 0.082420 0.312350 -0.493605
O30   O     O_R   0.442830 0.082420 0.687650 -0.502867
O31   O     O_R   0.057170 0.582420 0.312350 -0.489042
O32   O     O_R   0.942830 0.582420 0.687650 -0.502708
O33   O     O_R   0.548310 0.285980 0.316250 -0.506279
O34   O     O_R   0.451690 0.285980 0.683750 -0.502959
O35   O     O_R   0.048310 0.785980 0.316250 -0.514087
O36   O     O_R   0.951690 0.785980 0.683750 -0.507529
O37   O     O_R   0.680520 0.375500 0.327470 -0.505814
O38   O     O_R   0.319480 0.375500 0.672530 -0.504795
O39   O     O_R   0.180520 0.875500 0.327470 -0.499463
O40   O     O_R   0.819480 0.875500 0.672530 -0.505972
O41   O     O_R   0.780350 0.286970 0.193350 -0.502729
O42   O     O_R   0.219650 0.286970 0.806650 -0.507299
O43   O     O_R   0.280350 0.786970 0.193350 -0.500775
O44   O     O_R   0.719650 0.786970 0.806650 -0.504802
O45   O     O_R   0.757460 0.036290 0.196640 -0.498644
O46   O     O_R   0.242540 0.036290 0.803360 -0.493222
O47   O     O_R   0.257460 0.536290 0.196640 -0.496347
O48   O     O_R   0.742540 0.536290 0.803360 -0.492618
O49   O     O_R   0.663740 0.920540 0.179290 -0.510941
O50   O     O_R   0.336260 0.920540 0.820710 -0.509478
O51   O     O_R   0.163740 0.420540 0.179290 -0.512372
O52   O     O_R   0.836260 0.420540 0.820710 -0.509601
N1    N     N_3   0.633583 0.486339 0.547740 -0.607925
H33   H     H_    0.593188 0.473720 0.507770 0.230134
H34   H     H_    0.624697 0.426783 0.587471 0.243681
N2    N     N_3   0.375761 0.405949 0.455084 -0.611448
H35   H     H_    0.412782 0.393479 0.498222 0.238536
H36   H     H_    0.377430 0.327825 0.424080 0.228341
N3    N     N_3   0.154609 0.077089 0.526468 -0.614240
H37   H     H_    0.117066 0.080142 0.483175 0.217075
H38   H     H_    0.130340 0.042512 0.566750 0.249034
N4    N     N_3   0.843001 0.081328 0.470653 -0.612536
H39   H     H_    0.875398 0.099564 0.516420 0.214677
H40   H     H_    0.873602 0.039123 0.437407 0.237283

loop_
_geom_bond_atom_site_label_1
_geom_bond_atom_site_label_2
_ccdc_geom_bond_type
C58   C62   S    
Cr9   O13   S    
C67   C83   S    
Cr10  O10   S    
C49   H29   S    
C17   C29   S    
Cr8   O8    S    
C7    C27   S    
C35   C39   S    
C35   C36   S    
C8    C96   S    
C81   O41   A    
C44   C80   S    
C19   C31   S    
Cr6   O18   S    
C20   H10   S    
C3    O27   A    
C38   C49   S    
C10   C22   S    
C15   C19   S    
Cr5   O5    S    
N4    H40   S    
C37   C41   S    
C94   N2    S    
C33   C42   S    
C38   H22   S    
Cr3   O3    S    
C16   C20   S    
Cr4   O48   S    
C9    C69   S    
C38   C42   S    
Cr3   O19   S    
C8    H4    S    
C15   C95   S    
C73   O49   A    
C11   C71   S    
C83   O15   A    
Cr1   O45   S    
C69   O1    A    
Cr8   O52   S    
C36   H28   S    
C24   H16   S    
C81   O13   A    
Cr1   O41   S    
Cr12  O40   S    
C53   C61   T    
C80   O12   A    
C12   C24   S    
C26   H18   S    
C71   O39   A    
C49   C50   S    
C95   N3    S    
C25   H17   S    
C7    C11   S    
C9    C13   S    
Cr11  O35   S    
C69   O37   A    
Cr12  O12   S    
C55   C74   S    
C11   C15   S    
C58   C66   T    
Cr9   O17   S    
Cr2   O18   S    
C7    H3    S    
Cr10  O14   S    
C55   C63   T    
C4    O24   A    
Cr5   O29   S    
C18   C30   S    
C23   C27   S    
C2    O26   A    
C40   C44   S    
Cr3   O43   S    
C4    C29   S    
C76   O48   A    
C3    O23   A    
Cr8   O32   S    
C46   C85   S    
C59   C67   T    
C44   C52   S    
C39   C52   S    
C40   H24   S    
Cr5   O17   S    
N3    H37   S    
Cr6   O26   S    
Cr9   O33   S    
C87   C92   T    
Cr2   O2    S    
Cr7   O31   S    
C6    H2    S    
C2    O22   A    
C34   C41   S    
C27   H19   S    
Cr8   O20   S    
Cr4   O44   S    
C16   H8    S    
C28   C32   S    
C41   C49   S    
C73   O45   A    
Cr2   O22   S    
C22   H14   S    
C74   O46   A    
C25   C29   S    
C93   N1    S    
C70   O2    A    
C16   C96   S    
N4    H39   S    
C27   C31   S    
C51   C52   S    
C68   C84   S    
C12   C16   S    
C84   O44   A    
Cr10  O38   S    
N2    H36   S    
Cr4   O4    S    
C35   H27   S    
C91   C92   S    
C29   C93   S    
C19   C23   S    
C70   O38   A    
C23   H15   S    
C54   C62   T    
N1    H34   S    
Cr10  O18   S    
C1    C32   S    
C33   C37   S    
C46   O30   A    
C82   O14   A    
C13   C93   S    
C2    C31   S    
Cr1   O17   S    
Cr2   O42   S    
C3    C30   S    
C75   O51   A    
C5    C9    S    
C76   O52   A    
C45   O33   A    
Cr8   O28   S    
Cr4   O20   S    
C47   O31   A    
Cr12  O16   S    
C88   C91   T    
C36   C40   S    
C8    C12   S    
Cr11  O19   S    
C74   O50   A    
C46   O34   A    
C33   C34   S    
Cr10  O34   S    
C48   C87   S    
C83   O43   A    
Cr4   O24   S    
C78   O10   A    
Cr7   O27   S    
Cr5   O25   S    
C35   C44   S    
Cr1   O1    S    
C42   C50   S    
Cr3   O23   S    
C10   C70   S    
C14   C94   S    
Cr9   O37   S    
C32   C96   S    
C13   H5    S    
C26   C30   S    
Cr1   O21   S    
C10   C14   S    
C8    C28   S    
C5    C25   S    
C53   C76   S    
Cr7   O51   S    
C72   O40   A    
C78   O6    A    
C77   O9    A    
C9    C21   S    
C18   H12   S    
C19   H9    S    
C7    C95   S    
C48   O32   A    
C42   C78   S    
C79   O11   A    
C20   C32   S    
C72   O4    A    
C21   C25   S    
C56   C73   S    
Cr11  O39   S    
C1    O25   A    
C34   C38   S    
C59   C63   S    
C14   C18   S    
C33   H25   S    
C75   O47   A    
C24   C28   S    
C57   C65   T    
N2    H35   S    
C86   C89   T    
C45   O29   A    
C6    C10   S    
C5    C93   S    
C85   C90   T    
C50   H30   S    
C57   C61   S    
Cr12  O20   S    
C40   C51   S    
Cr9   O9    S    
C82   O42   A    
Cr5   O49   S    
C13   C17   S    
C60   C64   S    
C47   C88   S    
C18   C22   S    
C45   C86   S    
Cr3   O47   S    
Cr11  O11   S    
C96   N4    S    
C30   C94   S    
C14   H6    S    
Cr6   O6    S    
C66   C82   S    
C41   C77   S    
C37   C50   S    
C84   O16   A    
Cr7   O19   S    
C56   C64   T    
C6    C26   S    
C77   O5    A    
C39   H23   S    
Cr6   O30   S    
C43   C51   S    
C31   C95   S    
Cr12  O36   S    
C11   C23   S    
Cr6   O50   S    
C37   H21   S    
C79   O7    A    
C15   H7    S    
C21   H13   S    
C12   C72   S    
C17   C21   S    
C17   H11   S    
C47   O35   A    
C1    O21   A    
C54   C75   S    
C52   H32   S    
C4    O28   A    
C80   O8    A    
C60   C68   T    
Cr2   O46   S    
N1    H33   S    
C22   C26   S    
C6    C94   S    
N3    H38   S    
C34   H26   S    
C65   C81   S    
C36   C43   S    
C5    H1    S    
C71   O3    A    
C89   C90   S    
C43   C79   S    
C39   C43   S    
C20   C24   S    
Cr11  O15   S    
C28   H20   S    
Cr7   O7    S    
C48   O36   A    
C51   H31   S    
