data_mof_unit_15919.cif
_audit_creation_date              2013-03-05T15:56:55-0500
_audit_creation_method            fapswitch 2.2
_symmetry_space_group_name_H-M    P1
_symmetry_Int_Tables_number       1
_space_group_crystal_system       triclinic
_cell_length_a                    6.930128
_cell_length_b                    14.538446
_cell_length_c                    16.081252
_cell_angle_alpha                 89.98349
_cell_angle_beta                  89.981884
_cell_angle_gamma                 90.066799
_cell_volume                      1620.2378241

loop_
_atom_site_label
_atom_site_type_symbol
_atom_site_description
_atom_site_fract_x
_atom_site_fract_y
_atom_site_fract_z
_atom_type_partial_charge
O1    O     O_R   0.505680 0.583900 0.413320 -0.599275
O2    O     O_R   0.176010 0.594950 0.586080 -0.585804
O3    O     O_R   0.005680 0.416100 0.586680 -0.603182
C1    C     C_R   0.344910 0.614886 0.616834 1.005072
O4    O     O_R   0.175960 0.594930 0.413930 -0.603751
O5    O     O_R   0.005640 0.416080 0.413300 -0.602742
C2    C     C_R   0.345040 0.616981 0.384960 0.940049
O6    O     O_R   0.505720 0.583920 0.586700 -0.562332
O7    O     O_3   0.339190 0.441320 0.500000 -0.285617
V1    V     V_3+5 0.064350 0.510890 0.500000 1.193232
O8    O     O_R   0.675920 0.405050 0.413920 -0.609075
C3    C     C_R   0.844959 0.382719 0.385016 0.906515
O9    O     O_R   0.675960 0.405070 0.586070 -0.578558
C4    C     C_R   0.844666 0.383091 0.614772 1.048954
V2    V     V_3+5 0.564340 0.489110 0.500000 1.200263
O10   O     O_3   0.839370 0.558680 0.500000 -0.264569
C5    C     C_R   0.972953 0.328578 0.752306 0.225029
C6    C     C_R   0.851565 0.316092 0.683822 -0.250978
C7    C     C_R   0.726128 0.239884 0.685520 -0.270634
H1    H     H_    0.625782 0.229349 0.634726 0.165967
C8    C     C_R   0.737396 0.173046 0.749401 0.380010
C9    C     C_R   0.873558 0.183460 0.815250 -0.369074
C10   C     C_R   0.982532 0.264769 0.816392 0.110429
C11   C     C_3   0.193469 0.281131 0.828496 -0.444629
C12   C     C_3   0.182620 0.350796 0.757878 -0.420583
H2    H     H_    0.225387 0.313067 0.889764 0.187631
H3    H     H_    0.264462 0.329432 0.701607 0.205299
H4    H     H_    0.208279 0.422724 0.778572 0.216444
C13   C     C_R   0.047058 0.224362 0.217829 -0.087462
H5    H     H_    0.187903 0.205751 0.194073 0.121749
C14   C     C_R   0.035898 0.287917 0.283066 -0.135240
H6    H     H_    0.168730 0.316498 0.307376 0.122950
C15   C     C_R   0.856145 0.314282 0.316258 -0.120862
C16   C     C_R   0.687883 0.275228 0.282405 -0.131337
H7    H     H_    0.547036 0.293786 0.306191 0.122710
C17   C     C_R   0.699046 0.211669 0.217170 -0.116201
H8    H     H_    0.566222 0.183048 0.192885 0.129702
C18   C     C_R   0.878781 0.185427 0.183891 -0.120621
C19   C     C_R   0.209577 0.746297 0.699004 -0.075422
H9    H     H_    0.086943 0.748111 0.657296 0.157924
C20   C     C_R   0.219661 0.811240 0.763129 -0.054676
C21   C     C_R   0.379053 0.813763 0.817009 -0.186145
C22   C     C_R   0.526193 0.748569 0.806518 -0.248232
H10   H     H_    0.646940 0.747806 0.849296 0.162583
C23   C     C_R   0.514093 0.680422 0.744572 0.397927
C24   C     C_R   0.356326 0.680611 0.688008 -0.312722
C25   C     C_R   0.208515 0.751022 0.306329 -0.243259
H11   H     H_    0.087478 0.751606 0.348992 0.173244
C26   C     C_R   0.220528 0.819152 0.244360 0.386609
C27   C     C_R   0.378668 0.819208 0.187948 -0.292987
C28   C     C_R   0.525790 0.753758 0.199095 -0.089759
H12   H     H_    0.648683 0.752121 0.157490 0.146334
C29   C     C_R   0.515773 0.688839 0.263261 -0.106397
C30   C     C_R   0.356001 0.686056 0.316964 -0.178148
O11   O     O_R   0.229200 0.915950 0.913350 -0.605214
O12   O     O_R   0.559090 0.905000 0.086080 -0.588578
O13   O     O_R   0.729280 0.083880 0.086680 -0.605631
C31   C     C_R   0.390151 0.884971 0.116799 0.983917
O14   O     O_R   0.558920 0.904980 0.913920 -0.592253
O15   O     O_R   0.729110 0.083860 0.913300 -0.563291
C32   C     C_R   0.389869 0.882769 0.885061 1.020209
O16   O     O_R   0.229360 0.915970 0.086730 -0.573616
O17   O     O_3   0.395680 0.058580 0.000030 -0.271945
V3    V     V_3+5 0.670570 0.989070 0.999990 1.227019
O18   O     O_R   0.058820 0.094950 0.913870 -0.586231
C33   C     C_R   0.889563 0.115285 0.883692 0.982401
O19   O     O_R   0.058990 0.094970 0.086020 -0.590194
C34   C     C_R   0.889947 0.117222 0.114967 0.983117
V4    V     V_3+5 0.170560 0.010930 0.999930 1.224427
O20   O     O_3   0.895590 0.941310 0.999960 -0.278899
H13   H     H_    0.103827 0.860684 0.769638 0.138873
N1    N     N_R   0.656014 0.608476 0.743829 0.228657
O21   O     O_R   0.601035 0.522879 0.742263 -0.439033
O22   O     O_R   0.835356 0.627192 0.760827 -0.432130
N2    N     N_R   0.078054 0.890831 0.243444 0.233465
O23   O     O_R   0.898758 0.871771 0.260268 -0.413516
O24   O     O_R   0.132393 0.976522 0.242037 -0.409886
H14   H     H_    0.631936 0.639600 0.269920 0.122318
N3    N     N_R   0.625847 0.090532 0.740664 0.222772
O25   O     O_R   0.645971 0.040569 0.674143 -0.394776
O26   O     O_R   0.478242 0.075973 0.788813 -0.424700
H15   H     H_    0.282126 0.220102 0.813024 0.246365

loop_
_geom_bond_atom_site_label_1
_geom_bond_atom_site_label_2
_geom_bond_distance
_ccdc_geom_bond_type
C31   O16   1.296140 A    
C20   C21   1.404557 A    
C4    C6    1.477704 S    
C7    H1    1.083730 S    
C1    O6    1.296312 A    
C19   C20   1.400069 A    
C1    C24   1.493282 S    
C29   C30   1.404542 A    
C12   H4    1.111622 S    
O14   V3    2.002124 S    
C5    C10   1.388068 A    
C17   H8    1.082768 S    
C7    C8    1.416080 A    
C11   H2    1.111490 S    
C6    C7    1.407725 A    
O5    C3    1.296640 A    
V2    O10   2.156692 S    
C16   H7    1.082724 S    
C11   H15   1.108127 S    
C9    C33   1.485187 S    
O8    V2    2.002545 S    
C14   H6    1.082737 S    
C13   C18   1.406159 A    
C10   C11   1.493585 S    
O12   V3    2.000891 S    
O1    V2    2.001999 S    
V3    O20   1.707758 S    
O7    V1    2.157614 S    
C19   C24   1.407029 A    
C20   H13   1.083252 S    
O15   C33   1.292380 A    
C8    C9    1.426562 A    
C23   N1    1.436643 S    
C25   C26   1.407230 A    
C15   C16   1.406244 A    
O14   C32   1.300659 A    
O19   C34   1.301679 A    
C27   C31   1.492875 S    
O17   V4    1.706267 S    
C11   C12   1.523364 S    
N1    O22   1.301126 A    
C19   H9    1.083157 S    
N3    O26   1.299848 A    
C27   C28   1.406900 A    
C23   C24   1.422483 A    
C28   H12   1.083162 S    
O16   V4    2.005241 S    
C28   C29   1.399856 A    
O2    C1    1.303196 A    
N2    O23   1.301097 A    
C13   H5    1.082737 S    
C22   C23   1.407620 A    
C25   H11   1.083518 S    
C8    N3    1.433334 S    
C14   C15   1.408709 A    
C5    C6    1.397804 A    
N2    O24   1.301254 A    
C21   C32   1.486694 S    
C26   N2    1.436482 S    
O11   V4    2.003129 S    
O3    C4    1.295305 A    
C25   C30   1.402962 A    
C18   C34   1.489471 S    
C26   C27   1.422462 A    
O6    V2    2.002739 S    
O9    V2    2.002215 S    
C22   H10   1.083501 S    
N3    O25   1.300773 A    
C21   C22   1.403161 A    
O13   C34   1.296475 A    
O2    V1    2.001995 S    
O13   V3    2.002281 S    
O4    C2    1.300578 A    
O1    C2    1.296177 A    
N1    O21   1.301295 A    
O5    V1    2.002394 S    
O8    C3    1.301690 A    
C12   H3    1.112323 S    
O15   V3    2.001109 S    
C5    C12   1.490849 S    
C17   C18   1.408638 A    
C29   H14   1.083209 S    
O7    V2    1.707280 S    
O4    V1    2.000749 S    
C13   C14   1.400352 A    
O3    V1    2.001180 S    
V1    O10   1.707683 S    
O18   V4    2.002247 S    
O11   C32   1.296337 A    
O12   C31   1.303184 A    
C16   C17   1.400371 A    
V4    O20   2.156666 S    
O17   V3    2.157510 S    
O18   C33   1.303794 A    
C9    C10   1.402135 A    
C2    C30   1.486292 S    
O19   V4    2.002451 S    
C3    C15   1.489746 S    
O9    C4    1.297380 A    
