data_mof_unit_63109.cif
_audit_creation_date              2012-12-10T21:33:28-0500
_audit_creation_method            fapswitch 2.2
_symmetry_space_group_name_H-M    P1
_symmetry_Int_Tables_number       1
_space_group_crystal_system       triclinic
_cell_length_a                    14.163943
_cell_length_b                    16.102666
_cell_length_c                    16.968558
_cell_angle_alpha                 87.776091
_cell_angle_beta                  90.117458
_cell_angle_gamma                 92.043992
_cell_volume                      3864.76554735

loop_
_atom_site_label
_atom_site_type_symbol
_atom_type_description
_atom_site_fract_x
_atom_site_fract_y
_atom_site_fract_z
_atom_type_partial_charge
C1    C     C_R   0.501024 0.488911 0.652680 0.872449
C2    C     C_R   0.499560 0.511079 0.347299 0.872382
C3    C     C_R   0.497567 0.400353 0.859842 -0.182426
C4    C     C_R   0.515570 0.598951 0.140163 -0.182567
C5    C     C_R   0.492811 0.405133 0.778099 -0.214115
C6    C     C_R   0.514427 0.594599 0.222015 -0.213949
C7    C     C_R   0.460463 0.764194 0.457646 -0.014892
C8    C     C_R   0.539585 0.235808 0.542320 -0.014749
C9    C     C_R   0.463721 0.851052 0.460882 -0.275156
C10   C     C_R   0.536353 0.148952 0.539062 -0.275170
C11   C     C_R   0.519378 0.890944 0.518553 0.263187
C12   C     C_R   0.480677 0.109060 0.481402 0.263279
C13   C     C_R   0.571380 0.840248 0.572193 -0.153362
C14   C     C_R   0.428625 0.159754 0.427791 -0.153687
C15   C     C_R   0.565007 0.752881 0.565947 -0.050307
C16   C     C_R   0.434969 0.247121 0.434068 -0.050670
C17   C     C_R   0.671020 0.499738 0.500024 0.899630
C18   C     C_R   0.328980 0.500262 0.499976 0.900241
C19   C     C_1   0.772400 0.499319 0.500019 -0.196133
C20   C     C_1   0.227599 0.500680 0.499984 -0.196415
C21   C     C_1   0.857585 0.499398 0.500017 0.002720
C22   C     C_1   0.142414 0.500602 0.499989 0.002775
C23   C     C_1   0.957402 0.499793 0.500008 0.020110
C24   C     C_1   0.042596 0.500207 0.499999 0.020144
C25   C     C_R   0.507712 0.482130 0.737845 -0.040569
C26   C     C_R   0.497245 0.517731 0.261963 -0.040434
C27   C     C_R   0.530859 0.553463 0.779399 -0.214847
C28   C     C_R   0.478202 0.446021 0.219826 -0.214898
C29   C     C_R   0.535921 0.548613 0.860596 -0.148551
C30   C     C_R   0.479144 0.450416 0.138535 -0.149228
C31   C     C_R   0.516685 0.472108 0.901438 0.322754
C32   C     C_R   0.500095 0.526904 0.098177 0.323446
H1    H     H_    0.462980 0.386277 0.249530 0.176950
H2    H     H_    0.544780 0.613226 0.749330 0.177100
H3    H     H_    0.464208 0.393888 0.107547 0.159009
H4    H     H_    0.553465 0.604878 0.891231 0.159453
H5    H     H_    0.483750 0.341217 0.891045 0.147613
H6    H     H_    0.530426 0.658106 0.109298 0.147824
H7    H     H_    0.475997 0.349207 0.746682 0.166271
H8    H     H_    0.528460 0.650760 0.253825 0.166527
H9    H     H_    0.582516 0.265679 0.586581 0.139892
H10   H     H_    0.417551 0.734322 0.413374 0.139948
H11   H     H_    0.577521 0.113658 0.581443 0.205178
H12   H     H_    0.422585 0.886346 0.418479 0.205352
H13   H     H_    0.604074 0.712896 0.605935 0.171798
H14   H     H_    0.395888 0.287114 0.394098 0.172507
N1    N     N_2   0.512903 0.465478 0.984225 -0.201550
N2    N     N_2   0.506050 0.533664 0.015471 -0.201031
N3    N     N_R   0.510540 0.716920 0.509720 -0.091287
N4    N     N_R   0.489460 0.283080 0.490280 -0.091337
N5    N     N_2   0.523786 0.979913 0.524808 -0.117821
N6    N     N_2   0.476267 0.020090 0.475157 -0.117632
O1    O     O_R   0.496230 0.422540 0.612660 -0.621562
O2    O     O_R   0.503770 0.577460 0.387340 -0.621713
O3    O     O_R   0.503000 0.561840 0.618900 -0.620153
O4    O     O_R   0.497000 0.438160 0.381100 -0.620234
O5    O     O_R   0.622900 0.430330 0.496880 -0.594853
O6    O     O_R   0.377100 0.569670 0.503120 -0.594653
O7    O     O_R   0.629670 0.569640 0.503120 -0.596178
O8    O     O_R   0.370330 0.430360 0.496880 -0.595825
Zn1   Zn    Zn3+2 0.495480 0.406980 0.495830 0.953188
Zn2   Zn    Zn3+2 0.504520 0.593020 0.504170 0.953082
C33   C     C_2   0.632603 0.876065 0.634988 0.924023
O9    O     O_2   0.666647 0.830176 0.685842 -0.639032
O10   O     O_R   0.652524 0.961674 0.636345 -0.800614
H15   H     H_    0.694960 0.977517 0.681965 0.346975
C34   C     C_2   0.367378 0.123948 0.364994 0.924051
O11   O     O_2   0.332660 0.169914 0.314550 -0.638521
O12   O     O_R   0.348230 0.038257 0.363147 -0.800752
H16   H     H_    0.305692 0.022442 0.317582 0.347017

loop_
_geom_bond_atom_site_label_1
_geom_bond_atom_site_label_2
_ccdc_geom_bond_type
C17   O5    A    
O6    Zn2   S    
C1    C25   S    
C23   C24   T    
C33   O10   S    
O5    Zn1   S    
C27   C29   A    
C9    C11   A    
C26   C28   A    
N1    N2    D    
C13   C33   S    
C13   C15   A    
C14   C34   S    
C3    C5    A    
C29   C31   A    
C28   C30   A    
C1    O3    A    
C4    C32   A    
O8    Zn1   S    
C2    C26   S    
C2    O4    A    
C3    C31   A    
C30   C32   A    
C32   N2    S    
C29   H4    S    
C7    N3    A    
C6    C26   A    
C10   C12   A    
C30   H3    S    
C17   O7    A    
N4    Zn1   S    
C5    C25   A    
C18   O8    A    
C12   N6    S    
C12   C14   A    
C28   H1    S    
C22   C24   S    
C15   N3    A    
C27   H2    S    
O12   H16   S    
C16   N4    A    
C14   C16   A    
C4    C6    A    
C25   C27   A    
C15   H13   S    
N5    N6    D    
O3    Zn2   S    
C8    N4    A    
C11   C13   A    
C6    H8    S    
C11   N5    S    
C8    H9    S    
C3    H5    S    
C18   C20   S    
C8    C10   A    
O10   H15   S    
C2    O2    A    
C7    H10   S    
C16   H14   S    
C7    C9    A    
C5    H7    S    
C1    O1    A    
O4    Zn1   S    
C17   C19   S    
O7    Zn2   S    
C31   N1    S    
N3    Zn2   S    
O2    Zn2   S    
C19   C21   T    
C10   H11   S    
C4    H6    S    
O1    Zn1   S    
C21   C23   S    
C18   O6    A    
C9    H12   S    
C34   O11   D    
C20   C22   T    
C33   O9    D    
C34   O12   S    
