data_mof_unit_31356.cif
_audit_creation_date              2012-12-11T15:34:15-0500
_audit_creation_method            fapswitch 2.2
_symmetry_space_group_name_H-M    P1
_symmetry_Int_Tables_number       1
_space_group_crystal_system       triclinic
_cell_length_a                    15.059068
_cell_length_b                    15.079074
_cell_length_c                    34.93299
_cell_angle_alpha                 90.513967
_cell_angle_beta                  90.009166
_cell_angle_gamma                 60.043371
_cell_volume                      6872.36034346

loop_
_atom_site_label
_atom_site_type_symbol
_atom_type_description
_atom_site_fract_x
_atom_site_fract_y
_atom_site_fract_z
_atom_type_partial_charge
C1    C     C_R   0.302560 0.608214 0.555751 0.543210
C2    C     C_R   0.657745 0.661514 0.668689 0.033562
C3    C     C_R   0.269873 0.632809 0.266423 -0.114281
C4    C     C_R   0.195929 0.628578 0.289570 0.025353
C5    C     C_R   0.115438 0.621215 0.272755 -0.121239
C6    C     C_R   0.105283 0.624783 0.233096 -0.125869
C7    C     C_R   0.176047 0.634835 0.210067 0.024486
C8    C     C_R   0.203929 0.558385 0.354377 -0.122679
C9    C     C_R   0.227115 0.555299 0.393134 -0.126834
C10   C     C_R   0.236647 0.710396 0.386408 -0.125766
C11   C     C_R   0.214634 0.712712 0.347678 -0.123361
C12   C     C_R   0.202349 0.634482 0.331229 0.029190
C13   C     C_R   0.566010 0.726606 0.649617 -0.124270
C14   C     C_R   0.248179 0.628797 0.409032 0.023492
C15   C     C_R   0.735976 0.025425 0.943306 0.543001
C16   C     C_R   0.745908 0.722907 0.945060 0.545177
C17   C     C_R   0.038206 0.734052 0.948326 0.542254
C18   C     C_R   0.723198 0.038489 0.052905 0.543692
C19   C     C_R   0.733362 0.734454 0.054711 0.543322
C20   C     C_R   0.027556 0.744769 0.057851 0.545971
C21   C     C_R   0.553224 0.707673 0.611444 -0.133333
C22   C     C_R   0.673428 0.674755 0.788045 0.345152
C23   C     C_R   0.665232 0.669314 0.710522 0.344929
C24   C     C_R   0.762302 0.599167 0.849537 -0.123040
C25   C     C_R   0.778719 0.609885 0.888115 -0.131203
C26   C     C_R   0.628014 0.778934 0.889088 -0.132366
C27   C     C_R   0.611462 0.768094 0.850491 -0.124796
C28   C     C_R   0.680931 0.679821 0.829987 0.034347
C29   C     C_R   0.610771 0.588440 0.555204 0.546006
C30   C     C_R   0.714251 0.701616 0.907809 0.022981
C31   C     C_R   0.723228 0.072289 0.905379 0.021641
C32   C     C_R   0.633179 0.101278 0.884527 -0.124680
C33   C     C_R   0.629574 0.121422 0.845588 -0.120058
C34   C     C_R   0.715478 0.113882 0.826877 0.031136
C35   C     C_R   0.802559 0.093265 0.848182 -0.120709
C36   C     C_R   0.806547 0.072363 0.887203 -0.126503
C37   C     C_R   0.747244 0.183945 0.767175 -0.114363
C38   C     C_R   0.740841 0.195167 0.727495 -0.111355
C39   C     C_R   0.703855 0.142860 0.704948 0.026878
C40   C     C_R   0.590444 0.300271 0.553499 0.544152
C41   C     C_R   0.677173 0.076202 0.722678 -0.115349
C42   C     C_R   0.682746 0.065735 0.762307 -0.113387
C43   C     C_R   0.715786 0.121126 0.784887 0.024952
C44   C     C_R   0.592077 0.180243 0.647661 -0.118186
C45   C     C_R   0.564807 0.217498 0.610626 -0.125307
C46   C     C_R   0.723730 0.220010 0.604155 -0.125449
C47   C     C_R   0.751167 0.182354 0.641186 -0.120037
C48   C     C_R   0.683938 0.165549 0.663748 0.032577
C49   C     C_R   0.628606 0.241365 0.589057 0.021475
C50   C     C_R   0.091593 0.697511 0.911222 0.021242
C51   C     C_R   0.300246 0.610250 0.446091 0.543477
C52   C     C_R   0.121781 0.758446 0.891078 -0.125264
C53   C     C_R   0.145310 0.740989 0.852226 -0.120926
C54   C     C_R   0.140198 0.661719 0.832948 0.031077
C55   C     C_R   0.119734 0.594683 0.853706 -0.117607
C56   C     C_R   0.095369 0.612547 0.892621 -0.126125
C57   C     C_R   0.210362 0.561744 0.772167 -0.110064
C58   C     C_R   0.218777 0.557699 0.732314 -0.106969
C59   C     C_R   0.163120 0.646923 0.710582 0.032608
C60   C     C_R   0.096726 0.739510 0.729397 -0.110417
C61   C     C_R   0.089152 0.743667 0.769174 -0.107787
C62   C     C_R   0.607681 0.589529 0.445141 0.542335
C63   C     C_R   0.147142 0.655216 0.790871 0.031159
C64   C     C_R   0.191074 0.723850 0.652058 -0.117193
C65   C     C_R   0.223407 0.715343 0.614169 -0.124938
C66   C     C_R   0.230325 0.551774 0.608392 -0.127265
C67   C     C_R   0.197554 0.560520 0.646302 -0.119904
C68   C     C_R   0.181146 0.644938 0.668885 0.033443
C69   C     C_R   0.247128 0.627416 0.592423 0.021301
C70   C     C_R   0.690792 0.718042 0.090269 0.020532
C71   C     C_R   0.602821 0.798952 0.107464 -0.129428
C72   C     C_R   0.574282 0.789342 0.144567 -0.124482
C73   C     C_R   0.587966 0.302776 0.443793 0.543156
C74   C     C_R   0.633127 0.698685 0.165044 0.031301
C75   C     C_R   0.716583 0.615448 0.146754 -0.120094
C76   C     C_R   0.745017 0.624967 0.109742 -0.126009
C77   C     C_R   0.629471 0.602920 0.222632 -0.120139
C78   C     C_R   0.629431 0.593010 0.262265 -0.118884
C79   C     C_R   0.614974 0.674053 0.286478 0.027458
C80   C     C_R   0.595594 0.766916 0.270424 -0.116415
C81   C     C_R   0.596311 0.776658 0.230739 -0.114046
C82   C     C_R   0.615690 0.693875 0.206479 0.029141
C83   C     C_R   0.546355 0.734191 0.352592 -0.122355
C84   C     C_R   0.632013 0.623385 0.591773 0.022481
C85   C     C_R   0.546446 0.714931 0.391616 -0.126913
C86   C     C_R   0.702307 0.551666 0.383151 -0.125413
C87   C     C_R   0.701673 0.570635 0.344146 -0.122316
C88   C     C_R   0.621825 0.660391 0.328356 0.030225
C89   C     C_R   0.622392 0.621757 0.407013 0.022113
C90   C     C_R   0.700531 0.099845 0.088287 0.021483
C91   C     C_R   0.775748 0.117531 0.104566 -0.127183
C92   C     C_R   0.764524 0.154513 0.141966 -0.124027
C93   C     C_R   0.677891 0.174566 0.163601 0.030727
C94   C     C_R   0.598752 0.165336 0.146205 -0.120678
C95   C     C_R   0.726739 0.563934 0.609868 -0.130723
C96   C     C_R   0.609886 0.128439 0.108800 -0.127582
C97   C     C_R   0.583082 0.262586 0.223437 -0.121496
C98   C     C_R   0.577270 0.268917 0.263212 -0.119211
C99   C     C_R   0.663472 0.205654 0.285386 0.028574
C100  C     C_R   0.756730 0.138876 0.267268 -0.119401
C101  C     C_R   0.762459 0.132084 0.227447 -0.116280
C102  C     C_R   0.675138 0.192621 0.205226 0.029192
C103  C     C_R   0.727091 0.220888 0.349567 -0.122929
C104  C     C_R   0.709963 0.242007 0.388655 -0.127716
C105  C     C_R   0.553892 0.233056 0.384290 -0.125446
C106  C     C_R   0.739466 0.582791 0.647985 -0.123257
C107  C     C_R   0.570822 0.212495 0.345232 -0.122827
C108  C     C_R   0.655193 0.210522 0.327370 0.031129
C109  C     C_R   0.620727 0.252862 0.405989 0.022493
C110  C     C_R   0.083928 0.708395 0.093943 0.007999
C111  C     C_R   0.103304 0.614640 0.109174 -0.133694
C112  C     C_R   0.138439 0.589060 0.146486 -0.139489
C113  C     C_R   0.154483 0.656749 0.169192 0.019878
C114  C     C_R   0.140565 0.748950 0.153398 -0.005227
C115  C     C_R   0.107047 0.772962 0.115638 -0.129303
C116  C     C_R   0.260465 0.635016 0.226805 -0.102755
Cr1   Cr    Cr6+3 0.421670 0.426920 0.499620 1.009811
Cr2   Cr    Cr6+3 0.427030 0.651190 0.500980 1.010178
Cr3   Cr    Cr6+3 0.651280 0.421870 0.499380 1.009887
Cr4   Cr    Cr6+3 0.910810 0.908010 0.001130 1.009827
Cr5   Cr    Cr6+3 0.682800 0.909890 0.998370 1.010146
Cr6   Cr    Cr6+3 0.908370 0.682300 0.002180 1.010001
H1    H     H_    0.789278 0.499115 0.595303 0.129006
H2    H     H_    0.877060 0.050145 0.902497 0.125574
H3    H     H_    0.823299 0.169830 0.652667 0.102656
H4    H     H_    0.760529 0.248244 0.714678 0.112822
H5    H     H_    0.772961 0.227253 0.784140 0.110957
H6    H     H_    0.560850 0.139370 0.829736 0.106525
H7    H     H_    0.650165 0.033629 0.705953 0.112094
H8    H     H_    0.660361 0.014961 0.775421 0.118440
H9    H     H_    0.538195 0.168929 0.664469 0.104021
H10   H     H_    0.491018 0.233151 0.599802 0.127217
H11   H     H_    0.869528 0.087435 0.834228 0.102875
H12   H     H_    0.479471 0.755213 0.598169 0.127586
H13   H     H_    0.774920 0.236873 0.588075 0.124583
H14   H     H_    0.120443 0.824001 0.904618 0.127160
H15   H     H_    0.072570 0.564152 0.907373 0.125578
H16   H     H_    0.188508 0.499561 0.658352 0.104018
H17   H     H_    0.271781 0.485538 0.718652 0.105700
H18   H     H_    0.255540 0.492695 0.788442 0.105447
H19   H     H_    0.163011 0.792296 0.836793 0.108171
H20   H     H_    0.051575 0.809017 0.713376 0.106330
H21   H     H_    0.037936 0.816159 0.783068 0.110576
H22   H     H_    0.179899 0.789455 0.668798 0.105179
H23   H     H_    0.845463 0.548641 0.901819 0.128177
H24   H     H_    0.235610 0.774941 0.602711 0.126890
H25   H     H_    0.115784 0.532820 0.839321 0.108325
H26   H     H_    0.247323 0.483380 0.592254 0.123739
H27   H     H_    0.559090 0.871502 0.093090 0.124274
H28   H     H_    0.812886 0.561071 0.097233 0.127259
H29   H     H_    0.761866 0.513575 0.326041 0.103131
H30   H     H_    0.641902 0.521490 0.274059 0.110222
H31   H     H_    0.642746 0.538569 0.204618 0.105035
H32   H     H_    0.508556 0.854084 0.157785 0.095501
H33   H     H_    0.584146 0.830414 0.288580 0.103499
H34   H     H_    0.811803 0.532432 0.661686 0.131255
H35   H     H_    0.586811 0.847231 0.219153 0.103890
H36   H     H_    0.484194 0.804112 0.341022 0.101347
H37   H     H_    0.483735 0.770396 0.409252 0.121478
H38   H     H_    0.764046 0.544893 0.161879 0.102965
H39   H     H_    0.761848 0.479144 0.394054 0.125571
H40   H     H_    0.846024 0.097230 0.089267 0.125534
H41   H     H_    0.550487 0.115972 0.096958 0.125416
H42   H     H_    0.515662 0.202427 0.328629 0.103031
H43   H     H_    0.505209 0.322914 0.276714 0.109851
H44   H     H_    0.515202 0.310998 0.206912 0.104452
H45   H     H_    0.502011 0.788672 0.664689 0.130683
H46   H     H_    0.825683 0.162877 0.154584 0.105292
H47   H     H_    0.824069 0.089597 0.283910 0.099427
H48   H     H_    0.834011 0.076282 0.214127 0.104971
H49   H     H_    0.792898 0.219249 0.336291 0.099922
H50   H     H_    0.763024 0.256586 0.404674 0.122676
H51   H     H_    0.531379 0.179675 0.162340 0.101747
H52   H     H_    0.484838 0.240213 0.396857 0.127083
H53   H     H_    0.086814 0.563108 0.092910 0.127445
H54   H     H_    0.092032 0.845805 0.104254 0.132014
H55   H     H_    0.211680 0.773051 0.330148 0.108924
H56   H     H_    0.816173 0.529391 0.834675 0.130258
H57   H     H_    0.333727 0.636350 0.279093 0.114175
H58   H     H_    0.316352 0.641357 0.209288 0.117607
H59   H     H_    0.149171 0.518132 0.158250 0.108316
H60   H     H_    0.058247 0.617327 0.290331 0.107637
H61   H     H_    0.039532 0.624855 0.220472 0.110346
H62   H     H_    0.193864 0.497867 0.342008 0.102766
H63   H     H_    0.235026 0.491838 0.409995 0.121582
H64   H     H_    0.252003 0.768362 0.397860 0.127764
H65   H     H_    0.576630 0.850370 0.903574 0.126986
H66   H     H_    0.547319 0.831109 0.836325 0.129438
H67   H     H_    0.567460 0.102577 0.897725 0.127458
N1    N     N_R   0.750328 0.597697 0.767653 -0.237978
N2    N     N_R   0.746155 0.594862 0.729692 -0.238135
N3    N     N_R   0.588294 0.746591 0.730888 -0.240154
N4    N     N_R   0.592598 0.749573 0.768899 -0.240271
O1    O     O_R   0.502070 0.323090 0.541280 -0.520444
O2    O     O_R   0.520720 0.641670 0.461580 -0.502190
O3    O     O_R   0.674120 0.502090 0.457500 -0.521043
O4    O     O_R   0.640110 0.338380 0.459630 -0.503944
O5    O     O_3   0.499990 0.499990 0.499990 -0.234784
O6    O     O_R   0.017640 0.822070 0.960410 -0.521219
O7    O     O_R   0.822000 0.989470 0.960340 -0.502785
O8    O     O_R   0.666920 0.007430 0.955290 -0.520595
O9    O     O_R   0.694410 0.812480 0.959650 -0.502628
O10   O     O_R   0.831550 0.656950 0.958960 -0.521226
O11   O     O_R   0.998590 0.685540 0.963930 -0.502790
O12   O     O_R   0.338340 0.520690 0.539540 -0.502698
O13   O     O_R   0.008220 0.831200 0.045060 -0.521092
O14   O     O_R   0.813270 0.997930 0.038810 -0.502630
O15   O     O_R   0.657500 0.016560 0.039940 -0.521064
O16   O     O_R   0.685680 0.820940 0.038120 -0.502469
O17   O     O_R   0.822130 0.666070 0.043610 -0.519614
O18   O     O_R   0.989860 0.694000 0.042400 -0.501404
O19   O     O_3   0.833990 0.833400 0.000560 -0.234632
O20   O     O_R   0.324760 0.674070 0.543580 -0.520822
O21   O     O_R   0.522400 0.640310 0.540110 -0.502730
O22   O     O_R   0.675940 0.500630 0.542210 -0.519369
O23   O     O_R   0.641790 0.337020 0.538150 -0.501989
O24   O     O_R   0.500260 0.324550 0.456580 -0.520026
O25   O     O_R   0.336660 0.522040 0.461020 -0.502511
O26   O     O_R   0.322940 0.675540 0.458880 -0.521145
C117  C     C_R   0.150995 0.825920 0.176530 0.026787
C118  C     C_R   0.083523 0.876868 0.207177 -0.084113
C119  C     C_R   0.094347 0.948745 0.229191 -0.118293
C120  C     C_R   0.172248 0.970374 0.220699 -0.104579
C121  C     C_R   0.239117 0.920544 0.190051 -0.111207
C122  C     C_R   0.228315 0.848860 0.167874 -0.107704
H68   H     H_    0.022826 0.860792 0.213995 0.112269
H69   H     H_    0.042360 0.987646 0.252830 0.096933
H70   H     H_    0.180687 0.025868 0.237821 0.100809
H71   H     H_    0.299387 0.937382 0.183501 0.100182
H72   H     H_    0.280784 0.810399 0.144292 0.106707

loop_
_geom_bond_atom_site_label_1
_geom_bond_atom_site_label_2
_ccdc_geom_bond_type
C75   H38   S    
C58   H17   S    
C41   H7    S    
C55   C56   A    
Cr2   O21   S    
C75   C76   A    
Cr3   O22   S    
N1    N2    A    
C56   H15   S    
Cr3   O5    S    
C41   C42   A    
C21   H12   S    
Cr3   O23   S    
C120  C121  A    
C100  C101  A    
C20   O13   A    
C87   C88   A    
C121  C122  A    
C35   H11   S    
C23   N2    A    
C97   C98   A    
C29   O21   A    
C78   H30   S    
C104  C109  A    
C39   C41   A    
C40   O1    A    
C77   C78   A    
C52   C53   A    
C44   H9    S    
C99   C108  S    
C105  C107  A    
C46   C49   A    
C26   C27   A    
C101  C102  A    
C111  H53   S    
C64   C68   A    
C36   H2    S    
C37   C38   A    
Cr5   O9    S    
Cr3   O3    S    
Cr1   O12   S    
C3    C116  A    
C31   C36   A    
C14   C51   S    
C5    C6    A    
C13   H45   S    
C66   C69   A    
C54   C63   S    
C112  H59   S    
C16   C30   S    
C40   C49   S    
C19   O17   A    
C62   C89   S    
Cr4   O6    S    
C15   C31   S    
C18   O15   A    
C34   C35   A    
Cr5   O19   S    
Cr6   O11   S    
C61   C63   A    
C2    C13   A    
C3    H57   S    
C110  C111  A    
C112  C113  A    
C77   C82   A    
Cr1   O1    S    
C103  C104  A    
C77   H31   S    
C46   H13   S    
C46   C47   A    
C61   H21   S    
C99   C100  A    
C8    C9    A    
C67   H16   S    
C73   O4    A    
C32   H67   S    
C50   C52   A    
C107  C108  A    
Cr6   O17   S    
C91   H40   S    
Cr1   O24   S    
C103  C108  A    
C11   H55   S    
Cr5   O16   S    
C22   N1    A    
C16   O10   A    
C1    O12   A    
C66   H26   S    
C97   C102  A    
C104  H50   S    
C60   H20   S    
C8    H62   S    
C66   C67   A    
C59   C60   A    
C87   H29   S    
C103  H49   S    
C10   H64   S    
C62   O2    A    
C74   C82   S    
C16   O9    A    
C79   C88   S    
C38   H4    S    
C114  C115  A    
C57   C58   A    
C51   O25   A    
C38   C39   A    
C47   H3    S    
C81   H35   S    
C74   C75   A    
C13   C21   A    
C67   C68   A    
C18   C90   S    
C101  H48   S    
C72   H32   S    
C24   C25   A    
C29   C84   S    
C72   C74   A    
C10   C14   A    
C91   C92   A    
C85   C89   A    
C78   C79   A    
C80   C81   A    
C64   H22   S    
C51   O26   A    
C58   C59   A    
C53   C54   A    
C118  H68   S    
C20   O18   A    
C33   H6    S    
C1    C69   S    
C57   H18   S    
C18   O14   A    
C35   C36   A    
C7    C116  A    
C37   C43   A    
C17   O11   A    
C94   C96   A    
C9    C14   A    
C115  H54   S    
C117  C118  A    
C95   C106  A    
C59   C68   S    
C118  C119  A    
C26   H65   S    
C92   H46   S    
C55   H25   S    
C47   C48   A    
C21   C84   A    
C45   C49   A    
C8    C12   A    
C40   O23   A    
C33   C34   A    
C73   O24   A    
Cr1   O25   S    
C22   N4    A    
C86   H39   S    
C73   C109  S    
Cr2   O2    S    
C70   C71   A    
C20   C110  S    
C62   O3    A    
C83   C85   A    
C26   C30   A    
C106  H34   S    
C105  H52   S    
C116  H58   S    
C24   H56   S    
C52   H14   S    
Cr6   O19   S    
Cr6   O10   S    
C4    C12   S    
C42   C43   A    
C70   C76   A    
C3    C4    A    
Cr2   O5    S    
C5    H60   S    
C2    C23   S    
C44   C45   A    
C86   C87   A    
C80   H33   S    
C113  C114  A    
C95   H1    S    
C25   C30   A    
C105  C109  A    
C54   C55   A    
C15   O8    A    
C111  C112  A    
C19   O16   A    
C100  H47   S    
Cr3   O4    S    
Cr4   O14   S    
C31   C32   A    
C34   C43   S    
C24   C28   A    
C57   C63   A    
C114  C117  S    
C4    C5    A    
C86   C89   A    
C93   C102  S    
C25   H23   S    
C11   C12   A    
C90   C96   A    
C6    C7    A    
C17   C50   S    
C93   C94   A    
C9    H63   S    
C122  H72   S    
C42   H8    S    
C96   H41   S    
C6    H61   S    
Cr4   O13   S    
C32   C33   A    
C7    C113  S    
Cr5   O8    S    
C71   C72   A    
C121  H71   S    
N3    N4    A    
C1    O20   A    
C15   O7    A    
C120  H70   S    
C90   C91   A    
C71   H27   S    
C83   H36   S    
C119  H69   S    
C65   C69   A    
C64   C65   A    
C92   C93   A    
Cr4   O7    S    
C2    C106  A    
C117  C122  A    
C83   C88   A    
Cr2   O20   S    
C53   H19   S    
C27   H66   S    
C119  C120  A    
C23   N3    A    
C50   C56   A    
C98   H43   S    
C29   O22   A    
C10   C11   A    
C94   H51   S    
C79   C80   A    
C44   C48   A    
Cr4   O19   S    
C76   H28   S    
C107  H42   S    
C45   H10   S    
C81   C82   A    
C98   C99   A    
Cr2   O26   S    
Cr6   O18   S    
C60   C61   A    
C19   C70   S    
C22   C28   S    
C85   H37   S    
Cr5   O15   S    
C37   H5    S    
C65   H24   S    
C17   O6    A    
C110  C115  A    
C84   C95   A    
Cr1   O5    S    
C97   H44   S    
C39   C48   S    
C27   C28   A    
