data_mof_unit_57200.cif
_audit_creation_date              2012-12-10T17:51:33-0500
_audit_creation_method            fapswitch 2.2
_symmetry_space_group_name_H-M    P1
_symmetry_Int_Tables_number       1
_space_group_crystal_system       triclinic
_cell_length_a                    9.924371
_cell_length_b                    10.617612
_cell_length_c                    16.620708
_cell_angle_alpha                 94.187288
_cell_angle_beta                  85.624292
_cell_angle_gamma                 89.934221
_cell_volume                      1741.56986755

loop_
_atom_site_label
_atom_site_type_symbol
_atom_type_description
_atom_site_fract_x
_atom_site_fract_y
_atom_site_fract_z
_atom_type_partial_charge
C1    C     C_R   0.501079 0.737859 0.488128 0.907454
C2    C     C_R   0.533468 0.495492 0.257951 -0.108596
C3    C     C_R   0.272324 0.859792 0.413032 -0.182833
C4    C     C_R   0.481947 0.487334 0.652004 0.945086
C5    C     C_R   0.163380 0.921663 0.386194 -0.192753
C6    C     C_R   0.169673 0.049711 0.375756 0.011391
C7    C     C_R   0.289348 0.114845 0.390533 0.087659
C8    C     C_R   0.389578 0.059122 0.433225 0.062820
C9    C     C_R   0.385790 0.927185 0.439232 0.074184
C10   C     C_R   0.503527 0.866267 0.461109 -0.173706
C11   C     C_R   0.627268 0.930085 0.451830 0.008963
C12   C     C_R   0.351292 0.459453 0.781862 -0.191353
C13   C     C_R   0.627008 0.060383 0.457767 -0.197214
C14   C     C_R   0.504520 0.125505 0.459602 -0.123156
C15   C     C_R   0.847716 0.692648 0.589283 0.205104
C16   C     C_R   0.501393 0.259885 0.486708 0.901390
C17   C     C_R   0.900826 0.814331 0.588648 0.126093
C18   C     C_R   0.039770 0.827325 0.574220 -0.279218
C19   C     C_R   0.121643 0.719000 0.568004 0.185782
C20   C     C_R   0.066020 0.601336 0.539123 0.076660
C21   C     C_R   0.921499 0.595845 0.542932 0.050258
C22   C     C_R   0.933613 0.405552 0.461226 -0.072070
C23   C     C_R   0.436905 0.487258 0.128709 -0.179248
C24   C     C_R   0.076278 0.404427 0.462660 -0.062376
C25   C     C_R   0.518874 0.504535 0.346539 0.856784
C26   C     C_R   0.471247 0.438518 0.732367 -0.127968
C27   C     C_R   0.572874 0.359333 0.757256 -0.037591
C28   C     C_R   0.557307 0.312864 0.833287 -0.182726
C29   C     C_R   0.443901 0.346321 0.885723 0.105481
C30   C     C_R   0.337228 0.414609 0.858500 0.190267
C31   C     C_1   0.694922 0.324966 0.707332 0.289951
C32   C     C_1   0.752161 0.863803 0.427604 0.228858
C33   C     C_1   0.062012 0.106395 0.336743 0.186014
C34   C     C_R   0.425755 0.522610 0.211051 -0.005076
C35   C     C_1   0.300667 0.580958 0.245255 0.236814
C36   C     C_R   0.654147 0.442950 0.219682 -0.200393
C37   C     C_R   0.664397 0.407280 0.137472 0.197759
C38   C     C_R   0.553161 0.424761 0.092511 0.107574
C39   C     C_2   0.451588 0.336271 0.972230 -0.177938
C40   C     C_2   0.559588 0.384972 0.006608 -0.171900
H1    H     H_    0.268190 0.758571 0.405869 0.193140
H2    H     H_    0.269551 0.514100 0.762179 0.203538
H3    H     H_    0.360961 0.314208 0.009270 0.196510
H4    H     H_    0.637917 0.257268 0.854049 0.175794
H5    H     H_    0.080810 0.866457 0.364555 0.189629
H6    H     H_    0.721935 0.110222 0.461460 0.176304
H7    H     H_    0.884100 0.328639 0.429251 0.146159
H8    H     H_    0.083272 0.919253 0.587897 0.210082
H9    H     H_    0.133586 0.326725 0.432075 0.155337
H10   H     H_    0.738527 0.422106 0.254310 0.190395
H11   H     H_    0.649619 0.409820 0.969880 0.190748
H12   H     H_    0.353778 0.507256 0.092745 0.175479
I1    I     I_    0.845643 0.316962 0.086998 -0.268247
I2    I     I_    0.353835 0.233253 0.298905 -0.350839
I3    I     I_    0.790479 0.654269 0.711050 -0.237452
I4    I     I_    0.787413 0.973718 0.639704 -0.317903
I5    I     I_    0.246751 0.745566 0.666085 -0.267780
I6    I     I_    0.159393 0.466854 0.932669 -0.287626
N1    N     N_R   0.857140 0.501200 0.500750 -0.106886
N2    N     N_R   0.142740 0.501280 0.500770 -0.108111
N3    N     N_1   0.793017 0.298486 0.667470 -0.143454
N4    N     N_1   0.850258 0.808073 0.406903 -0.221792
N5    N     N_1   0.975662 0.151336 0.305275 -0.176475
N6    N     N_1   0.199653 0.626852 0.271966 -0.195332
O1    O     O_R   0.385310 0.683220 0.500000 -0.621475
O2    O     O_R   0.614640 0.683250 0.500010 -0.604231
O3    O     O_R   0.371780 0.500010 0.615800 -0.587681
O4    O     O_R   0.601110 0.500030 0.615800 -0.593653
O5    O     O_R   0.385360 0.316750 0.499990 -0.610201
O6    O     O_R   0.614690 0.316780 0.500000 -0.624333
O7    O     O_R   0.398890 0.499970 0.384200 -0.607003
O8    O     O_R   0.628220 0.499990 0.384200 -0.621209
Zn1   Zn    Zn3+2 0.346870 0.499980 0.499990 0.985220
Zn2   Zn    Zn3+2 0.653130 0.500020 0.500010 0.987119

loop_
_geom_bond_atom_site_label_1
_geom_bond_atom_site_label_2
_ccdc_geom_bond_type
O6    Zn2   S    
C4    O3    A    
C4    C26   S    
O5    Zn1   S    
C29   C30   A    
C25   O7    A    
C20   N2    A    
C23   C38   A    
C9    C10   A    
C31   N3    T    
C1    O1    A    
C19   C20   A    
C17   I4    S    
C6    C33   S    
C24   N2    A    
C33   N5    T    
C23   C34   A    
C37   I1    S    
C2    C34   A    
C17   C18   A    
C26   C27   A    
C32   N4    T    
C7    C8    A    
C21   N1    A    
C13   C14   A    
C19   I5    S    
C38   C40   S    
C3    C9    A    
C11   C13   A    
N1    Zn2   S    
C29   C39   S    
C23   H12   S    
C35   N6    T    
C15   C21   A    
C5    H5    S    
O3    Zn1   S    
N2    Zn1   S    
C30   I6    S    
C22   C24   A    
C36   C37   A    
C37   C38   A    
O2    Zn2   S    
C11   C32   S    
C1    O2    A    
C6    C7    A    
C14   C16   S    
C4    O4    A    
C39   H3    S    
C5    C6    A    
C22   H7    S    
C10   C11   A    
C1    C10   S    
C39   C40   D    
O4    Zn2   S    
O7    Zn1   S    
C40   H11   S    
C3    C5    A    
C2    C25   S    
C22   N1    A    
C16   O6    A    
C20   C21   A    
O8    Zn2   S    
C34   C35   S    
O1    Zn1   S    
C2    C36   A    
C24   H9    S    
C25   O8    A    
C18   C19   A    
C13   H6    S    
C28   C29   A    
C12   H2    S    
C8    C14   A    
C7    I2    S    
C12   C30   A    
C15   C17   A    
C27   C31   S    
C18   H8    S    
C28   H4    S    
C3    H1    S    
C16   O5    A    
C36   H10   S    
C12   C26   A    
C8    C9    A    
C27   C28   A    
C15   I3    S    
