data_mof_unit_5183.cif
_audit_creation_date              2012-10-26T19:36:45-0400
_audit_creation_method            fapswitch 2.2
_symmetry_space_group_name_H-M    P1
_symmetry_Int_Tables_number       1
_space_group_crystal_system       triclinic
_cell_length_a                    17.60742
_cell_length_b                    16.403986
_cell_length_c                    11.450133
_cell_angle_alpha                 89.969173
_cell_angle_beta                  91.228
_cell_angle_gamma                 89.579726
_cell_volume                      3306.31403339

loop_
_atom_site_label
_atom_site_type_symbol
_atom_type_description
_atom_site_fract_x
_atom_site_fract_y
_atom_site_fract_z
_atom_type_partial_charge
C1    C     C_R   0.353622 0.499971 0.503602 0.599787
C2    C     C_1   0.032214 0.509594 0.610671 0.190562
C3    C     C_R   0.160798 0.570971 0.610521 0.208920
C4    C     C_R   0.141613 0.438511 0.522866 0.211688
C5    C     C_R   0.231084 0.574521 0.554541 0.233227
C6    C     C_R   0.221521 0.428713 0.516684 0.205859
C7    C     C_R   0.268278 0.500414 0.522576 -0.061088
C8    C     C_R   0.499984 0.499562 0.258367 0.607228
C9    C     C_R   0.112598 0.505215 0.585436 -0.075975
C10   C     C_R   0.543863 0.837004 0.541706 -0.030875
C11   C     C_R   0.536062 0.156867 0.543549 -0.065976
C12   C     C_3   0.591235 0.523020 0.932866 0.269210
C13   C     C_R   0.525393 0.757702 0.580952 0.433248
C14   C     C_R   0.543066 0.241449 0.563476 0.409627
C15   C     C_R   0.457064 0.733042 0.410016 0.138952
C16   C     C_R   0.448097 0.267320 0.421564 0.145878
C17   C     C_R   0.454315 0.817680 0.384857 -0.068806
C18   C     C_R   0.440772 0.182248 0.398841 -0.079830
C19   C     C_R   0.499756 0.871480 0.450294 -0.000508
C20   C     C_R   0.486691 0.125702 0.459767 -0.029359
C21   C     C_1   0.491047 0.961223 0.440866 0.044334
C22   C     C_1   0.485826 0.036117 0.443060 0.035120
C23   C     C_R   0.843524 0.587480 0.590175 0.192348
C24   C     C_R   0.646675 0.500741 0.499973 0.638000
C25   C     C_R   0.503892 0.499834 0.740540 0.634045
C26   C     C_3   0.450122 0.566805 0.062131 0.035379
C27   C     C_3   0.467493 0.416809 0.061563 0.036764
C28   C     C_3   0.447090 0.562658 0.925028 -0.119716
C29   C     C_3   0.482014 0.413520 0.926877 -0.127428
C30   C     C_3   0.593350 0.503712 0.073880 0.295974
C31   C     C_3   0.505816 0.498000 0.120391 -0.114666
C32   C     C_3   0.506555 0.499419 0.877659 -0.186699
C33   C     C_2   0.365646 0.556059 0.875308 0.646646
C34   C     C_R   0.842699 0.441440 0.617151 0.202397
C35   C     C_2   0.414934 0.371908 0.863166 0.658115
C36   C     C_R   0.769558 0.585194 0.535809 0.189385
C37   C     C_R   0.775460 0.433621 0.549465 0.233565
C38   C     C_R   0.732708 0.506082 0.518478 -0.055066
C39   C     C_R   0.881460 0.514677 0.618266 -0.068656
C40   C     C_1   0.964024 0.511921 0.621160 0.201496
Cu1   Cu    Cu3+1 0.499980 0.580420 0.499990 1.232052
Cu2   Cu    Cu3+1 0.499980 0.419580 0.499990 1.226521
H1    H     H_    0.572343 0.878324 0.601928 0.156705
H2    H     H_    0.530855 0.373397 0.911949 0.250016
H3    H     H_    0.413622 0.789611 0.032774 0.377530
H4    H     H_    0.469199 0.191000 0.051241 0.377855
H5    H     H_    0.197965 0.781477 0.442436 0.380417
H6    H     H_    0.214233 0.205057 0.529460 0.378768
H7    H     H_    0.379532 0.855596 0.752567 0.389805
H8    H     H_    0.694449 0.182014 0.754038 0.385321
H9    H     H_    0.252746 0.554599 0.903914 0.390161
H10   H     H_    0.301523 0.358530 0.841638 0.380131
H11   H     H_    0.683681 0.703939 0.163314 0.397622
H12   H     H_    0.569982 0.113867 0.594751 0.166276
H13   H     H_    0.682735 0.414312 0.292170 0.393831
H14   H     H_    0.660488 0.639180 0.725274 0.389944
H15   H     H_    0.780964 0.522914 0.837341 0.370257
H16   H     H_    0.866761 0.803516 0.683798 0.385573
H17   H     H_    0.818209 0.272891 0.821748 0.384047
H18   H     H_    0.784349 0.790920 0.413197 0.379422
H19   H     H_    0.804876 0.311416 0.289112 0.400962
H20   H     H_    0.196614 0.732935 0.823056 0.386174
H21   H     H_    0.086595 0.293941 0.291821 0.388137
H22   H     H_    0.422309 0.692350 0.360390 0.229110
H23   H     H_    0.413714 0.309437 0.372060 0.228504
H24   H     H_    0.416604 0.840393 0.316142 0.154021
H25   H     H_    0.400077 0.161482 0.333406 0.169617
H26   H     H_    0.394455 0.546727 0.093466 0.184816
H27   H     H_    0.405600 0.426466 0.068759 0.180526
H28   H     H_    0.464978 0.620888 0.891100 0.263814
N1    N     N_R   0.499970 0.701220 0.499970 -0.247932
N2    N     N_R   0.499970 0.298780 0.499970 -0.244474
O1    O     O_R   0.391240 0.567930 0.499990 -0.466308
O2    O     O_2   0.500256 0.702157 0.184426 -0.220173
O3    O     O_3   0.422997 0.735592 0.997017 -0.431338
O4    O     O_2   0.522712 0.296160 0.217167 -0.194928
O5    O     O_2   0.386974 0.298425 0.166544 -0.292397
O6    O     O_3   0.480461 0.244516 0.015679 -0.431476
O7    O     O_2   0.314645 0.711096 0.563114 -0.191783
O8    O     O_2   0.284367 0.653050 0.370254 -0.267868
O9    O     O_3   0.178617 0.730310 0.476387 -0.422961
O10   O     O_2   0.279842 0.309895 0.386285 -0.254230
O11   O     O_2   0.324317 0.315136 0.591952 -0.268670
O12   O     O_R   0.391240 0.432070 0.499990 -0.488700
O13   O     O_3   0.191963 0.258929 0.548523 -0.422503
O14   O     O_2   0.424875 0.699335 0.733761 -0.195014
O15   O     O_2   0.520901 0.796920 0.807042 -0.193085
O16   O     O_3   0.408867 0.850360 0.680077 -0.518108
O17   O     O_2   0.642068 0.344341 0.662674 -0.144984
O18   O     O_2   0.570886 0.254964 0.790975 -0.236589
O19   O     O_3   0.680391 0.193371 0.671376 -0.474280
O20   O     O_2   0.354383 0.550449 0.769998 -0.467827
O21   O     O_R   0.302920 0.559738 0.948306 -0.605761
O22   O     O_2   0.427115 0.316066 0.795293 -0.384163
O23   O     O_R   0.499970 0.567910 0.317690 -0.461116
O24   O     O_R   0.339717 0.391779 0.888507 -0.657712
O25   O     O_2   0.652231 0.551653 0.280161 -0.288690
O26   O     O_2   0.735413 0.566837 0.120235 -0.144615
O27   O     O_3   0.634490 0.675942 0.151019 -0.371662
O28   O     O_2   0.617982 0.331114 0.054231 -0.163840
O29   O     O_2   0.728414 0.411877 0.092707 -0.141818
O30   O     O_3   0.636613 0.390320 0.257288 -0.426649
O31   O     O_2   0.567904 0.691515 0.958819 -0.139456
O32   O     O_2   0.697190 0.649406 0.931624 -0.187309
O33   O     O_3   0.609154 0.649864 0.754877 -0.457999
O34   O     O_R   0.499970 0.432090 0.317690 -0.460082
O35   O     O_2   0.667910 0.380261 0.868994 -0.135684
O36   O     O_2   0.662447 0.491998 0.732754 -0.378273
O37   O     O_3   0.754653 0.502264 0.906862 -0.363899
O38   O     O_2   0.940308 0.661094 0.740760 -0.199518
O39   O     O_2   0.940917 0.706181 0.537115 -0.177800
O40   O     O_3   0.833077 0.756082 0.671246 -0.415328
O41   O     O_2   0.933295 0.312997 0.669640 -0.168892
O42   O     O_2   0.903867 0.406960 0.827874 -0.225709
O43   O     O_3   0.798599 0.307832 0.757128 -0.394058
O44   O     O_2   0.670685 0.678508 0.391019 -0.206987
O45   O     O_R   0.608730 0.567880 0.500000 -0.442602
O46   O     O_2   0.702342 0.731475 0.581234 -0.269947
O47   O     O_3   0.803554 0.734231 0.421040 -0.419039
O48   O     O_2   0.816644 0.273776 0.518366 -0.136655
O49   O     O_2   0.691546 0.310763 0.444479 -0.217331
O50   O     O_3   0.809079 0.362680 0.334407 -0.482024
O51   O     O_2   0.083630 0.708670 0.657339 -0.143617
O52   O     O_2   0.096799 0.607700 0.814290 -0.234269
O53   O     O_3   0.214708 0.693866 0.763706 -0.439165
O54   O     O_2   0.047295 0.310165 0.516593 -0.161885
O55   O     O_2   0.013835 0.425483 0.389878 -0.238114
O56   O     O_R   0.608730 0.432120 0.500000 -0.427268
O57   O     O_3   0.124105 0.331472 0.327958 -0.413922
O58   O     O_R   0.500000 0.567910 0.682300 -0.425262
O59   O     O_R   0.500000 0.432090 0.682300 -0.457960
O60   O     O_2   0.363929 0.674812 0.177548 -0.260895
S1    S     S_3+6 0.436097 0.671265 0.110358 0.059224
S2    S     S_3+6 0.668675 0.470859 0.858693 0.109787
S3    S     S_3+6 0.891228 0.679145 0.634742 0.130301
S4    S     S_3+6 0.872413 0.365934 0.720043 0.133295
S5    S     S_3+6 0.732556 0.682248 0.481908 0.099437
S6    S     S_3+6 0.770600 0.341793 0.464151 0.123384
S7    S     S_3+6 0.135979 0.646847 0.713509 0.116800
S8    S     S_3+6 0.078610 0.375271 0.439549 0.127755
S9    S     S_3+6 0.465356 0.313293 0.121865 0.059354
S10   S     S_3+6 0.255146 0.668970 0.490141 0.102751
S11   S     S_3+6 0.257609 0.327059 0.509694 0.070331
S12   S     S_3+6 0.470312 0.773003 0.706032 0.104017
S13   S     S_3+6 0.609079 0.262261 0.675628 0.135159
S14   S     S_3+6 0.654151 0.576008 0.155952 0.162938
S15   S     S_3+6 0.644649 0.406894 0.114452 0.151658
S16   S     S_3+6 0.616221 0.630487 0.898054 0.125370

loop_
_geom_bond_atom_site_label_1
_geom_bond_atom_site_label_2
_ccdc_geom_bond_type
C27   C29   S    
C34   C37   A    
Cu1   Cu2   S    
O32   S16   D    
O52   S7    D    
C16   N2    A    
O13   S11   S    
O14   S12   D    
C30   S15   S    
C35   O24   S    
O53   S7    S    
C1    O12   A    
O17   S13   D    
C14   S13   S    
O54   S8    D    
C24   O45   A    
H16   O40   S    
C19   C21   S    
O35   S2    D    
Cu1   O58   S    
C11   C14   A    
O7    S10   D    
O43   S4    S    
O28   S15   D    
O2    S1    D    
O51   S7    D    
H18   O47   S    
O25   S14   D    
C13   S12   S    
C27   S9    S    
H15   O37   S    
O60   S1    D    
O41   S4    D    
C24   C38   S    
C15   H22   S    
Cu2   O59   S    
O15   S12   D    
O46   S5    D    
C36   S5    S    
C27   H27   S    
Cu2   O56   S    
Cu1   N1    S    
O4    S9    D    
C25   C32   S    
H21   O57   S    
O37   S2    S    
C26   C31   S    
C12   S2    S    
C21   C22   T    
C12   C32   S    
H7    O16   S    
O38   S3    D    
C8    O23   A    
C25   O58   A    
O31   S16   D    
C30   S14   S    
C11   C20   A    
C27   C31   S    
C34   C39   A    
O47   S5    S    
C28   C32   S    
Cu2   O12   S    
O50   S6    S    
C4    C6    A    
O6    S9    S    
C39   C40   S    
H4    O6    S    
O26   S14   D    
C18   H25   S    
O33   S16   S    
H11   O27   S    
C8    O34   A    
H19   O50   S    
O49   S6    D    
O36   S2    D    
C37   C38   A    
C3    C9    A    
O30   S15   S    
C4    S8    S    
H13   O30   S    
C34   S4    S    
C10   C19   A    
Cu2   N2    S    
C17   H24   S    
Cu2   O34   S    
C11   H12   S    
H9    O21   S    
H17   O43   S    
O9    S10   S    
O27   S14   S    
C20   C22   S    
C28   C33   S    
O8    S10   D    
C37   S6    S    
C29   H2    S    
C33   O20   D    
O48   S6    D    
O55   S8    D    
O40   S3    S    
C25   O59   A    
O19   S13   S    
C15   N1    A    
C5    C7    A    
O44   S5    D    
C35   O22   D    
C15   C17   A    
O29   S15   D    
C12   C30   S    
C10   H1    S    
C1    C7    S    
C8    C31   S    
C14   N2    A    
C28   H28   S    
O10   S11   D    
C3    C5    A    
C10   C13   A    
C33   O21   S    
H20   O53   S    
O3    S1    S    
C6    C7    A    
C29   C32   S    
C13   N1    A    
C29   C35   S    
C26   C28   S    
C23   S3    S    
H3    O3    S    
C1    O1    A    
C12   S16   S    
C36   C38   A    
C6    S11   S    
C26   H26   S    
C26   S1    S    
O11   S11   D    
C30   C31   S    
O39   S3    D    
C5    S10   S    
Cu1   O23   S    
O57   S8    S    
C23   C39   A    
C17   C19   A    
H10   O24   S    
C18   C20   A    
H5    O9    S    
O5    S9    D    
H14   O33   S    
Cu1   O1    S    
C2    C40   T    
H8    O19   S    
C3    S7    S    
C16   C18   A    
C23   C36   A    
O18   S13   D    
C24   O56   A    
O42   S4    D    
H6    O13   S    
C16   H23   S    
Cu1   O45   S    
C4    C9    A    
C2    C9    S    
O16   S12   S    
