data_mof_unit_21196.cif
_audit_creation_date              2012-12-10T17:51:26-0500
_audit_creation_method            fapswitch 2.2
_symmetry_space_group_name_H-M    P1
_symmetry_Int_Tables_number       1
_space_group_crystal_system       triclinic
_cell_length_a                    9.915909
_cell_length_b                    10.7315
_cell_length_c                    16.691409
_cell_angle_alpha                 92.304502
_cell_angle_beta                  85.979921
_cell_angle_gamma                 92.207917
_cell_volume                      1769.23630793

loop_
_atom_site_label
_atom_site_type_symbol
_atom_type_description
_atom_site_fract_x
_atom_site_fract_y
_atom_site_fract_z
_atom_type_partial_charge
C1    C     C_R   0.502999 0.738791 0.494006 0.860235
C2    C     C_R   0.528012 0.548507 0.264781 -0.029741
C3    C     C_R   0.312604 0.859465 0.399023 -0.146962
C4    C     C_R   0.482170 0.504082 0.653364 0.854883
C5    C     C_R   0.193630 0.910928 0.378705 -0.152893
C6    C     C_R   0.160207 0.028522 0.409589 -0.112535
C7    C     C_R   0.251160 0.098480 0.454869 -0.165436
C8    C     C_R   0.379654 0.052812 0.468770 0.084566
C9    C     C_R   0.401147 0.926737 0.449451 0.103248
C10   C     C_R   0.508115 0.870245 0.483809 -0.108733
C11   C     C_R   0.608692 0.940561 0.520741 -0.221433
C12   C     C_R   0.348257 0.557839 0.780065 -0.207063
C13   C     C_R   0.600839 0.067585 0.527114 -0.207947
C14   C     C_R   0.487827 0.125011 0.501713 -0.125705
C15   C     C_R   0.853372 0.662666 0.606138 -0.160728
C16   C     C_R   0.496232 0.259370 0.501249 0.892813
C17   C     C_R   0.919464 0.742066 0.660298 0.212705
C18   C     C_R   0.059471 0.740660 0.660958 -0.213224
C19   C     C_R   0.133071 0.661182 0.608113 -0.178155
C20   C     C_R   0.069090 0.579076 0.553395 0.102796
C21   C     C_R   0.924681 0.579534 0.552885 0.091994
C22   C     C_R   0.930110 0.426490 0.448083 -0.105083
C23   C     C_R   0.427499 0.660279 0.162590 -0.157170
C24   C     C_R   0.072519 0.426430 0.447092 0.421807
C25   C     C_R   0.518080 0.506416 0.347020 0.857168
C26   C     C_R   0.473471 0.531949 0.739663 -0.039037
C27   C     C_R   0.592241 0.546941 0.780358 -0.214504
C28   C     C_R   0.586271 0.588571 0.860126 -0.142144
C29   C     C_R   0.461117 0.616754 0.900228 0.205315
C30   C     C_R   0.342347 0.599972 0.859878 -0.179365
C31   C     C_3   0.841454 0.828923 0.717391 -0.944657
C32   C     C_R   0.416089 0.604276 0.236029 -0.208316
C33   C     C_R   0.652292 0.550858 0.219124 -0.193163
C34   C     C_R   0.662496 0.603787 0.144020 -0.169655
C35   C     C_R   0.549068 0.655573 0.114610 0.206277
C36   C     C_2   0.448218 0.645500 0.986764 -0.226374
C37   C     C_2   0.553054 0.683127 0.029364 -0.239407
H1    H     H_    0.690157 0.527580 0.750504 0.165597
H2    H     H_    0.746541 0.668910 0.606585 0.204896
H3    H     H_    0.319800 0.606932 0.270807 0.162816
H4    H     H_    0.112314 0.802101 0.702360 0.157000
H5    H     H_    0.239767 0.667568 0.611867 0.213295
H6    H     H_    0.740762 0.511046 0.241104 0.156215
H7    H     H_    0.649868 0.710639 0.999757 0.144417
H8    H     H_    0.244702 0.618463 0.890447 0.126002
H9    H     H_    0.339740 0.703435 0.142222 0.129255
H10   H     H_    0.255104 0.547539 0.749865 0.160024
H11   H     H_    0.352231 0.617250 0.017287 0.149989
H12   H     H_    0.756988 0.599333 0.107431 0.125180
H13   H     H_    0.679499 0.594491 0.890144 0.123662
H14   H     H_    0.730944 0.819774 0.710109 0.238844
H15   H     H_    0.859301 0.807487 0.780235 0.245550
H16   H     H_    0.875493 0.926876 0.706270 0.248360
H17   H     H_    0.232230 0.349145 0.399800 0.385149
H18   H     H_    0.691722 0.897220 0.546566 0.171614
H19   H     H_    0.334474 0.766685 0.375483 0.150109
H20   H     H_    0.124976 0.857564 0.341770 0.138351
H21   H     H_    0.063462 0.065709 0.398689 0.161224
H22   H     H_    0.213295 0.183060 0.482677 0.186400
H23   H     H_    0.682240 0.120904 0.554036 0.170248
H24   H     H_    0.877669 0.366514 0.405815 0.168723
N1    N     N_R   0.857140 0.501200 0.500750 -0.151904
N2    N     N_R   0.142740 0.501280 0.500770 -0.174443
O1    O     O_R   0.385310 0.683220 0.500000 -0.638330
O2    O     O_R   0.614640 0.683250 0.500010 -0.635066
O3    O     O_R   0.371780 0.500010 0.615800 -0.634338
O4    O     O_R   0.601110 0.500030 0.615800 -0.633869
O5    O     O_R   0.385360 0.316750 0.499990 -0.653453
O6    O     O_R   0.614690 0.316780 0.500000 -0.609322
O7    O     O_R   0.398890 0.499970 0.384200 -0.635633
O8    O     O_R   0.628220 0.499990 0.384200 -0.612902
O9    O     O_3   0.136372 0.350378 0.389389 -0.801737
Zn1   Zn    Zn3+2 0.346870 0.499980 0.499990 0.921301
Zn2   Zn    Zn3+2 0.653130 0.500020 0.500010 0.932401

loop_
_geom_bond_atom_site_label_1
_geom_bond_atom_site_label_2
_ccdc_geom_bond_type
C17   C18   A    
C4    O4    A    
C4    C26   S    
O1    Zn1   S    
C1    O1    A    
C6    C7    A    
C25   O8    A    
O8    Zn2   S    
C9    C10   A    
C6    H21   S    
C30   H8    S    
C1    O2    A    
C19   C20   A    
C19   H5    S    
C5    H20   S    
C31   H15   S    
C34   C35   A    
C23   C32   A    
C20   N2    A    
C33   C34   A    
C26   C27   A    
H17   O9    S    
O6    Zn2   S    
C13   H23   S    
C13   C14   A    
C31   H16   S    
C22   H24   S    
C4    O3    A    
C11   C13   A    
C29   C36   S    
C15   H2    S    
C21   N1    A    
C29   C30   A    
O7    Zn1   S    
C12   H10   S    
C3    C9    A    
C5    C6    A    
C2    C33   A    
C7    H22   S    
C28   C29   A    
C35   C37   S    
C23   H9    S    
C36   H11   S    
C2    C25   S    
O4    Zn2   S    
C32   H3    S    
C16   O5    A    
C17   C31   S    
C23   C35   A    
C14   C16   S    
C24   N2    A    
C18   H4    S    
C22   N1    A    
C10   C11   A    
C16   O6    A    
C27   H1    S    
C33   H6    S    
C37   H7    S    
C15   C21   A    
C11   H18   S    
C20   C21   A    
C24   O9    S    
C2    C32   A    
C7    C8    A    
C3    H19   S    
C22   C24   A    
C12   C26   A    
C27   C28   A    
C15   C17   A    
C18   C19   A    
C36   C37   D    
C34   H12   S    
C8    C14   A    
C25   O7    A    
N2    Zn1   S    
C12   C30   A    
O5    Zn1   S    
O3    Zn1   S    
C28   H13   S    
C1    C10   S    
N1    Zn2   S    
O2    Zn2   S    
C31   H14   S    
C8    C9    A    
C3    C5    A    
