data_mof_unit_51772.cif
_audit_creation_date              2012-12-10T16:57:02-0500
_audit_creation_method            fapswitch 2.2
_symmetry_space_group_name_H-M    P1
_symmetry_Int_Tables_number       1
_space_group_crystal_system       triclinic
_cell_length_a                    7.848976
_cell_length_b                    8.546181
_cell_length_c                    16.37012
_cell_angle_alpha                 92.515896
_cell_angle_beta                  79.493111
_cell_angle_gamma                 93.37285
_cell_volume                      1077.19011089

loop_
_atom_site_label
_atom_site_type_symbol
_atom_type_description
_atom_site_fract_x
_atom_site_fract_y
_atom_site_fract_z
_atom_type_partial_charge
C1    C     C_R   0.545247 0.794376 0.499014 0.967249
C2    C     C_R   0.394943 0.645594 0.244364 -0.263808
C3    C     C_R   0.598895 0.500840 0.866694 0.205178
C4    C     C_R   0.399922 0.746200 0.179771 0.213439
C5    C     C_R   0.507043 0.627593 0.906903 0.044735
C6    C     C_R   0.555804 0.769226 0.123481 -0.010680
C7    C     C_R   0.400889 0.709384 0.864531 0.200995
C8    C     C_R   0.712548 0.728201 0.144520 0.234812
C9    C     C_R   0.352968 0.637606 0.792232 0.126750
C10   C     C_R   0.709616 0.634467 0.213966 0.132177
C11   C     C_2   0.494477 0.649334 0.996979 -0.142029
C12   C     C_R   0.454230 0.205562 0.502266 0.967064
C13   C     C_2   0.550303 0.779100 0.034574 -0.192976
C14   C     C_3   0.918388 0.433688 0.201089 -0.801052
C15   C     C_3   0.056101 0.740188 0.827588 -0.806757
C16   C     C_3   0.274537 0.931942 0.951804 -0.834454
C17   C     C_3   0.893564 0.947331 0.078781 -0.857173
C18   C     C_3   0.170267 0.913792 0.244657 -0.816152
C19   C     C_3   0.640839 0.272072 0.940059 -0.814490
C20   C     C_3   0.990737 0.194353 0.431052 -0.688387
C21   C     C_3   0.983954 0.739391 0.625769 -0.686691
C22   C     C_2   0.567960 0.957770 0.501111 -0.393692
C23   C     C_2   0.429774 0.042037 0.502905 -0.393995
C24   C     C_R   0.475582 0.503699 0.655798 0.881892
C25   C     C_R   0.526729 0.513415 0.345099 0.880350
C26   C     C_R   0.465476 0.528587 0.746165 -0.189859
C27   C     C_R   0.546947 0.588564 0.263599 -0.191364
C28   C     C_R   0.589477 0.462603 0.783854 -0.322517
H1    H     H_    0.674184 0.376717 0.750000 0.170539
H2    H     H_    0.052721 0.415676 0.209842 0.229334
H3    H     H_    0.136111 0.561868 0.744448 0.246753
H4    H     H_    0.044735 0.694804 0.891011 0.264806
H5    H     H_    0.927812 0.717648 0.808698 0.228734
H6    H     H_    0.083117 0.868630 0.826461 0.260627
H7    H     H_    0.388159 0.937892 0.826044 0.231855
H8    H     H_    0.177134 0.006396 0.933985 0.236258
H9    H     H_    0.351318 0.007642 0.989923 0.240925
H10   H     H_    0.206711 0.833573 0.988634 0.265161
H11   H     H_    0.982951 0.726721 0.100199 0.264917
H12   H     H_    0.269355 0.616699 0.281593 0.184070
H13   H     H_    0.016067 0.997514 0.095636 0.244569
H14   H     H_    0.786567 0.014444 0.115456 0.244604
H15   H     H_    0.897323 0.965393 0.011849 0.247023
H16   H     H_    0.263700 0.889113 0.119487 0.229644
H17   H     H_    0.054359 0.970356 0.232310 0.247203
H18   H     H_    0.264665 0.006816 0.260901 0.235802
H19   H     H_    0.126273 0.838073 0.298549 0.237818
H20   H     H_    0.834202 0.410980 0.871401 0.227103
H21   H     H_    0.732352 0.222828 0.975266 0.236421
H22   H     H_    0.620284 0.187796 0.888638 0.247145
H23   H     H_    0.610455 0.878290 0.999041 0.188377
H24   H     H_    0.515516 0.287060 0.983007 0.242366
H25   H     H_    0.055635 0.392015 0.361733 0.205049
H26   H     H_    0.876979 0.167140 0.400444 0.227412
H27   H     H_    0.960299 0.165534 0.497848 0.229800
H28   H     H_    0.097200 0.120725 0.400119 0.203195
H29   H     H_    0.041123 0.770519 0.499351 0.206040
H30   H     H_    0.119364 0.765536 0.634870 0.258880
H31   H     H_    0.918534 0.647767 0.668293 0.236435
H32   H     H_    0.911713 0.848081 0.639683 0.201826
H33   H     H_    0.449037 0.547270 0.033831 0.157583
H34   H     H_    0.697685 0.007942 0.501836 0.171927
H35   H     H_    0.299059 0.991473 0.503531 0.173155
H36   H     H_    0.893566 0.618766 0.290462 0.248499
H37   H     H_    0.914645 0.419998 0.133589 0.248190
H38   H     H_    0.829076 0.343233 0.235308 0.244199
N1    N     N_2   0.953500 0.457650 0.478520 0.027649
N2    N     N_2   0.982936 0.688104 0.541162 -0.192921
N3    N     N_2   0.046500 0.542350 0.521480 0.032685
N4    N     N_2   0.870182 0.589146 0.231735 -0.296565
N5    N     N_2   0.188848 0.662261 0.769261 -0.305615
N6    N     N_2   0.387702 0.874716 0.878391 -0.303770
N7    N     N_2   0.872113 0.780298 0.094123 -0.289832
N8    N     N_2   0.248107 0.823528 0.171578 -0.296773
N9    N     N_2   0.712461 0.421083 0.907174 -0.293888
N10   N     N_2   0.046661 0.357188 0.421888 -0.184228
O1    O     O_R   0.388470 0.738640 0.505270 -0.624533
O2    O     O_R   0.611530 0.261360 0.494730 -0.613567
O3    O     O_R   0.679650 0.711510 0.491500 -0.617239
O4    O     O_R   0.320350 0.288490 0.508500 -0.598604
O5    O     O_R   0.337210 0.515200 0.623500 -0.621115
O6    O     O_R   0.662790 0.484800 0.376500 -0.620321
O7    O     O_R   0.628380 0.488060 0.609730 -0.595643
O8    O     O_R   0.371620 0.511940 0.390270 -0.619941
Zn1   Zn    Zn3+2 0.305580 0.518120 0.509190 0.950059
Zn2   Zn    Zn3+2 0.694420 0.481880 0.490810 0.951358

loop_
_geom_bond_atom_site_label_1
_geom_bond_atom_site_label_2
_ccdc_geom_bond_type
C10   C27   A    
C1    O1    A    
C16   N6    S    
C20   H28   S    
C18   H19   S    
C15   H4    S    
C12   C23   S    
C3    C28   A    
C24   O7    A    
C24   C26   S    
C21   H31   S    
C20   N10   S    
C17   H14   S    
C13   H23   S    
C19   H24   S    
N2    N3    S    
C12   O2    A    
C25   O8    A    
C2    C27   A    
H36   N4    S    
C3    N9    S    
C15   H6    S    
C4    N8    S    
C16   H9    S    
O2    Zn2   S    
C23   H35   S    
O1    Zn1   S    
C1    C22   S    
C18   N8    S    
C17   N7    S    
C14   N4    S    
H20   N9    S    
C14   H2    S    
C20   H27   S    
C18   H18   S    
C9    C26   A    
O8    Zn1   S    
C21   H32   S    
C20   H26   S    
C7    N6    S    
C5    C7    A    
C6    C8    A    
C3    C5    A    
O6    Zn2   S    
N1    N3    D    
C2    C4    A    
C24   O5    A    
C17   H15   S    
O4    Zn1   S    
C22   H34   S    
C19   H21   S    
C14   H38   S    
H16   N8    S    
C10   N4    S    
C4    C6    A    
H7    N6    S    
C21   N2    S    
C25   O6    A    
C1    O3    A    
H25   N10   S    
H29   N2    S    
C18   H17   S    
N3    Zn1   S    
C7    C9    A    
C28   H1    S    
N1    Zn2   S    
C9    N5    S    
C11   H33   S    
C5    C11   S    
C25   C27   S    
C15   N5    S    
C26   C28   A    
C19   N9    S    
C21   H30   S    
C16   H8    S    
C6    C13   S    
C11   C13   D    
C19   H22   S    
C12   O4    A    
H3    N5    S    
C8    N7    S    
C14   H37   S    
H11   N7    S    
C17   H13   S    
C2    H12   S    
O7    Zn2   S    
C8    C10   A    
C22   C23   D    
N1    N10   S    
C15   H5    S    
O3    Zn2   S    
O5    Zn1   S    
C16   H10   S    
