data_mof_unit_55548.cif
_audit_creation_date              2012-12-10T18:11:44-0500
_audit_creation_method            fapswitch 2.2
_symmetry_space_group_name_H-M    P1
_symmetry_Int_Tables_number       1
_space_group_crystal_system       triclinic
_cell_length_a                    10.573008
_cell_length_b                    12.718573
_cell_length_c                    13.158579
_cell_angle_alpha                 82.200061
_cell_angle_beta                  93.014589
_cell_angle_gamma                 103.859322
_cell_volume                      1701.70027514

loop_
_atom_site_label
_atom_site_type_symbol
_atom_type_description
_atom_site_fract_x
_atom_site_fract_y
_atom_site_fract_z
_atom_type_partial_charge
C1    C     C_R   0.474508 0.439401 0.690323 0.875083
C2    C     C_3   0.050401 0.548801 0.403793 -0.177148
C3    C     C_3   0.993251 0.606979 0.479494 -0.157978
C4    C     C_3   0.879899 0.506413 0.496885 0.018275
C5    C     C_R   0.419409 0.710296 0.062041 -0.222180
C6    C     C_R   0.501040 0.596934 0.199485 -0.035758
C7    C     C_R   0.439789 0.293575 0.838832 -0.268470
C8    C     C_R   0.437174 0.263671 0.944786 0.071413
C9    C     C_R   0.454143 0.345055 0.008903 -0.240290
C10   C     C_R   0.447795 0.452713 0.969259 0.062109
C11   C     C_R   0.422492 0.475618 0.864001 0.086909
C12   C     C_R   0.743064 0.502575 0.499037 0.864992
C13   C     C_R   0.458539 0.536113 0.031995 0.058551
C14   C     C_R   0.418360 0.633514 0.994334 0.108343
C15   C     C_R   0.374859 0.649605 0.891303 -0.061354
C16   C     C_R   0.377064 0.569985 0.827744 -0.255016
C17   C     C_R   0.510737 0.525192 0.131428 -0.288781
C18   C     C_R   0.457911 0.691310 0.164366 -0.210310
C19   C     C_R   0.442558 0.401997 0.798274 -0.121389
C20   C     C_R   0.302759 0.077613 0.357993 -0.325886
C21   C     C_R   0.659648 0.806351 0.630275 0.134405
C22   C     C_R   0.699910 0.914389 0.649838 -0.297686
C23   C     C_R   0.512948 0.560815 0.308675 0.849824
C24   C     C_R   0.643967 0.993194 0.597045 -0.221133
C25   C     C_R   0.545332 0.965363 0.523393 0.040906
C26   C     C_R   0.509616 0.854625 0.501526 0.222741
C27   C     C_R   0.479008 0.042980 0.472520 -0.009096
C28   C     C_R   0.376554 0.006966 0.402926 0.172698
C29   C     C_R   0.345910 0.899833 0.379945 -0.304915
C30   C     C_R   0.414140 0.825709 0.426442 -0.213059
C31   C     C_R   0.507098 0.154378 0.489828 -0.099905
C32   C     C_R   0.328350 0.183859 0.382086 0.116681
C33   C     C_R   0.257269 0.498678 0.497303 0.832332
C34   C     C_3   0.951069 0.454352 0.586799 -0.214123
C35   C     C_3   0.066658 0.554948 0.569608 -0.172291
C36   C     C_3   0.120974 0.496631 0.494132 0.051655
C37   C     C_3   0.007696 0.396272 0.511120 -0.130656
C38   C     C_3   0.934273 0.448439 0.420772 -0.133857
H1    H     H_    0.555693 0.458528 0.158922 0.143068
H2    H     H_    0.439904 0.232602 0.788774 0.153891
H3    H     H_    0.459287 0.319739 0.089945 0.125025
H4    H     H_    0.342313 0.582557 0.749253 0.175646
H5    H     H_    0.906918 0.415876 0.661534 0.131838
H6    H     H_    0.773137 0.937207 0.708838 0.149318
H7    H     H_    0.388958 0.745720 0.403360 0.207446
H8    H     H_    0.873233 0.407519 0.359778 0.129934
H9    H     H_    0.448955 0.747971 0.216473 0.146089
H10   H     H_    0.384957 0.782628 0.037497 0.163905
N1    N     N_R   0.432930 0.222190 0.444670 -0.118563
N2    N     N_R   0.566370 0.776980 0.554790 -0.144694
O1    O     O_R   0.467970 0.366730 0.627150 -0.619479
O2    O     O_R   0.510820 0.544830 0.662520 -0.603858
O3    O     O_R   0.664630 0.410960 0.482340 -0.624399
O4    O     O_R   0.707470 0.589060 0.517710 -0.622720
O5    O     O_R   0.489180 0.455170 0.337480 -0.623359
O6    O     O_R   0.532030 0.633270 0.372850 -0.636923
O7    O     O_R   0.292530 0.410940 0.482290 -0.611609
O8    O     O_R   0.335370 0.589040 0.517660 -0.648003
Zn1   Zn    Zn3+2 0.471390 0.381080 0.476380 0.931653
Zn2   Zn    Zn3+2 0.528610 0.618920 0.523620 0.929438
H11   H     H_    0.128576 0.598537 0.628559 0.131545
C39   C     C_R   0.402691 0.147955 0.989900 0.111644
C40   C     C_R   0.286218 0.079628 0.958334 -0.147837
C41   C     C_R   0.238838 0.976710 0.013040 -0.110701
C42   C     C_R   0.307451 0.941267 0.099251 -0.153911
C43   C     C_R   0.426526 0.006393 0.128240 -0.127302
C44   C     C_R   0.473594 0.109865 0.074484 -0.167206
H12   H     H_    0.229111 0.107844 0.894206 0.124243
H13   H     H_    0.147784 0.925245 0.989654 0.134162
H14   H     H_    0.269062 0.862433 0.142646 0.115555
H15   H     H_    0.481231 0.977689 0.193545 0.145091
H16   H     H_    0.563353 0.161285 0.100336 0.121971
C45   C     C_R   0.233509 0.247549 0.340756 0.175711
C46   C     C_R   0.260915 0.321697 0.251664 -0.095452
C47   C     C_R   0.163399 0.365662 0.199050 -0.158919
C48   C     C_R   0.035173 0.330743 0.232230 -0.127107
C49   C     C_R   0.005253 0.252969 0.318610 -0.145498
C50   C     C_R   0.104070 0.212621 0.373495 -0.184737
H17   H     H_    0.356444 0.341012 0.220740 0.134464
H18   H     H_    0.186419 0.423599 0.130534 0.143302
H19   H     H_    0.958784 0.362627 0.190226 0.118590
H20   H     H_    0.905414 0.223732 0.343104 0.129310
H21   H     H_    0.078928 0.150505 0.438872 0.119711
H22   H     H_    0.267903 0.872840 0.325854 0.150960
H23   H     H_    0.221973 0.049176 0.306333 0.159427
H24   H     H_    0.585210 0.188933 0.539893 0.136536
C51   C     C_R   0.714471 0.727503 0.701545 0.170455
C52   C     C_R   0.675501 0.706034 0.803965 -0.149595
C53   C     C_R   0.733312 0.640938 0.877030 -0.132806
C54   C     C_R   0.832587 0.597202 0.848580 -0.128579
C55   C     C_R   0.878512 0.624445 0.748957 -0.173808
C56   C     C_R   0.824463 0.693861 0.677103 -0.113454
H25   H     H_    0.603967 0.743624 0.827754 0.135495
H26   H     H_    0.702943 0.626035 0.955835 0.144795
H27   H     H_    0.877075 0.545632 0.904399 0.125073
H28   H     H_    0.957993 0.593463 0.729027 0.127849
H29   H     H_    0.868750 0.722083 0.603225 0.126125
H30   H     H_    0.678024 0.074406 0.617788 0.137144
H31   H     H_    0.016481 0.310381 0.525931 0.137669
H32   H     H_    0.095025 0.585997 0.328901 0.124237
H33   H     H_    0.985463 0.693223 0.465654 0.130273
C57   C     C_R   0.337759 0.751783 0.843608 0.115468
C58   C     C_R   0.423811 0.855333 0.844015 -0.157057
C59   C     C_R   0.392537 0.948014 0.788861 -0.093388
C60   C     C_R   0.274629 0.938953 0.733935 -0.122116
C61   C     C_R   0.187454 0.837222 0.734739 -0.132088
C62   C     C_R   0.219073 0.744381 0.789342 -0.152307
H34   H     H_    0.515667 0.864953 0.886089 0.120723
H35   H     H_    0.459898 0.026920 0.788678 0.123509
H36   H     H_    0.250700 0.010772 0.691125 0.122347
H37   H     H_    0.095941 0.830213 0.692393 0.129801
H38   H     H_    0.152243 0.665865 0.789497 0.111402

loop_
_geom_bond_atom_site_label_1
_geom_bond_atom_site_label_2
_ccdc_geom_bond_type
C60   H36   S    
C21   C51   S    
C33   O8    A    
O5    Zn1   S    
C34   C37   S    
C62   H38   S    
C30   H7    S    
C35   C36   S    
C51   C52   A    
C18   H9    S    
O3    Zn1   S    
C7    C8    A    
O4    Zn2   S    
C49   C50   A    
C11   C19   A    
C39   C40   A    
C39   C44   A    
C24   H30   S    
C28   C29   A    
C34   C35   S    
C26   N2    A    
C17   H1    S    
C59   H35   S    
O7    Zn1   S    
C61   C62   A    
O8    Zn2   S    
C15   C16   A    
C33   C36   S    
C44   H16   S    
C45   C46   A    
C53   H26   S    
C21   N2    A    
O2    Zn2   S    
C55   H28   S    
C52   H25   S    
C50   H21   S    
C22   H6    S    
C8    C9    A    
C45   C50   A    
C58   H34   S    
C4    C12   S    
C29   C30   A    
C47   H18   S    
C12   O3    A    
C3    H33   S    
C43   C44   A    
C2    H32   S    
C31   H24   S    
C21   C22   A    
C31   N1    A    
C59   C60   A    
C20   C32   A    
C56   H29   S    
C61   H37   S    
C6    C18   A    
C5    H10   S    
C4    C34   S    
C1    C19   S    
C46   C47   A    
C27   C31   A    
C23   O6    A    
C48   C49   A    
C29   H22   S    
C55   C56   A    
C5    C18   A    
C20   C28   A    
C25   C26   A    
O6    Zn2   S    
C47   C48   A    
C37   C38   S    
C11   C16   A    
C2    C38   S    
C43   H15   S    
C3    C35   S    
C7    H2    S    
C20   H23   S    
C57   C62   A    
C35   H11   S    
C41   H13   S    
C24   C25   A    
C1    O1    A    
C5    C14   A    
C4    C38   S    
C26   C30   A    
C7    C19   A    
C46   H17   S    
C22   C24   A    
O1    Zn1   S    
C3    C4    S    
C16   H4    S    
C37   H31   S    
C51   C56   A    
C9    C10   A    
C2    C36   S    
C6    C17   A    
C40   H12   S    
C36   C37   S    
C33   O7    A    
C34   H5    S    
C10   C13   A    
C54   H27   S    
C48   H19   S    
C23   O5    A    
C25   C27   A    
C60   C61   A    
C9    H3    S    
N1    Zn1   S    
C13   C17   A    
N2    Zn2   S    
C41   C42   A    
C2    C3    S    
C54   C55   A    
C49   H20   S    
C6    C23   S    
C15   C57   S    
C57   C58   A    
C1    O2    A    
C32   N1    A    
C38   H8    S    
C10   C11   A    
C40   C41   A    
C52   C53   A    
C42   C43   A    
C58   C59   A    
C14   C15   A    
C53   C54   A    
C13   C14   A    
C32   C45   S    
C12   O4    A    
C42   H14   S    
C8    C39   S    
C27   C28   A    
