data_mof_unit_11941.cif
_audit_creation_date              2013-03-05T15:54:38-0500
_audit_creation_method            fapswitch 2.2
_symmetry_space_group_name_H-M    P1
_symmetry_Int_Tables_number       1
_space_group_crystal_system       triclinic
_cell_length_a                    17.550295
_cell_length_b                    24.225135
_cell_length_c                    15.084092
_cell_angle_alpha                 89.802655
_cell_angle_beta                  126.011198
_cell_angle_gamma                 90.340359
_cell_volume                      5187.49987478

loop_
_atom_site_label
_atom_site_type_symbol
_atom_site_description
_atom_site_fract_x
_atom_site_fract_y
_atom_site_fract_z
_atom_type_partial_charge
C1    C     C_R   0.849850 0.652741 0.908592 -0.144037
C2    C     C_R   0.188481 0.628042 0.093658 -0.109547
C3    C     C_R   0.311762 0.128041 0.905656 -0.116763
C4    C     C_R   0.687631 0.129241 0.094204 -0.081394
H1    H     H_    0.807411 0.667515 0.824946 0.120733
H2    H     H_    0.246016 0.632059 0.178233 0.113926
H3    H     H_    0.253870 0.131303 0.820740 0.113566
H4    H     H_    0.744793 0.133573 0.178915 0.129743
N1    N     N_R   0.892620 0.603790 0.941770 -0.045369
N2    N     N_R   0.107380 0.603790 0.058230 -0.049224
N3    N     N_R   0.392620 0.103790 0.941770 -0.051198
N4    N     N_R   0.607380 0.103790 0.058230 -0.056607
C5    C     C_R   0.947251 0.348369 0.093555 -0.042789
C6    C     C_R   0.054517 0.349013 0.906463 -0.096151
C7    C     C_R   0.443507 0.849064 0.092564 -0.022527
C8    C     C_R   0.595437 0.873658 0.909015 -0.074160
H5    H     H_    0.997856 0.334089 0.175477 0.188891
H6    H     H_    0.005973 0.334921 0.823883 0.200081
H7    H     H_    0.489788 0.835299 0.175328 0.191038
H8    H     H_    0.569556 0.863990 0.826577 0.184191
N5    N     N_R   0.952270 0.397640 0.058010 -0.059421
N6    N     N_R   0.047730 0.397640 0.941990 -0.060493
N7    N     N_R   0.452270 0.897640 0.058010 -0.055977
N8    N     N_R   0.547730 0.897640 0.941990 -0.056259
C9    C     C_R   0.030575 0.548302 0.291639 -0.227895
C10   C     C_R   0.954820 0.548240 0.700060 -0.208010
C11   C     C_R   0.550159 0.048485 0.301172 -0.199527
C12   C     C_R   0.467371 0.047501 0.706581 -0.186776
H9    H     H_    0.031278 0.591291 0.311138 0.157744
H10   H     H_    0.946865 0.591198 0.676626 0.178566
H11   H     H_    0.560659 0.091649 0.323843 0.139908
H12   H     H_    0.461171 0.090184 0.682385 0.167638
N9    N     N_R   0.026310 0.529110 0.206760 -0.068347
N10   N     N_R   0.973690 0.529110 0.793240 -0.079833
N11   N     N_R   0.526310 0.029110 0.206760 -0.064799
N12   N     N_R   0.473690 0.029110 0.793240 -0.071020
C13   C     C_R   0.732226 0.453877 0.750604 -0.007285
C14   C     C_R   0.264725 0.453464 0.288534 0.014255
C15   C     C_R   0.241370 0.953496 0.701774 -0.059732
C16   C     C_R   0.761889 0.955233 0.297155 0.032876
H13   H     H_    0.710743 0.411226 0.732321 0.176969
H14   H     H_    0.280096 0.410870 0.313563 0.188570
H15   H     H_    0.224651 0.910492 0.681082 0.184820
H16   H     H_    0.782364 0.912975 0.322668 0.160538
N13   N     N_R   0.818570 0.472310 0.793020 -0.051306
N14   N     N_R   0.181430 0.472310 0.206980 -0.067713
N15   N     N_R   0.318570 0.972310 0.793020 -0.064930
N16   N     N_R   0.681430 0.972310 0.206980 -0.064247
C17   C     C_R   0.040549 0.456459 0.300286 0.547068
C18   C     C_R   0.947047 0.457036 0.693332 0.454213
C19   C     C_R   0.556354 0.957006 0.308780 0.510526
C20   C     C_R   0.464504 0.955454 0.703150 0.443754
N17   N     N_R   0.026930 0.472300 0.207330 -0.107333
N18   N     N_R   0.973070 0.472300 0.792670 -0.108482
N19   N     N_R   0.526930 0.972300 0.207330 -0.099333
N20   N     N_R   0.473070 0.972300 0.792670 -0.103137
C21   C     C_R   0.730902 0.546253 0.749920 -0.109873
C22   C     C_R   0.265905 0.545695 0.294556 -0.151869
C23   C     C_R   0.241092 0.045389 0.697128 -0.131632
C24   C     C_R   0.760798 0.047029 0.298927 -0.072181
H17   H     H_    0.707562 0.588625 0.731622 0.119815
H18   H     H_    0.283364 0.587001 0.328153 0.118219
H19   H     H_    0.223640 0.087599 0.668720 0.120366
H20   H     H_    0.778011 0.089407 0.326248 0.099367
N21   N     N_R   0.817960 0.529130 0.792460 -0.053223
N22   N     N_R   0.182040 0.529130 0.207540 -0.055179
N23   N     N_R   0.317960 0.029130 0.792460 -0.055944
N24   N     N_R   0.682040 0.029130 0.207540 -0.061068
C25   C     C_R   0.853325 0.347645 0.912292 -0.007932
C26   C     C_R   0.148172 0.348369 0.088145 -0.023554
C27   C     C_R   0.351314 0.848408 0.911017 -0.038329
C28   C     C_R   0.687141 0.875211 0.092324 0.071128
H21   H     H_    0.811895 0.333714 0.828401 0.181096
H22   H     H_    0.190331 0.334856 0.172372 0.176388
H23   H     H_    0.309425 0.835240 0.826618 0.173242
H24   H     H_    0.743389 0.866508 0.176634 0.157633
N25   N     N_R   0.894850 0.397640 0.943830 -0.064756
N26   N     N_R   0.105150 0.397640 0.056170 -0.066927
N27   N     N_R   0.394850 0.897640 0.943830 -0.064313
N28   N     N_R   0.605150 0.897640 0.056170 -0.057635
C29   C     C_R   0.941190 0.651096 0.091761 -0.101693
C30   C     C_R   0.096430 0.629210 0.909975 -0.122316
C31   C     C_R   0.404148 0.129739 0.089696 -0.052028
C32   C     C_R   0.595635 0.130785 0.910548 -0.100436
H25   H     H_    0.983173 0.664162 0.176535 0.116157
H26   H     H_    0.069584 0.636025 0.825652 0.114046
H27   H     H_    0.431258 0.136689 0.174099 0.098611
H28   H     H_    0.568517 0.138966 0.826644 0.119486
N29   N     N_R   0.950040 0.603780 0.055950 -0.044948
N30   N     N_R   0.049960 0.603780 0.944050 -0.045017
N31   N     N_R   0.450040 0.103780 0.055950 -0.052519
N32   N     N_R   0.549960 0.103780 0.944050 -0.048766
C33   C     C_R   0.880161 0.682393 0.001458 0.103479
C34   C     C_R   0.184580 0.644060 0.002764 0.105269
C35   C     C_R   0.316329 0.144835 0.996424 0.121017
C36   C     C_R   0.683378 0.145986 0.003574 0.102873
C37   C     C_R   0.887596 0.315181 0.005188 0.022483
C38   C     C_R   0.114857 0.316139 0.995067 0.027710
C39   C     C_R   0.384182 0.815922 0.003448 0.011832
C40   C     C_R   0.682702 0.860234 0.001888 0.086538
C41   C     C_R   0.039680 0.503063 0.350834 -0.078055
C42   C     C_R   0.938052 0.503847 0.636221 -0.007778
C43   C     C_R   0.567236 0.004585 0.366301 -0.027491
C44   C     C_R   0.465583 0.002019 0.652095 -0.042276
C45   C     C_R   0.675976 0.499524 0.724010 0.108128
C46   C     C_R   0.319387 0.498907 0.342572 0.117005
C47   C     C_R   0.192672 0.998560 0.640005 0.151506
C48   C     C_R   0.811574 0.001351 0.354379 0.116987
Ni1   Ni    Ni4+2 0.934160 0.565860 0.869070 0.233985
Ni2   Ni    Ni4+2 0.065840 0.565860 0.130930 0.220422
Ni3   Ni    Ni4+2 0.434160 0.065860 0.869070 0.238580
Ni4   Ni    Ni4+2 0.565840 0.065860 0.130930 0.229554
Ni5   Ni    Ni4+2 0.067260 0.435560 0.132230 0.309212
Ni6   Ni    Ni4+2 0.932740 0.435560 0.867770 0.320804
Ni7   Ni    Ni4+2 0.567260 0.935560 0.132230 0.348502
Ni8   Ni    Ni4+2 0.432740 0.935560 0.867770 0.324484
C49   C     C_3   0.503994 0.453293 0.597690 0.452914
C50   C     C_3   0.484763 0.452491 0.484800 0.428005
C51   C     C_3   0.030423 0.954102 0.472091 0.428405
C52   C     C_3   0.973723 0.000875 0.391270 0.468708
C53   C     C_3   0.428247 0.498279 0.559203 -0.230712
C54   C     C_3   0.558801 0.497788 0.519971 -0.230296
C55   C     C_3   0.966892 0.954625 0.511245 -0.274890
C56   C     C_3   0.037327 0.045087 0.477200 -0.265935
H29   H     H_    0.372274 0.498115 0.572333 0.200240
H30   H     H_    0.613648 0.497563 0.504913 0.216515
H31   H     H_    0.936142 0.918170 0.524604 0.195517
H32   H     H_    0.067862 0.081430 0.463205 0.211176
C57   C     C_3   0.410770 0.497354 0.446586 -0.096809
C58   C     C_3   0.577469 0.498564 0.633443 -0.091089
C59   C     C_3   0.911116 0.001706 0.430768 -0.086839
C60   C     C_3   0.093498 0.997815 0.557640 -0.104863
C61   C     C_3   0.484285 0.543047 0.481790 -0.122592
C62   C     C_3   0.503848 0.544005 0.596074 -0.144149
C63   C     C_3   0.973053 0.045902 0.516194 -0.121786
C64   C     C_3   0.030712 0.998812 0.598100 -0.114547
H33   H     H_    0.475110 0.579698 0.431993 0.175222
H34   H     H_    0.513522 0.581338 0.644221 0.165152
H35   H     H_    0.946804 0.083109 0.532981 0.182047
H36   H     H_    0.056919 0.997849 0.685393 0.169667
C65   C     C_R   0.899291 0.230744 0.110673 0.064147
C66   C     C_R   0.104249 0.232355 0.889131 0.076733
C67   C     C_R   0.397804 0.731088 0.108808 0.083184
C68   C     C_R   0.760529 0.774273 0.070382 0.025088
C69   C     C_R   0.873798 0.255470 0.011901 -0.091134
C70   C     C_R   0.129742 0.256738 0.988086 -0.095845
C71   C     C_R   0.371256 0.756001 0.009590 -0.091040
C72   C     C_R   0.744897 0.820787 0.007392 -0.169618
C73   C     C_R   0.814509 0.223802 0.915274 0.351669
C74   C     C_R   0.187819 0.224747 0.084369 0.328571
C75   C     C_R   0.313016 0.723928 0.912894 0.349304
C76   C     C_R   0.784811 0.825545 0.948953 0.409652
C77   C     C_R   0.254615 0.682986 0.911125 -0.297697
C78   C     C_R   0.833596 0.779880 0.948732 -0.292157
C79   C     C_R   0.754066 0.184155 0.912457 -0.268487
C80   C     C_R   0.246537 0.184405 0.086894 -0.244263
H37   H     H_    0.202525 0.662200 0.835078 0.178993
H38   H     H_    0.861582 0.780392 0.901071 0.188582
H39   H     H_    0.701848 0.163498 0.836302 0.184326
H40   H     H_    0.297733 0.163602 0.162868 0.175072
C81   C     C_R   0.259989 0.672225 0.006295 0.016377
C82   C     C_R   0.843304 0.732643 0.008169 -0.004442
C83   C     C_R   0.758784 0.174083 0.007353 -0.004766
C84   C     C_R   0.241792 0.173893 0.992252 0.021406
C85   C     C_R   0.338620 0.692112 0.105097 0.105117
C86   C     C_R   0.811075 0.731286 0.072525 0.108430
C87   C     C_R   0.838328 0.193058 0.106420 0.133224
C88   C     C_R   0.163903 0.194086 0.893313 0.095109
C89   C     C_3   0.352251 0.711505 0.206992 -0.624965
C90   C     C_3   0.748111 0.688322 0.069187 -0.607921
C91   C     C_3   0.854123 0.212192 0.209554 -0.612546
C92   C     C_3   0.150356 0.213935 0.791516 -0.635264
C93   C     C_3   0.927221 0.250921 0.220898 0.404221
C94   C     C_3   0.077754 0.252935 0.779579 0.440915
C95   C     C_3   0.423719 0.751482 0.218247 0.402479
C96   C     C_3   0.688610 0.735578 0.060999 0.350141
H41   H     H_    0.382060 0.679219 0.271656 0.237424
H42   H     H_    0.785219 0.664495 0.146992 0.224435
H43   H     H_    0.882979 0.179337 0.273068 0.253793
H44   H     H_    0.121245 0.181616 0.727026 0.240495
H45   H     H_    0.288797 0.732572 0.190110 0.190069
H46   H     H_    0.711774 0.662523 0.993811 0.199690
H47   H     H_    0.792105 0.234305 0.194406 0.188552
H48   H     H_    0.213657 0.235812 0.808723 0.187553
H49   H     H_    0.910946 0.294696 0.224134 0.101316
H50   H     H_    0.094581 0.296858 0.776668 0.054713
H51   H     H_    0.405434 0.794895 0.221210 0.060771
H52   H     H_    0.618617 0.738034 0.980140 0.103738
C97   C     C_R   0.898822 0.487186 0.455540 0.097213
C98   C     C_R   0.926045 0.485854 0.387063 0.043926
C99   C     C_R   0.466110 0.046445 0.510204 0.001171
C100  C     C_R   0.494551 0.048338 0.443408 -0.014657
C101  C     C_R   0.963079 0.504394 0.562927 0.099292
C102  C     C_R   0.016830 0.502105 0.425648 0.071973
C103  C     C_R   0.497065 0.004053 0.585024 0.073934
C104  C     C_R   0.558929 0.009783 0.454697 0.077336
C105  C     C_R   0.057656 0.514834 0.605329 -0.210889
C106  C     C_R   0.084644 0.514107 0.535739 -0.027791
C107  C     C_R   0.573014 0.971176 0.610404 -0.090179
C108  C     C_R   0.604385 0.974193 0.545017 -0.045538
H53   H     H_    0.109357 0.524819 0.691119 0.145001
H54   H     H_    0.156490 0.524130 0.566403 0.156409
H55   H     H_    0.605861 0.942276 0.678129 0.185926
H56   H     H_    0.659680 0.946891 0.562733 0.225666
C109  C     C_3   0.833902 0.508043 0.291227 -0.007264
C110  C     C_3   0.803530 0.509787 0.367308 0.061725
C111  C     C_3   0.398251 0.065871 0.346488 0.051988
C112  C     C_3   0.367765 0.063961 0.422488 0.074431
H57   H     H_    0.839748 0.548783 0.261283 0.121737
H58   H     H_    0.744859 0.481073 0.344271 0.175772
H59   H     H_    0.398523 0.107670 0.316151 0.114850
H60   H     H_    0.313643 0.032174 0.402286 0.175289
S1    S     S_3+6 0.512710 0.394963 0.675815 0.017221
O1    O     O_2   0.570543 0.350537 0.672824 -0.238973
O2    O     O_2   0.558021 0.412389 0.792353 -0.266043
O3    O     O_3   0.403802 0.370525 0.621643 -0.472449
H61   H     H_    0.413195 0.338491 0.668033 0.384769
S2    S     S_3+6 0.481574 0.392271 0.414633 0.009578
O4    O     O_2   0.422076 0.348258 0.416987 -0.211270
O5    O     O_2   0.441536 0.406728 0.297961 -0.298098
O6    O     O_3   0.592082 0.368864 0.477937 -0.469216
H62   H     H_    0.585903 0.335707 0.435871 0.390265
S3    S     S_3+6 0.059240 0.891902 0.435016 0.028092
O7    O     O_2   0.125410 0.904902 0.405427 -0.206242
O8    O     O_2   0.104144 0.851519 0.528375 -0.265163
O9    O     O_3   0.959746 0.863809 0.326302 -0.498254
H63   H     H_    0.980695 0.831746 0.305284 0.383121
S4    S     S_3+6 0.936199 0.005208 0.252674 0.036887
O10   O     O_2   0.020369 0.000294 0.250466 -0.179887
O11   O     O_2   0.867342 0.959645 0.185606 -0.262009
O12   O     O_3   0.884606 0.066535 0.200244 -0.552736
H64   H     H_    0.863654 0.065643 0.123302 0.384811
N33   N     N_R   0.817440 0.230582 0.823024 0.248416
O13   O     O_R   0.746221 0.216025 0.725200 -0.315043
O14   O     O_R   0.897158 0.243016 0.839937 -0.352374
N34   N     N_R   0.185741 0.231989 0.177004 0.250241
O15   O     O_R   0.258747 0.220108 0.275358 -0.273728
O16   O     O_R   0.106102 0.243022 0.160923 -0.351214
N35   N     N_R   0.311719 0.732700 0.817792 0.237564
O17   O     O_R   0.237677 0.719589 0.720752 -0.351768
O18   O     O_R   0.389048 0.746321 0.829520 -0.358901
N36   N     N_R   0.773706 0.874421 0.887716 0.240712
O19   O     O_R   0.762134 0.922491 0.916362 -0.369354
O20   O     O_R   0.783478 0.871879 0.808720 -0.379101
S5    S     S_3+6 0.043241 0.228216 0.332169 0.084042
O21   O     O_2   0.057720 0.169636 0.312452 -0.215401
O22   O     O_2   0.118195 0.264104 0.343192 -0.125897
O23   O     O_3   0.052330 0.231114 0.449377 -0.471184
H65   H     H_    0.112323 0.212321 0.504587 0.366766
S6    S     S_3+6 0.961508 0.230617 0.667138 0.054464
O24   O     O_2   0.947576 0.170815 0.681647 -0.281379
O25   O     O_2   0.886680 0.264076 0.660264 -0.139406
O26   O     O_3   0.951364 0.238060 0.549787 -0.459478
H66   H     H_    0.890560 0.220255 0.492909 0.365318
S7    S     S_3+6 0.540363 0.730861 0.331040 0.074758
O27   O     O_2   0.553866 0.670377 0.322306 -0.230044
O28   O     O_2   0.613936 0.762983 0.331901 -0.116977
O29   O     O_3   0.552664 0.742341 0.448716 -0.481780
H67   H     H_    0.617011 0.729496 0.507216 0.375682
S8    S     S_3+6 0.681421 0.738683 0.173976 0.045991
O30   O     O_2   0.775829 0.752142 0.278434 -0.222485
O31   O     O_2   0.612472 0.782799 0.150751 -0.255411
O32   O     O_3   0.641708 0.678067 0.187054 -0.418660
H68   H     H_    0.696365 0.652919 0.222049 0.378426
N37   N     N_R   0.779845 0.467651 0.202997 0.258704
O33   O     O_R   0.692375 0.477843 0.123723 -0.328909
O34   O     O_R   0.819970 0.424145 0.197256 -0.374796
N38   N     N_R   0.789018 0.565927 0.390371 0.240899
O35   O     O_R   0.714638 0.576813 0.386493 -0.313136
O36   O     O_R   0.850521 0.604901 0.417299 -0.392138
N39   N     N_R   0.350404 0.024106 0.259725 0.250025
O37   O     O_R   0.309305 0.038671 0.158190 -0.384017
O38   O     O_R   0.347086 0.972612 0.282429 -0.358976
N40   N     N_R   0.346756 0.118412 0.444608 0.256620
O39   O     O_R   0.268810 0.125823 0.434851 -0.291762
O40   O     O_R   0.407118 0.158885 0.479432 -0.321652
S9    S     S_3+6 0.103412 0.397718 0.375463 -0.022376
O41   O     O_2   0.036916 0.358216 0.374824 -0.255124
O42   O     O_2   0.148159 0.371484 0.326657 -0.304001
O43   O     O_3   0.188277 0.415937 0.505614 -0.526538
H69   H     H_    0.211978 0.380633 0.546244 0.407006
S10   S     S_3+6 0.879534 0.397967 0.624991 -0.025084
O44   O     O_2   0.937607 0.359824 0.608945 -0.256906
O45   O     O_2   0.850358 0.370330 0.689967 -0.294160
O46   O     O_3   0.781939 0.415544 0.502050 -0.530630
H70   H     H_    0.753787 0.380072 0.463520 0.399674
S11   S     S_3+6 0.629188 0.899279 0.375161 -0.063692
O47   O     O_2   0.585732 0.862333 0.414516 -0.235511
O48   O     O_2   0.641863 0.868409 0.298814 -0.301463
O49   O     O_3   0.736391 0.920268 0.482408 -0.581967
H71   H     H_    0.773650 0.885985 0.513770 0.393350
S12   S     S_3+6 0.410052 0.893445 0.632231 -0.021579
O50   O     O_2   0.478378 0.859519 0.626267 -0.291975
O51   O     O_2   0.376661 0.861076 0.688624 -0.273502
O52   O     O_3   0.318062 0.909134 0.504059 -0.460518
H72   H     H_    0.301782 0.874229 0.462396 0.409225

loop_
_geom_bond_atom_site_label_1
_geom_bond_atom_site_label_2
_geom_bond_distance
_ccdc_geom_bond_type
S7    O28   1.497109 D    
C61   H33   1.110577 S    
C30   C34   1.390137 A    
C66   C70   1.412345 A    
S3    O7    1.500394 D    
C67   C95   1.515298 S    
C64   H36   1.110696 S    
C85   C89   1.487130 S    
S3    O9    1.681610 S    
C90   C96   1.509249 S    
C63   H35   1.110150 S    
C91   C93   1.511295 S    
C22   N22   1.332339 A    
S10   O44   1.501310 D    
C90   H42   1.111629 S    
C91   H47   1.112436 S    
C78   H38   1.083203 S    
S6    O25   1.498116 D    
N39   O37   1.300290 A    
N40   O39   1.300476 A    
C48   C59   1.418655 S    
C70   C74   1.417652 A    
C26   H22   1.078599 S    
N36   O20   1.301534 A    
S11   O48   1.498042 D    
C4    N4    1.323465 A    
C16   H16   1.079002 S    
C65   C69   1.411345 A    
S6    O26   1.680827 S    
C112  N40   1.463127 S    
C107  C108  1.385226 A    
S5    O21   1.504295 D    
C58   C62   1.534643 S    
S4    O10   1.502475 D    
N17   Ni5   1.879809 S    
C96   H52   1.112971 S    
S1    O2    1.502677 D    
C9    H9    1.081152 S    
N15   Ni8   1.853765 S    
C11   H11   1.081851 S    
C99   C100  1.362794 A    
O32   H68   0.989567 S    
N6    N26   1.393181 A    
C21   N21   1.330825 A    
C87   C91   1.486000 S    
C11   N11   1.313373 A    
C27   C39   1.395748 A    
C77   C81   1.405768 A    
C12   C44   1.365995 A    
C80   H40   1.079439 S    
C97   C110  1.502181 S    
C8    H8    1.069588 S    
N12   Ni3   1.878750 S    
C51   S3    1.785057 S    
N20   Ni8   1.872117 S    
C5    N5    1.330322 A    
C104  C108  1.399251 A    
N22   Ni2   1.878660 S    
C49   S1    1.785477 S    
C57   C61   1.534054 S    
C84   C88   1.392547 A    
C109  N37   1.463552 S    
N10   N18   1.376225 A    
N26   Ni5   1.874562 S    
C43   C104  1.430024 S    
C13   N13   1.326246 A    
C41   C102  1.402410 S    
C15   N15   1.319851 A    
C16   N16   1.326572 A    
C39   C71   1.478874 S    
C56   C63   1.548990 S    
C37   C69   1.478171 S    
C32   H28   1.076421 S    
N32   Ni3   1.880290 S    
C21   H17   1.080618 S    
C51   C55   1.538425 S    
C31   N31   1.339248 A    
C23   H19   1.081385 S    
C24   H20   1.080662 S    
C24   N24   1.324874 A    
S12   O51   1.502670 D    
C73   C79   1.408797 A    
C50   C57   1.527101 S    
C10   C42   1.356677 A    
C7    C39   1.373805 A    
C20   N20   1.333012 A    
C17   N17   1.331807 A    
N18   Ni6   1.872117 S    
C44   C103  1.409922 S    
C19   N19   1.347160 A    
C75   C77   1.411000 A    
C5    C37   1.369539 A    
C73   N33   1.431224 S    
C3    N3    1.324535 A    
C66   C88   1.375849 A    
N3    N31   1.393183 A    
C1    C33   1.373810 A    
S5    O23   1.680833 S    
C3    C35   1.385978 A    
S4    O12   1.678787 S    
C81   C85   1.391487 A    
C10   H10   1.081025 S    
C54   H30   1.111461 S    
C25   N25   1.345399 A    
C27   N27   1.341544 A    
C13   C45   1.379329 A    
C93   H49   1.108553 S    
O26   H66   0.990652 S    
N34   O15   1.300669 A    
C56   C60   1.533893 S    
N24   Ni4   1.878660 S    
C23   N23   1.328224 A    
S2    O5    1.502719 D    
N13   Ni6   1.853765 S    
C111  N39   1.465720 S    
C110  N38   1.465294 S    
C106  H54   1.083573 S    
N33   O13   1.301377 A    
C108  H56   1.073345 S    
C4    C36   1.384042 A    
S9    O41   1.500444 D    
C90   H46   1.112459 S    
C111  H59   1.110904 S    
C91   H43   1.112123 S    
C89   H41   1.111927 S    
C92   C94   1.513907 S    
C6    C38   1.371250 A    
C103  C107  1.402862 A    
C79   H39   1.081877 S    
C2    C34   1.386120 A    
O43   H69   0.990431 S    
N5    Ni5   1.870376 S    
C8    C40   1.376142 A    
C79   C83   1.404928 A    
N29   Ni2   1.888262 S    
C23   C47   1.373239 A    
N31   Ni4   1.888262 S    
C71   C75   1.421658 A    
C53   H29   1.110393 S    
O6    H62   0.990538 S    
C110  H58   1.112329 S    
C55   H31   1.110289 S    
C17   S9    1.750557 S    
C60   C64   1.542233 S    
C68   C96   1.506218 S    
N35   O18   1.301842 A    
N37   O34   1.302069 A    
C34   C81   1.458268 S    
N2    N30   1.393182 A    
C86   C90   1.492725 S    
N13   N21   1.376533 A    
C100  C111  1.507633 S    
N4    Ni4   1.871778 S    
S2    O6    1.681195 S    
N14   Ni5   1.846046 S    
N4    N32   1.393182 A    
C72   C76   1.416144 A    
S8    O30   1.503836 D    
S3    O8    1.501973 D    
N8    Ni8   1.878348 S    
C45   C58   1.441608 S    
S10   O45   1.500881 D    
C5    H5    1.070358 S    
C6    N6    1.330447 A    
O29   H67   0.990614 S    
C28   N28   1.322020 A    
C49   C50   1.529154 S    
C102  C106  1.390638 A    
N40   O40   1.302438 A    
C13   H13   1.077418 S    
C105  C106  1.382533 A    
C99   C103  1.378837 A    
C14   N14   1.322191 A    
C95   H51   1.110073 S    
C97   C101  1.385802 A    
N6    Ni6   1.878348 S    
S10   O46   1.679957 S    
O9    H63   0.990530 S    
S9    O43   1.681413 S    
N9    Ni2   1.871097 S    
C32   N32   1.339322 A    
N30   Ni1   1.880290 S    
C29   H25   1.081838 S    
N11   Ni4   1.871097 S    
C9    N9    1.323626 A    
C25   C37   1.396692 A    
C22   H18   1.081314 S    
C31   H27   1.078816 S    
C52   C59   1.527353 S    
N35   O17   1.301430 A    
S4    O11   1.502126 D    
C63   C64   1.544568 S    
S1    O1    1.502571 D    
C7    H7    1.066527 S    
C18   N18   1.337048 A    
C18   S10   1.751562 S    
C1    H1    1.081576 S    
C100  C104  1.401113 A    
C19   S11   1.760319 S    
N14   N22   1.376464 A    
C3    H3    1.071982 S    
C17   C41   1.369677 A    
C19   C43   1.388243 A    
O49   H71   0.990501 S    
C67   C85   1.376169 A    
C82   C86   1.381519 A    
N21   Ni1   1.870940 S    
C50   S2    1.786496 S    
C25   H21   1.077938 S    
C53   C62   1.554301 S    
C52   S4    1.787640 S    
C24   C48   1.359067 A    
C4    H4    1.068877 S    
C56   H32   1.110400 S    
C29   N29   1.317117 A    
C92   H44   1.111917 S    
S7    O29   1.681302 S    
C107  H55   1.083258 S    
S8    O32   1.681816 S    
C78   C82   1.399269 A    
N1    Ni1   1.879722 S    
C65   C87   1.374912 A    
N3    Ni3   1.879722 S    
C111  C112  1.524204 S    
C1    N1    1.336002 A    
N1    N29   1.393183 A    
O52   H72   0.990565 S    
C96   S8    1.783124 S    
S6    O24   1.504333 D    
C30   H26   1.077891 S    
C68   C86   1.359934 A    
C15   C47   1.363111 A    
O46   H70   0.990479 S    
N12   N20   1.376225 A    
C98   C109  1.499970 S    
S11   O47   1.501925 D    
N28   Ni7   1.874562 S    
C12   H12   1.079925 S    
N36   O19   1.301344 A    
C89   C95   1.508730 S    
S11   O49   1.682466 S    
N16   N24   1.376464 A    
C89   H45   1.112604 S    
N23   Ni3   1.870940 S    
C18   C42   1.374212 A    
S5    O22   1.498051 D    
C61   C62   1.547360 S    
N25   Ni6   1.866800 S    
C42   C101  1.409337 S    
O23   H65   0.990656 S    
S1    O3    1.680723 S    
C93   S5    1.803870 S    
C20   C44   1.369990 A    
C55   C59   1.529408 S    
C53   C57   1.538750 S    
C51   C52   1.528962 S    
C95   S7    1.801598 S    
C75   N35   1.436344 S    
C30   N30   1.339268 A    
C35   C84   1.457586 S    
C9    C41   1.360669 A    
N19   Ni7   1.879810 S    
C33   C82   1.413410 S    
C11   C43   1.355107 A    
N34   O16   1.299661 A    
N2    Ni2   1.871778 S    
C77   H37   1.081906 S    
C97   C98   1.370007 A    
C16   C48   1.365154 A    
C88   C92   1.487470 S    
N38   O35   1.300471 A    
C12   N12   1.321207 A    
C69   C73   1.417912 A    
C46   C57   1.441052 S    
C21   C45   1.382194 A    
C26   N26   1.343850 A    
C6    H6    1.070320 S    
C68   C72   1.391961 A    
C66   C94   1.512957 S    
C109  C110  1.524096 S    
C47   C60   1.424898 S    
C67   C71   1.413628 A    
S12   O50   1.503494 D    
C14   H14   1.077440 S    
C59   C63   1.528712 S    
C50   C54   1.533114 S    
C101  C105  1.405679 A    
C32   C36   1.389911 A    
C49   C53   1.548325 S    
N8    N28   1.393181 A    
C105  H53   1.084083 S    
N37   O33   1.300530 A    
C112  H60   1.113833 S    
C7    N7    1.329651 A    
C8    N8    1.335457 A    
C74   C80   1.408575 A    
N27   Ni8   1.866800 S    
C65   C93   1.512608 S    
C2    H2    1.068410 S    
C20   S12   1.762401 S    
N15   N23   1.376533 A    
C10   N10   1.322858 A    
N9    N17   1.376297 A    
N11   N19   1.376295 A    
O3    H61   0.990533 S    
S8    O31   1.497811 D    
C94   S6    1.804313 S    
C15   H15   1.076896 S    
C38   C70   1.479168 S    
C22   C46   1.377651 A    
C14   C46   1.367755 A    
C83   C87   1.391863 A    
C54   C61   1.539837 S    
C76   N36   1.441061 S    
C29   C33   1.365440 A    
C92   H48   1.112354 S    
C109  H57   1.112995 S    
C31   C35   1.393542 A    
C51   C60   1.525684 S    
C28   H24   1.077344 S    
C49   C58   1.525116 S    
N33   O14   1.299635 A    
N16   Ni7   1.846046 S    
C76   C78   1.404073 A    
S9    O42   1.500544 D    
S7    O27   1.504180 D    
C2    N2    1.324559 A    
C28   C40   1.369926 A    
N39   O38   1.302478 A    
S12   O52   1.679495 S    
N38   O36   1.302477 A    
C62   H34   1.109927 S    
C36   C83   1.455612 S    
C55   C64   1.544889 S    
C94   H50   1.110190 S    
C27   H23   1.078158 S    
S2    O4    1.502864 D    
C40   C72   1.420141 S    
C74   N34   1.430495 S    
C99   C112  1.493039 S    
C98   C102  1.391414 A    
N7    Ni7   1.870376 S    
C26   C38   1.399824 A    
C80   C84   1.404380 A    
N5    N25   1.393182 A    
O12   H64   0.990424 S    
N10   Ni1   1.878750 S    
N7    N27   1.393182 A    
C54   C58   1.542109 S    
C52   C56   1.538576 S    
