data_mof_unit_68506.cif
_audit_creation_date              2013-03-05T15:53:46-0500
_audit_creation_method            fapswitch 2.2
_symmetry_space_group_name_H-M    P1
_symmetry_Int_Tables_number       1
_space_group_crystal_system       triclinic
_cell_length_a                    7.217395
_cell_length_b                    11.955205
_cell_length_c                    36.57171
_cell_angle_alpha                 90.061463
_cell_angle_beta                  91.520856
_cell_angle_gamma                 90.5891
_cell_volume                      3154.32475302

loop_
_atom_site_label
_atom_site_type_symbol
_atom_site_description
_atom_site_fract_x
_atom_site_fract_y
_atom_site_fract_z
_atom_type_partial_charge
O1    O     O_R   0.379730 0.148600 0.662710 -0.588720
O2    O     O_R   0.620270 0.851400 0.337290 -0.585922
O3    O     O_R   0.120270 0.648600 0.337290 -0.606701
O4    O     O_R   0.879730 0.351400 0.662710 -0.584065
O5    O     O_R   0.722480 0.134490 0.741330 -0.567061
O6    O     O_R   0.277520 0.865510 0.258670 -0.558067
O7    O     O_R   0.777520 0.634490 0.258670 -0.534961
O8    O     O_R   0.222480 0.365510 0.741330 -0.559075
O9    O     O_R   0.892880 0.345890 0.741600 -0.523671
O10   O     O_R   0.107120 0.654110 0.258400 -0.555750
O11   O     O_R   0.607120 0.845890 0.258400 -0.547723
O12   O     O_R   0.392880 0.154110 0.741600 -0.508958
C1    C     C_R   0.551215 0.103990 0.750965 1.091946
C2    C     C_R   0.448716 0.895040 0.248807 1.127271
C3    C     C_R   0.946206 0.604625 0.248716 1.102887
C4    C     C_R   0.054559 0.390941 0.753076 1.117544
O13   O     O_R   0.709490 0.135560 0.662990 -0.606495
O14   O     O_R   0.290510 0.864440 0.337010 -0.613091
O15   O     O_R   0.790510 0.635560 0.337010 -0.589467
O16   O     O_R   0.209490 0.364440 0.662990 -0.608849
C5    C     C_R   0.539735 0.111639 0.650030 0.886847
C6    C     C_R   0.460356 0.886657 0.350412 0.923833
C7    C     C_R   0.959444 0.614094 0.350518 0.897605
C8    C     C_R   0.040345 0.387851 0.649935 0.902227
O17   O     O_3   0.552800 0.316610 0.702160 -0.263423
O18   O     O_3   0.447200 0.683390 0.297840 -0.279497
O19   O     O_3   0.947200 0.816610 0.297840 -0.276467
O20   O     O_3   0.052800 0.183390 0.702160 -0.268720
V1    V     V_3+5 0.827630 0.234380 0.702160 1.308112
V2    V     V_3+5 0.172370 0.765620 0.297840 1.274387
V3    V     V_3+5 0.672370 0.734380 0.297840 1.306529
V4    V     V_3+5 0.327630 0.265620 0.702160 1.311571
C9    C     C_R   0.038100 0.661167 0.916274 0.510969
C10   C     C_R   0.022830 0.349747 0.086218 0.475316
C11   C     C_R   0.522093 0.174715 0.090588 0.504035
C12   C     C_R   0.528988 0.856873 0.916532 0.491049
O21   O     O_2   0.049599 0.552756 0.924822 -0.518630
O22   O     O_2   0.965746 0.453511 0.078145 -0.542233
O23   O     O_2   0.479398 0.067850 0.082834 -0.534915
O24   O     O_2   0.487880 0.963748 0.923213 -0.538256
N1    N     N_R   0.035288 0.695478 0.880208 -0.151788
N2    N     N_R   0.042754 0.316043 0.122041 -0.163566
N3    N     N_R   0.540365 0.210766 0.126536 -0.155790
N4    N     N_R   0.551300 0.820696 0.881298 -0.159906
C13   C     C_R   0.055931 0.809979 0.874699 0.443626
C14   C     C_R   0.088848 0.206522 0.128348 0.454048
C15   C     C_R   0.538622 0.326412 0.130902 0.437059
C16   C     C_R   0.569306 0.707697 0.875953 0.446727
C17   C     C_R   0.958468 0.646839 0.813216 -0.044905
C18   C     C_R   0.923091 0.350213 0.184951 -0.127649
C19   C     C_R   0.527741 0.165341 0.195643 -0.065539
C20   C     C_R   0.446066 0.863204 0.816934 -0.085475
C21   C     C_R   0.960941 0.575617 0.782295 0.289365
C22   C     C_R   0.903501 0.415612 0.216760 0.296415
C23   C     C_R   0.500419 0.090974 0.225069 0.302167
C24   C     C_R   0.440959 0.927527 0.784536 0.294717
C25   C     C_R   0.122947 0.437302 0.819841 0.235379
C26   C     C_R   0.009389 0.577838 0.183077 0.281936
C27   C     C_R   0.479893 0.936726 0.182464 0.252422
C28   C     C_R   0.641557 0.065339 0.814842 0.316363
C29   C     C_R   0.070052 0.498573 0.850864 -0.111099
C30   C     C_R   0.061888 0.505864 0.154587 -0.159571
C31   C     C_R   0.541852 0.010573 0.154939 -0.120598
C32   C     C_R   0.641152 0.000835 0.847110 -0.168384
C33   C     C_R   0.022958 0.614242 0.848553 0.010561
C34   C     C_R   0.010365 0.391211 0.153527 0.086694
C35   C     C_R   0.536323 0.129991 0.158492 0.037065
C36   C     C_R   0.546269 0.896069 0.848996 0.050348
C37   C     C_R   0.059937 0.852426 0.940803 -0.036005
C38   C     C_R   0.076877 0.161125 0.062726 -0.023700
C39   C     C_R   0.559518 0.363694 0.065034 -0.023036
C40   C     C_R   0.554449 0.667160 0.941702 -0.042591
C41   C     C_R   0.037020 0.738073 0.945888 -0.132066
C42   C     C_R   0.055628 0.275663 0.056909 -0.119715
C43   C     C_R   0.532120 0.249170 0.060382 -0.128922
C44   C     C_R   0.542284 0.782447 0.946597 -0.119961
C45   C     C_R   0.025032 0.699189 0.981083 -0.184776
C46   C     C_R   0.063528 0.315608 0.021743 -0.179098
C47   C     C_R   0.517402 0.208081 0.025240 -0.194227
C48   C     C_R   0.541571 0.823391 0.981602 -0.182798
C49   C     C_R   0.076748 0.888530 0.904621 -0.111525
C50   C     C_R   0.089700 0.125552 0.099227 -0.121280
C51   C     C_R   0.571549 0.402318 0.101143 -0.105567
C52   C     C_R   0.557468 0.628979 0.905525 -0.095621
C53   C     C_R   0.049967 0.469937 0.784947 -0.425902
C54   C     C_R   0.952269 0.530773 0.216166 -0.427716
C55   C     C_R   0.465884 0.976372 0.218375 -0.430408
C56   C     C_R   0.543423 0.029429 0.783366 -0.414168
H1    H     H_    0.000843 0.610595 0.985570 0.219059
H2    H     H_    0.051848 0.404799 0.016861 0.224481
H3    H     H_    0.501172 0.118699 0.020883 0.223087
H4    H     H_    0.527616 0.912730 0.985761 0.225706
C57   C     C_R   0.095105 0.966100 0.039005 0.111978
C58   C     C_R   0.095286 0.045849 0.965520 0.133445
C59   C     C_R   0.556361 0.473179 0.966578 0.141658
C60   C     C_R   0.587762 0.556643 0.039747 0.126665
C61   C     C_R   0.089950 0.125211 0.995636 -0.097849
C62   C     C_R   0.077315 0.887022 0.008506 -0.115003
C63   C     C_R   0.573766 0.634719 0.009168 -0.103158
C64   C     C_R   0.554849 0.395412 0.997351 -0.105619
C65   C     C_R   0.087458 0.083623 0.032268 0.078297
C66   C     C_R   0.075186 0.928993 0.971836 0.073718
C67   C     C_R   0.560774 0.591133 0.972718 0.047806
C68   C     C_R   0.566348 0.439119 0.033822 0.074951
C69   C     C_R   0.113851 0.934477 0.076420 0.041013
C70   C     C_R   0.123225 0.077577 0.928869 -0.031906
C71   C     C_R   0.548817 0.439017 0.929354 0.030425
C72   C     C_R   0.620423 0.590072 0.076581 0.039979
C73   C     C_R   0.109923 0.011054 0.105598 -0.025524
C74   C     C_R   0.121695 0.001942 0.899622 -0.054892
C75   C     C_R   0.549089 0.513599 0.899869 -0.059026
C76   C     C_R   0.611522 0.516609 0.106387 -0.038560
O25   O     O_2   0.140337 0.176560 0.162572 -0.560350
O26   O     O_2   0.059441 0.850310 0.840515 -0.602966
O27   O     O_2   0.601382 0.671121 0.842005 -0.604337
O28   O     O_2   0.486468 0.371106 0.162579 -0.586149
C77   C     C_R   0.058130 0.767363 0.011569 0.335358
C78   C     C_R   0.079319 0.245095 0.991671 0.348520
C79   C     C_R   0.543128 0.275037 0.994618 0.351992
C80   C     C_R   0.567043 0.755169 0.012140 0.324973
H5    H     H_    0.872503 0.264993 0.185188 0.163695
H6    H     H_    0.887256 0.724777 0.809525 0.241432
H7    H     H_    0.364162 0.787090 0.817439 0.216937
H8    H     H_    0.558266 0.249158 0.204006 0.218244
H9    H     H_    0.135440 0.850774 0.084877 0.222404
H10   H     H_    0.147972 0.161612 0.921002 0.205123
H11   H     H_    0.548795 0.354230 0.921320 0.192072
H12   H     H_    0.651741 0.674009 0.084209 0.202978
C81   C     C_R   0.967641 0.534308 0.381746 -0.135362
C82   C     C_R   0.030082 0.469404 0.619169 -0.130570
C83   C     C_R   0.529701 0.030317 0.619006 -0.123133
C84   C     C_R   0.471724 0.967591 0.381499 -0.146721
C85   C     C_R   0.959669 0.342946 0.404098 -0.017757
C86   C     C_R   0.019317 0.661328 0.596921 -0.040465
C87   C     C_R   0.520147 0.838776 0.595697 -0.032772
C88   C     C_R   0.464703 0.158884 0.403915 -0.012643
C89   C     C_R   0.984809 0.419969 0.375493 -0.041929
C90   C     C_R   0.048310 0.584187 0.625612 -0.057239
C91   C     C_R   0.532793 0.915009 0.625264 -0.051306
C92   C     C_R   0.424009 0.079475 0.376322 -0.026360
C93   C     C_R   0.947823 0.572688 0.417586 -0.206237
C94   C     C_R   0.999876 0.431415 0.583298 -0.204710
C95   C     C_R   0.526810 0.069619 0.582972 -0.197971
C96   C     C_R   0.521120 0.931805 0.416864 -0.218444
C97   C     C_R   0.955441 0.499027 0.448332 0.156390
C98   C     C_R   0.996822 0.505461 0.552668 0.165341
C99   C     C_R   0.524361 0.996461 0.552032 0.165334
C100  C     C_R   0.512367 0.005028 0.447654 0.155839
C101  C     C_R   0.958236 0.380869 0.441352 -0.000217
C102  C     C_R   0.004068 0.623618 0.559649 0.008830
C103  C     C_R   0.520929 0.877872 0.558515 0.008988
C104  C     C_R   0.498862 0.122672 0.440873 -0.005947
C105  C     C_R   0.963792 0.540072 0.485581 0.105976
C106  C     C_R   0.981359 0.464511 0.515499 0.102267
C107  C     C_R   0.519895 0.038656 0.514923 0.100634
C108  C     C_R   0.514468 0.963663 0.484681 0.102224
C109  C     C_R   0.987219 0.349496 0.507442 -0.201018
C110  C     C_R   0.962871 0.655207 0.493666 -0.195821
C111  C     C_R   0.500129 0.848699 0.492075 -0.213445
C112  C     C_R   0.517664 0.154132 0.507119 -0.205692
C113  C     C_R   0.970876 0.306549 0.471927 0.350639
C114  C     C_R   0.987217 0.698070 0.529123 0.352438
C115  C     C_R   0.505541 0.804622 0.527454 0.354842
C116  C     C_R   0.506734 0.197098 0.471536 0.333166
H13   H     H_    0.979093 0.342549 0.580533 0.108220
H14   H     H_    0.932051 0.661621 0.420178 0.104815
H15   H     H_    0.558824 0.845133 0.419626 0.113119
H16   H     H_    0.528622 0.159147 0.580467 0.103978
H17   H     H_    0.012206 0.288426 0.528470 0.152539
H18   H     H_    0.951488 0.716844 0.472464 0.151733
H19   H     H_    0.481224 0.788745 0.470295 0.155425
H20   H     H_    0.519037 0.215841 0.528440 0.156514
N5    N     N_R   0.212254 0.329985 0.826179 0.251054
O29   O     O_R   0.255874 0.264246 0.799680 -0.347576
O30   O     O_R   0.263402 0.300326 0.859182 -0.416344
N6    N     N_R   0.987756 0.697069 0.176074 0.244553
O31   O     O_R   0.924338 0.763722 0.200818 -0.404637
O32   O     O_R   0.978545 0.732736 0.142553 -0.418135
N7    N     N_R   0.431653 0.821581 0.172987 0.229682
O33   O     O_R   0.374708 0.750446 0.197197 -0.405549
O34   O     O_R   0.406202 0.794096 0.138883 -0.405336
N8    N     N_R   0.732302 0.173545 0.814911 0.225503
O35   O     O_R   0.649117 0.260437 0.801390 -0.383360
O36   O     O_R   0.903655 0.183838 0.825864 -0.434247
C117  C     C_1   0.102997 0.623056 0.661861 0.131239
N9    N     N_1   0.150184 0.654039 0.690584 0.033147
C118  C     C_1   0.040820 0.383030 0.339815 0.139120
N10   N     N_1   0.090439 0.355636 0.311434 0.010055
C119  C     C_1   0.316178 0.110076 0.344040 0.187393
N11   N     N_1   0.224979 0.131585 0.318607 0.000958
C120  C     C_1   0.557139 0.874311 0.662428 0.111418
N12   N     N_1   0.579084 0.841153 0.691895 0.020778
C121  C     C_1   0.926033 0.227493 0.393487 0.153841
N13   N     N_1   0.898668 0.135762 0.384501 -0.031605
C122  C     C_1   0.993509 0.776829 0.607655 0.177661
N14   N     N_1   0.973379 0.868519 0.616851 -0.031140
C123  C     C_1   0.501492 0.721614 0.605294 0.167262
N15   N     N_1   0.487146 0.628678 0.613756 -0.030522
C124  C     C_1   0.477468 0.274524 0.392336 0.171011
N16   N     N_1   0.488608 0.366328 0.382495 -0.029297
C125  C     C_1   0.957499 0.422990 0.871342 0.426345
N17   N     N_1   0.870120 0.354831 0.885281 -0.015239
C126  C     C_1   0.176749 0.554975 0.128375 0.462037
N18   N     N_1   0.265072 0.602482 0.107898 0.037234
C127  C     C_1   0.663764 0.956178 0.130860 0.373747
N19   N     N_1   0.757685 0.904185 0.112691 0.023183
C128  C     C_1   0.715285 0.058299 0.878058 0.339261
N20   N     N_1   0.771963 0.113656 0.901494 0.015518
N21   N     N_R   0.834048 0.362475 0.248905 0.229418
O37   O     O_R   0.728657 0.415763 0.271199 -0.375639
O38   O     O_R   0.865662 0.256863 0.254623 -0.356944
N22   N     N_R   0.876077 0.615261 0.748619 0.234846
O39   O     O_R   0.786449 0.547568 0.726476 -0.400609
O40   O     O_R   0.864786 0.722278 0.742513 -0.356228
N23   N     N_R   0.331563 0.886157 0.753768 0.242924
O41   O     O_R   0.256692 0.953565 0.729887 -0.392726
O42   O     O_R   0.290889 0.780070 0.751462 -0.366993
N24   N     N_R   0.513056 0.133960 0.261722 0.236778
O43   O     O_R   0.608784 0.081075 0.286777 -0.422327
O44   O     O_R   0.457882 0.235022 0.268494 -0.333181
C129  C     C_1   0.099712 0.969842 0.142470 0.294777
N25   N     N_1   0.084753 0.942672 0.172552 0.025791
C130  C     C_1   0.178046 0.043610 0.864862 0.377271
N26   N     N_1   0.223988 0.074229 0.836618 0.033897
C131  C     C_1   0.545153 0.470251 0.863216 0.269077
N27   N     N_1   0.547800 0.441716 0.833092 0.032647
C132  C     C_1   0.619624 0.564985 0.142480 0.268356
N28   N     N_1   0.618190 0.601849 0.171647 0.023770
N29   N     N_R   0.088309 0.705396 0.044013 0.231273
O45   O     O_R   0.193160 0.618111 0.041321 -0.430073
O46   O     O_R   0.957596 0.702375 0.067527 -0.417064
N30   N     N_R   0.051779 0.301374 0.957960 0.226263
O47   O     O_R   0.195782 0.343267 0.942280 -0.390946
O48   O     O_R   0.898190 0.355605 0.954380 -0.433913
N31   N     N_R   0.590531 0.211597 0.963490 0.233717
O49   O     O_R   0.460311 0.185244 0.939980 -0.407180
O50   O     O_R   0.720435 0.138685 0.968857 -0.422822
N32   N     N_R   0.583577 0.816641 0.045150 0.222324
O51   O     O_R   0.446138 0.813033 0.067151 -0.400458
O52   O     O_R   0.686652 0.906567 0.044876 -0.418318
N33   N     N_R   0.984737 0.186920 0.468388 0.218232
O53   O     O_R   0.119871 0.144614 0.450494 -0.420115
O54   O     O_R   0.903741 0.122665 0.491872 -0.387963
N34   N     N_R   0.996566 0.818159 0.532464 0.221752
O55   O     O_R   0.140981 0.865517 0.547775 -0.439607
O56   O     O_R   0.892755 0.879732 0.511247 -0.393342
N35   N     N_R   0.484939 0.684918 0.530165 0.225199
O57   O     O_R   0.620513 0.625721 0.543283 -0.435254
O58   O     O_R   0.362714 0.633853 0.509251 -0.398489
N36   N     N_R   0.492010 0.316846 0.468289 0.219057
O59   O     O_R   0.343000 0.359639 0.453873 -0.412066
O60   O     O_R   0.592498 0.380895 0.489801 -0.401225

loop_
_geom_bond_atom_site_label_1
_geom_bond_atom_site_label_2
_geom_bond_distance
_ccdc_geom_bond_type
C84   C96   1.400988 A    
C63   C67   1.431149 A    
C126  N18   1.143924 T    
C48   C80   1.393010 A    
O1    C5    1.335064 A    
C92   C119  1.446168 S    
C109  C113  1.397752 A    
O13   V1    2.021311 S    
C125  N17   1.152804 T    
C94   C98   1.428329 A    
C115  N35   1.441061 S    
C130  N26   1.152115 T    
C10   N2    1.375428 A    
C85   C89   1.408533 A    
C96   C100  1.428665 A    
O15   V3    2.033314 S    
C28   C56   1.400160 A    
C38   C65   1.452181 A    
C83   C95   1.399273 A    
C19   C23   1.413196 A    
N5    O29   1.294452 A    
C46   H2    1.085101 S    
C87   C91   1.413902 A    
C11   C43   1.422288 A    
C93   H14   1.074804 S    
C129  N25   1.154903 T    
C111  H19   1.076033 S    
C62   C77   1.440594 A    
C112  C116  1.400142 A    
O20   V1    1.741569 S    
C46   C78   1.392769 A    
O9    C4    1.337343 A    
C2    C55   1.485482 S    
C91   C120  1.451015 S    
O10   C3    1.337095 A    
N23   O42   1.301021 A    
C70   C74   1.399625 A    
N8    O36   1.294432 A    
O4    C8    1.330700 A    
C20   H7    1.080449 S    
C87   C103  1.438480 A    
C24   C56   1.419917 A    
C81   C93   1.399658 A    
C17   H6    1.075641 S    
N36   O60   1.299350 A    
C86   C102  1.436323 A    
C60   C63   1.459558 A    
C64   C68   1.432023 A    
N34   O55   1.294874 A    
C7    C81   1.489138 S    
N33   O53   1.295619 A    
N2    C14   1.372511 A    
C61   C78   1.443335 A    
N8    O35   1.297030 A    
C5    C83   1.493164 S    
C88   C124  1.449072 S    
C69   C73   1.406311 A    
C12   C44   1.417085 A    
C109  H17   1.074029 S    
C63   C80   1.445393 A    
C14   C50   1.438604 A    
O3    C7    1.331143 A    
C13   O26   1.341209 S    
C22   N21   1.436357 S    
O16   C8    1.331530 A    
C78   N30   1.415535 S    
C24   N23   1.441457 S    
C39   C68   1.456987 A    
C47   C79   1.392595 A    
C38   C42   1.395362 A    
N31   O49   1.293165 A    
C37   C41   1.388687 A    
O5    C1    1.341326 A    
O14   V2    2.021305 S    
C15   C51   1.440803 A    
C11   N3    1.385613 A    
C47   H3    1.084918 S    
O4    V1    2.049986 S    
C20   C36   1.414373 A    
C12   N4    1.372813 A    
C88   C92   1.407936 A    
C97   C105  1.446968 A    
O17   V4    1.729832 S    
O7    C3    1.332082 A    
C60   C72   1.417715 A    
O11   V3    2.015063 S    
C124  N16   1.158079 T    
O8    C4    1.334444 A    
C76   C132  1.440066 S    
C98   C102  1.435392 A    
O12   V4    2.015058 S    
O19   V2    1.741569 S    
O17   V1    2.222843 S    
C19   H8    1.066481 S    
N31   O50   1.297997 A    
C123  N15   1.158031 T    
C18   H5    1.078856 S    
C71   C75   1.399976 A    
C82   C94   1.398703 A    
C74   C130  1.433262 S    
C26   C54   1.405037 A    
C57   C69   1.423325 A    
C88   C104  1.435556 A    
C59   C67   1.427596 A    
N21   O37   1.300378 A    
C23   N24   1.435398 S    
O5    V1    2.024082 S    
N35   O58   1.299232 A    
C28   N8    1.443913 S    
C15   O28   1.339848 S    
C102  C114  1.431988 A    
C32   C128  1.413489 S    
N32   O52   1.301274 A    
C52   C75   1.395047 A    
O7    V3    2.031462 S    
C30   C34   1.416773 A    
C96   H15   1.078185 S    
O19   V3    2.204730 S    
C128  N20   1.146524 T    
C75   C131  1.436109 S    
C50   C73   1.397259 A    
C100  C104  1.432278 A    
O20   V4    2.204730 S    
C90   C117  1.447849 S    
C85   C101  1.435790 A    
C106  C109  1.407231 A    
C57   C65   1.428087 A    
C22   C54   1.417871 A    
C83   C91   1.397951 A    
C116  N36   1.441436 S    
C110  H18   1.072395 S    
N1    C33   1.510525 S    
C58   C61   1.454475 A    
N36   O59   1.295413 A    
C37   C66   1.458491 A    
O1    V4    2.053148 S    
O13   C5    1.330117 A    
C120  N12   1.156160 T    
O2    V3    2.053148 S    
N33   O54   1.299352 A    
C10   O22   1.341884 S    
C48   H4    1.084776 S    
O3    V2    2.049986 S    
C11   O23   1.339452 S    
N23   O41   1.299859 A    
C31   C35   1.434491 A    
C86   C90   1.410581 A    
N29   O45   1.300473 A    
C17   C33   1.418289 A    
N21   O38   1.301517 A    
C29   C33   1.429460 A    
O6    C2    1.340291 A    
C16   C52   1.438052 A    
O10   V2    2.006591 S    
C61   C65   1.429974 A    
N24   O44   1.301613 A    
C132  N28   1.154039 T    
C98   C106  1.445449 A    
C12   O24   1.338383 S    
C45   H1    1.085039 S    
N30   O48   1.293664 A    
C131  N27   1.153655 T    
C112  H20   1.072628 S    
C40   C44   1.393625 A    
N3    C35   1.517539 S    
C64   C79   1.443928 A    
C19   C35   1.425559 A    
C49   C74   1.404171 A    
C18   C34   1.411036 A    
C40   C52   1.399923 A    
N5    O30   1.303369 A    
C59   C71   1.420355 A    
C26   C30   1.412550 A    
C10   C42   1.416034 A    
C16   O27   1.342518 S    
C25   N5    1.457721 S    
C79   N31   1.418565 S    
C86   C122  1.450356 S    
O6    V2    2.024082 S    
N22   O40   1.301992 A    
O18   V2    2.222843 S    
C103  C115  1.434849 A    
C27   N7    1.455691 S    
C60   C68   1.427598 A    
C42   C46   1.374726 A    
C4    C53   1.500639 S    
C111  C115  1.397333 A    
C27   C31   1.417878 A    
N4    C36   1.486468 S    
C101  C113  1.430551 A    
C114  N34   1.441476 S    
C82   C90   1.396369 A    
C32   C36   1.423907 A    
C95   C99   1.429052 A    
C18   C22   1.411968 A    
C73   C129  1.439625 S    
O15   C7    1.330884 A    
C105  C110  1.407680 A    
C9    O21   1.336458 S    
O16   V4    2.033319 S    
C9    C41   1.420135 A    
N24   O43   1.301267 A    
C127  N19   1.148506 T    
N32   O51   1.294125 A    
C58   C70   1.412456 A    
N1    C13   1.390901 A    
C21   C53   1.425534 A    
C14   O25   1.346089 S    
C6    C84   1.492150 S    
C107  C112  1.410197 A    
C59   C64   1.460755 A    
C113  N33   1.440626 S    
C108  C111  1.404353 A    
C26   N6    1.457754 S    
C44   C48   1.370228 A    
C104  C116  1.430362 A    
C87   C123  1.450163 S    
C3    C54   1.483171 S    
N35   O57   1.295572 A    
C25   C29   1.412985 A    
C40   C67   1.454367 A    
C93   C97   1.429243 A    
C99   C107  1.448029 A    
C84   C92   1.396479 A    
C70   H10   1.060034 S    
C45   C77   1.394402 A    
C8    C82   1.490466 S    
C69   H9    1.059539 S    
C28   C32   1.410460 A    
C9    N1    1.381419 A    
O14   C6    1.332150 A    
C71   H11   1.055062 S    
C118  N10   1.155085 T    
N29   O46   1.293553 A    
N4    C16   1.372781 A    
C62   C66   1.432126 A    
O2    C6    1.333813 A    
C94   H13   1.075701 S    
C39   C43   1.390961 A    
O9    V1    2.006586 S    
C117  N9    1.155102 T    
N22   O39   1.299688 A    
O8    V4    2.031462 S    
N3    C15   1.391808 A    
C21   N22   1.443548 S    
C17   C21   1.415418 A    
C99   C103  1.437772 A    
C1    C56   1.485478 S    
C77   N29   1.412656 S    
N30   O47   1.296693 A    
O11   C2    1.329794 A    
N34   O56   1.298853 A    
C13   C49   1.445035 A    
C23   C55   1.410041 A    
C119  N11   1.155869 T    
C38   C50   1.402463 A    
C27   C55   1.402301 A    
C30   C126  1.408661 S    
C37   C49   1.400212 A    
C110  C114  1.399849 A    
N6    O31   1.300486 A    
C122  N14   1.157967 T    
C72   C76   1.402981 A    
O18   V3    1.729832 S    
C81   C89   1.393017 A    
O12   C1    1.332671 A    
C58   C66   1.422823 A    
C85   C121  1.449697 S    
C121  N13   1.158013 T    
C31   C127  1.422773 S    
C80   N32   1.414360 S    
C107  C108  1.422483 A    
N2    C34   1.484770 S    
N7    O33   1.299936 A    
C41   C45   1.373582 A    
C51   C76   1.405483 A    
C72   H12   1.061744 S    
C39   C51   1.398717 A    
C95   H16   1.074309 S    
C100  C108  1.441854 A    
C89   C118  1.446170 S    
C105  C106  1.423516 A    
C43   C47   1.376486 A    
C57   C62   1.463572 A    
C25   C53   1.424009 A    
C97   C101  1.435656 A    
C20   C24   1.413067 A    
C29   C125  1.433850 S    
N6    O32   1.298652 A    
N7    O34   1.297305 A    
