data_mof_unit_21297.cif
_audit_creation_date              2012-12-10T18:58:42-0500
_audit_creation_method            fapswitch 2.2
_symmetry_space_group_name_H-M    P1
_symmetry_Int_Tables_number       1
_space_group_crystal_system       triclinic
_cell_length_a                    10.710526
_cell_length_b                    10.008996
_cell_length_c                    17.507942
_cell_angle_alpha                 90.039904
_cell_angle_beta                  93.773063
_cell_angle_gamma                 89.950245
_cell_volume                      1872.81040624

loop_
_atom_site_label
_atom_site_type_symbol
_atom_type_description
_atom_site_fract_x
_atom_site_fract_y
_atom_site_fract_z
_atom_type_partial_charge
C1    C     C_R   0.260354 0.500028 0.499641 0.847074
C2    C     C_R   0.501001 0.500032 0.645620 0.890441
C3    C     C_R   0.872372 0.499990 0.500294 -0.003485
C4    C     C_R   0.127628 0.500010 0.499706 -0.003485
C5    C     C_R   0.614007 0.500218 0.851528 -0.153921
C6    C     C_R   0.385995 0.499776 0.148471 -0.153919
C7    C     C_R   0.613402 0.500175 0.157986 -0.158497
C8    C     C_R   0.386599 0.499789 0.842014 -0.158495
C9    C     C_R   0.615729 0.500229 0.772098 0.137532
C10   C     C_R   0.384272 0.499778 0.227901 0.137534
C11   C     C_R   0.614391 0.500186 0.237550 0.138687
C12   C     C_R   0.739646 0.499971 0.500359 0.847073
C13   C     C_R   0.385610 0.499789 0.762451 0.138688
C14   C     C_R   0.500834 0.500081 0.727811 -0.039331
C15   C     C_R   0.499167 0.499917 0.272189 -0.039329
C16   C     C_R   0.580560 0.071601 0.549398 0.207857
C17   C     C_R   0.419440 0.928399 0.450602 0.207858
C18   C     C_R   0.419321 0.071658 0.450676 0.204131
C19   C     C_R   0.580680 0.928342 0.549324 0.204133
C20   C     C_R   0.500159 0.500017 0.885591 0.054971
C21   C     C_R   0.499842 0.499956 0.114409 0.054969
C22   C     C_3   0.739477 0.500316 0.735602 -0.933913
C23   C     C_1   0.499990 0.499993 0.966087 -0.039474
C24   C     C_3   0.260524 0.499711 0.264398 -0.933917
C25   C     C_3   0.737627 0.500544 0.284597 -0.900018
C26   C     C_3   0.262373 0.499420 0.715404 -0.900012
C27   C     C_3   0.671135 0.142264 0.605647 -0.834886
C28   C     C_3   0.328865 0.857736 0.394353 -0.834892
C29   C     C_3   0.327615 0.142414 0.395134 -0.828371
C30   C     C_3   0.672385 0.857586 0.604865 -0.828380
C31   C     C_1   0.500011 0.499974 0.033913 -0.039474
C32   C     C_R   0.065115 0.379339 0.509509 -0.196378
C33   C     C_R   0.934884 0.620660 0.490490 -0.196378
C34   C     C_R   0.937263 0.379347 0.509802 -0.195865
C35   C     C_R   0.062737 0.620653 0.490197 -0.195864
C36   C     C_R   0.498999 0.499967 0.354380 0.890442
H1    H     H_    0.700968 0.500343 0.886970 0.142433
H2    H     H_    0.747120 0.410036 0.699428 0.236619
H3    H     H_    0.746907 0.590662 0.699548 0.237497
H4    H     H_    0.180251 0.499713 0.220866 0.244491
H5    H     H_    0.253084 0.409372 0.300456 0.237493
H6    H     H_    0.252888 0.589998 0.300565 0.236624
H7    H     H_    0.818441 0.500684 0.247952 0.237676
H8    H     H_    0.744234 0.591017 0.321384 0.244839
H9    H     H_    0.744757 0.410217 0.321423 0.246778
H10   H     H_    0.181558 0.499257 0.752049 0.237674
H11   H     H_    0.255230 0.589753 0.678583 0.246772
H12   H     H_    0.299033 0.499658 0.113029 0.142433
H13   H     H_    0.255779 0.408952 0.678612 0.244843
H14   H     H_    0.668135 0.250220 0.602236 0.286033
H15   H     H_    0.650611 0.116344 0.665141 0.223800
H16   H     H_    0.768721 0.113607 0.595467 0.206408
H17   H     H_    0.331865 0.749781 0.397764 0.286034
H18   H     H_    0.231279 0.886393 0.404533 0.206408
H19   H     H_    0.349389 0.883655 0.334858 0.223800
H20   H     H_    0.332310 0.250361 0.397568 0.286957
H21   H     H_    0.345312 0.114721 0.335428 0.222149
H22   H     H_    0.230282 0.115777 0.407108 0.209764
H23   H     H_    0.700645 0.500363 0.129850 0.142703
H24   H     H_    0.667690 0.749639 0.602431 0.286958
H25   H     H_    0.769719 0.884223 0.592892 0.209766
H26   H     H_    0.654689 0.885279 0.664571 0.222149
H27   H     H_    0.299355 0.499587 0.870151 0.142702
H28   H     H_    0.114510 0.285298 0.517288 0.161452
H29   H     H_    0.885490 0.714702 0.482711 0.161453
H30   H     H_    0.889808 0.285327 0.517664 0.158427
H31   H     H_    0.110192 0.714673 0.482335 0.158427
H32   H     H_    0.819749 0.500316 0.779134 0.244492
N1    N     N_R   0.500000 0.857200 0.500000 -0.116697
N2    N     N_R   0.500000 0.142800 0.500000 -0.116697
O1    O     O_R   0.316770 0.614620 0.500000 -0.630878
O2    O     O_R   0.683230 0.385380 0.500000 -0.630880
O3    O     O_R   0.683230 0.614620 0.500000 -0.632303
O4    O     O_R   0.316770 0.385380 0.500000 -0.632304
O5    O     O_R   0.500010 0.614710 0.389120 -0.617968
O6    O     O_R   0.499990 0.385290 0.610880 -0.617970
O7    O     O_R   0.499990 0.614710 0.610880 -0.617564
O8    O     O_R   0.500010 0.385290 0.389120 -0.617566
Zn1   Zn    Zn3+2 0.500000 0.653120 0.500000 0.930834
Zn2   Zn    Zn3+2 0.500000 0.346880 0.500000 0.930832

loop_
_geom_bond_atom_site_label_1
_geom_bond_atom_site_label_2
_ccdc_geom_bond_type
C18   N2    A    
C17   N1    A    
C8    C13   A    
C5    H1    S    
C24   H6    S    
C25   H7    S    
O1    Zn1   S    
C33   H29   S    
C5    C20   A    
C7    C11   A    
C21   C31   S    
C8    C20   A    
C6    H12   S    
C1    O4    A    
C10   C15   A    
O8    Zn2   S    
C9    C22   S    
C11   C25   S    
C22   H2    S    
C3    C12   S    
C24   H4    S    
C11   C15   A    
C30   H24   S    
C27   H14   S    
C16   C27   S    
C12   O2    A    
C4    C35   A    
O4    Zn2   S    
C12   O3    A    
C24   H5    S    
C34   H30   S    
C25   H8    S    
C7    H23   S    
C28   H19   S    
C27   H15   S    
O7    Zn1   S    
N2    Zn2   S    
C16   N2    A    
C32   H28   S    
C26   H13   S    
C28   H18   S    
C3    C34   A    
C10   C24   S    
C7    C21   A    
C6    C21   A    
C23   C31   T    
C9    C14   A    
C5    C9    A    
C36   O5    A    
C20   C23   S    
C35   H31   S    
C17   C18   A    
O3    Zn1   S    
C18   C29   S    
C1    O1    A    
C22   H32   S    
C4    C32   A    
C26   H11   S    
C29   H21   S    
C30   H26   S    
C13   C26   S    
N1    Zn1   S    
C25   H9    S    
C15   C36   S    
C2    O6    A    
C27   H16   S    
C17   C28   S    
O6    Zn2   S    
C6    C10   A    
C28   H17   S    
C29   H20   S    
C1    C4    S    
O2    Zn2   S    
C2    O7    A    
C36   O8    A    
C16   C19   A    
C22   H3    S    
C33   C35   A    
C2    C14   S    
C19   N1    A    
C26   H10   S    
C8    H27   S    
C29   H22   S    
C30   H25   S    
C3    C33   A    
C13   C14   A    
C19   C30   S    
O5    Zn1   S    
C32   C34   A    
