data_mof_unit_64624.cif
_audit_creation_date              2012-12-10T17:58:56-0500
_audit_creation_method            fapswitch 2.2
_symmetry_space_group_name_H-M    P1
_symmetry_Int_Tables_number       1
_space_group_crystal_system       triclinic
_cell_length_a                    9.538222
_cell_length_b                    10.789139
_cell_length_c                    13.896315
_cell_angle_alpha                 90.446714
_cell_angle_beta                  84.776414
_cell_angle_gamma                 90.027811
_cell_volume                      1424.07635405

loop_
_atom_site_label
_atom_site_type_symbol
_atom_type_description
_atom_site_fract_x
_atom_site_fract_y
_atom_site_fract_z
_atom_type_partial_charge
C1    C     C_R   0.500370 0.737638 0.498397 0.913688
C2    C     C_R   0.499630 0.262362 0.501602 0.913693
C3    C     C_R   0.499396 0.128572 0.502038 -0.346837
C4    C     C_R   0.500605 0.871428 0.497961 -0.346826
C5    C     C_R   0.477148 0.499954 0.682934 0.829824
C6    C     C_R   0.522852 0.500045 0.317066 0.829824
C7    C     C_R   0.917659 0.576036 0.561205 0.530556
C8    C     C_R   0.082341 0.423964 0.438795 0.530555
C9    C     C_R   0.066248 0.575899 0.561251 0.549194
C10   C     C_R   0.933752 0.424101 0.438748 0.549191
C11   C     C_1   0.536865 0.500821 0.214085 -0.053348
C12   C     C_1   0.463135 0.499179 0.785914 -0.053350
C13   C     C_2   0.558234 0.502599 0.023760 0.110049
C14   C     C_2   0.441766 0.497401 0.976239 0.110049
C15   C     C_1   0.452333 0.498372 0.872660 0.057194
C16   C     C_1   0.547666 0.501627 0.127340 0.057194
C17   C     C_R   0.594040 0.936704 0.432631 0.027578
C18   C     C_R   0.405964 0.063297 0.567372 0.027590
C19   C     C_R   0.593093 0.065398 0.435278 0.619537
C20   C     C_R   0.406905 0.934604 0.564717 0.619540
Cu1   Cu    Cu3+1 0.359340 0.499980 0.500000 1.122150
Cu2   Cu    Cu3+1 0.640660 0.500020 0.500000 1.122149
N1    N     N_R   0.147930 0.499970 0.499980 -0.352451
N2    N     N_R   0.852070 0.500030 0.500020 -0.352451
O1    O     O_R   0.381260 0.680340 0.500000 -0.514476
O2    O     O_R   0.618740 0.319660 0.500000 -0.514481
O3    O     O_R   0.618830 0.680370 0.500010 -0.537618
O4    O     O_R   0.381170 0.319630 0.499990 -0.537618
O5    O     O_R   0.364420 0.499960 0.637840 -0.527760
O6    O     O_R   0.635580 0.500040 0.362160 -0.527759
O7    O     O_R   0.601990 0.499990 0.637850 -0.542921
O8    O     O_R   0.398010 0.500010 0.362150 -0.542921
F1    F     F_    0.840072 0.652859 0.622581 -0.558427
F2    F     F_    0.159928 0.347142 0.377418 -0.558427
F3    F     F_    0.127670 0.652206 0.622935 -0.519551
F4    F     F_    0.872329 0.347794 0.377065 -0.519552
I1    I     I_    0.235489 0.487321 0.047943 -0.129174
I2    I     I_    0.764511 0.512678 0.952057 -0.129176
I3    I     I_    0.731497 0.847317 0.324036 -0.120536
I4    I     I_    0.268532 0.152685 0.675990 -0.120546
F5    F     F_    0.680386 0.129272 0.370624 -0.556671
F6    F     F_    0.319604 0.870732 0.629362 -0.556676

loop_
_geom_bond_atom_site_label_1
_geom_bond_atom_site_label_2
_ccdc_geom_bond_type
C20   F6    S    
C3    C19   A    
C2    O4    A    
C11   C16   T    
C6    O8    A    
C12   C15   T    
C1    C4    S    
C1    O3    A    
C2    C3    S    
C2    O2    A    
C8    F2    S    
C13   C14   D    
C14   I1    S    
C1    O1    A    
C7    F1    S    
C13   I2    S    
Cu1   O1    S    
C5    C12   S    
C4    C17   A    
C8    C10   A    
C17   C19   A    
Cu1   O4    S    
C18   C20   A    
Cu2   O3    S    
Cu1   N1    S    
C17   I3    S    
Cu1   O8    S    
Cu2   N2    S    
Cu2   O7    S    
C7    N2    A    
C4    C20   A    
C5    O5    A    
C8    N1    A    
C3    C18   A    
C7    C9    A    
Cu2   O2    S    
C13   C16   S    
C6    C11   S    
C9    F3    S    
C18   I4    S    
C14   C15   S    
C9    N1    A    
C10   F4    S    
Cu2   O6    S    
C10   N2    A    
Cu1   Cu2   S    
Cu1   O5    S    
C6    O6    A    
C19   F5    S    
C5    O7    A    
