data_mof_unit_65170.cif
_audit_creation_date              2012-12-10T21:33:30-0500
_audit_creation_method            fapswitch 2.2
_symmetry_space_group_name_H-M    P1
_symmetry_Int_Tables_number       1
_space_group_crystal_system       triclinic
_cell_length_a                    14.147531
_cell_length_b                    16.194566
_cell_length_c                    16.589113
_cell_angle_alpha                 85.589823
_cell_angle_beta                  90.624927
_cell_angle_gamma                 91.370671
_cell_volume                      3788.28873375

loop_
_atom_site_label
_atom_site_type_symbol
_atom_type_description
_atom_site_fract_x
_atom_site_fract_y
_atom_site_fract_z
_atom_type_partial_charge
C1    C     C_R   0.499519 0.487370 0.653405 1.032726
C2    C     C_R   0.547330 0.147492 0.536544 0.326002
C3    C     C_R   0.509661 0.889410 0.522322 0.217783
C4    C     C_R   0.490338 0.110589 0.477682 0.217774
C5    C     C_R   0.564063 0.836950 0.576385 -0.240184
C6    C     C_R   0.435948 0.163050 0.423608 -0.240185
C7    C     C_R   0.563571 0.750927 0.567831 -0.059977
C8    C     C_R   0.436440 0.249074 0.432162 -0.059994
C9    C     C_R   0.670811 0.499315 0.500311 0.942449
C10   C     C_R   0.329189 0.500686 0.499687 0.942521
C11   C     C_1   0.772224 0.498217 0.500290 -0.099209
C12   C     C_R   0.500475 0.512631 0.346595 1.032626
C13   C     C_1   0.227776 0.501784 0.499706 -0.099192
C14   C     C_1   0.857472 0.498421 0.500198 0.031303
C15   C     C_1   0.142528 0.501580 0.499797 0.031310
C16   C     C_1   0.957364 0.499458 0.500059 0.050141
C17   C     C_1   0.042635 0.500543 0.499936 0.050142
C18   C     C_R   0.504848 0.475691 0.741159 -0.289196
C19   C     C_R   0.495112 0.524319 0.258843 -0.289153
C20   C     C_R   0.579126 0.516244 0.780391 0.391608
C21   C     C_R   0.420811 0.483781 0.219624 0.391600
C22   C     C_R   0.587129 0.505785 0.864832 0.294271
C23   C     C_R   0.446586 0.413925 0.870024 0.373386
C24   C     C_R   0.412749 0.494292 0.135189 0.294271
C25   C     C_R   0.517312 0.458228 0.908842 0.108094
C26   C     C_R   0.482531 0.541885 0.091167 0.108044
C27   C     C_2   0.366210 0.374926 0.741892 0.992531
C28   C     C_2   0.633766 0.625062 0.258094 0.992464
C29   C     C_2   0.598412 0.272871 0.606553 0.951516
C30   C     C_2   0.401568 0.727128 0.393460 0.951503
C31   C     C_2   0.620776 0.869773 0.643348 1.003241
C32   C     C_2   0.379251 0.130228 0.356634 1.003241
C33   C     C_R   0.553276 0.586171 0.129977 0.373337
C34   C     C_R   0.440550 0.421397 0.784820 -0.258503
C35   C     C_R   0.559379 0.578638 0.215176 -0.258403
C36   C     C_R   0.456052 0.765503 0.457371 -0.028945
C37   C     C_R   0.543939 0.234496 0.542637 -0.028964
C38   C     C_R   0.452660 0.852507 0.463466 0.326007
H1    H     H_    0.604171 0.710247 0.609046 0.216174
H2    H     H_    0.739824 0.621433 0.340422 0.346307
H3    H     H_    0.605050 0.298839 0.723421 0.344639
H4    H     H_    0.394908 0.701165 0.276591 0.344631
H5    H     H_    0.648212 0.130877 0.618907 0.354195
H6    H     H_    0.351800 0.869128 0.381087 0.354203
H7    H     H_    0.639103 0.957876 0.722145 0.366512
H8    H     H_    0.360932 0.042116 0.277845 0.366509
H9    H     H_    0.395848 0.289754 0.390939 0.216186
H10   H     H_    0.308693 0.410189 0.231096 0.403102
H11   H     H_    0.691299 0.589775 0.768930 0.403093
H12   H     H_    0.332558 0.479717 0.040609 0.377925
H13   H     H_    0.667269 0.520402 0.959436 0.377911
H14   H     H_    0.322987 0.358764 0.887129 0.358916
H15   H     H_    0.676881 0.641294 0.112838 0.358870
H16   H     H_    0.260273 0.378464 0.659449 0.346316
N1    N     N_2   0.509074 0.464047 0.992395 -0.101355
N2    N     N_2   0.490753 0.536073 0.007612 -0.101324
N3    N     N_R   0.510540 0.716920 0.509720 -0.146740
N4    N     N_R   0.489460 0.283080 0.490280 -0.146742
N5    N     N_2   0.511907 0.977431 0.530658 -0.017820
N6    N     N_2   0.488092 0.022568 0.469346 -0.017823
O1    O     O_R   0.496230 0.422540 0.612660 -0.610222
O2    O     O_3   0.643782 0.564036 0.733888 -0.745385
O3    O     O_3   0.338371 0.455620 0.097100 -0.711724
O4    O     O_3   0.661489 0.544470 0.902933 -0.711749
O5    O     O_3   0.381532 0.368804 0.918289 -0.681910
O6    O     O_3   0.618297 0.631325 0.081707 -0.681879
O7    O     O_2   0.356372 0.300049 0.756474 -0.547048
O8    O     O_R   0.307671 0.416857 0.684843 -0.825189
O9    O     O_2   0.643577 0.699951 0.243593 -0.546976
O10   O     O_R   0.692383 0.583071 0.315039 -0.825188
O11   O     O_2   0.678689 0.299578 0.593242 -0.617309
O12   O     O_R   0.503770 0.577460 0.387340 -0.610271
O13   O     O_R   0.560598 0.272317 0.684041 -0.755370
O14   O     O_2   0.321292 0.700424 0.406780 -0.617302
O15   O     O_R   0.439369 0.727682 0.315967 -0.755356
O16   O     O_3   0.607450 0.097779 0.584294 -0.697204
O17   O     O_3   0.392532 0.902221 0.415728 -0.697207
O18   O     O_2   0.689001 0.831763 0.671053 -0.596647
O19   O     O_R   0.595131 0.942588 0.676688 -0.718667
O20   O     O_2   0.311046 0.168249 0.328903 -0.596655
O21   O     O_R   0.404889 0.057401 0.323312 -0.718684
O22   O     O_R   0.503000 0.561840 0.618900 -0.579117
O23   O     O_R   0.497000 0.438160 0.381100 -0.579098
O24   O     O_R   0.622900 0.430330 0.496880 -0.581041
O25   O     O_R   0.377100 0.569670 0.503120 -0.581060
O26   O     O_R   0.629670 0.569640 0.503120 -0.597224
O27   O     O_R   0.370330 0.430360 0.496880 -0.597199
O28   O     O_3   0.356193 0.435953 0.266134 -0.745382
Zn1   Zn    Zn3+2 0.495480 0.406980 0.495830 1.023197
Zn2   Zn    Zn3+2 0.504520 0.593020 0.504170 1.023193

loop_
_geom_bond_atom_site_label_1
_geom_bond_atom_site_label_2
_ccdc_geom_bond_type
C6    C32   S    
N1    N2    D    
C10   O25   A    
C28   O9    D    
C32   O21   S    
H4    O15   S    
H2    O10   S    
H6    O17   S    
C19   C21   A    
C24   C26   A    
C30   O14   D    
C11   C14   T    
H16   O8    S    
C27   O8    S    
C8    N4    A    
C3    C38   A    
C16   C17   T    
C22   C25   A    
H10   O28   S    
C37   N4    A    
C12   O12   A    
C21   O28   S    
N5    N6    D    
H12   O3    S    
O1    Zn1   S    
C33   O6    S    
C18   C34   A    
C27   C34   S    
O23   Zn1   S    
C10   O27   A    
N3    Zn2   S    
C28   C35   S    
C4    C6    A    
C36   N3    A    
O26   Zn2   S    
C5    C7    A    
C6    C8    A    
C1    O22   A    
H3    O13   S    
C12   O23   A    
C26   N2    S    
C2    C4    A    
C9    O26   A    
C32   O20   D    
H8    O21   S    
O12   Zn2   S    
C26   C33   A    
C23   C34   A    
C4    N6    S    
C1    C18   S    
H7    O19   S    
H15   O6    S    
C9    C11   S    
C20   C22   A    
C24   O3    S    
C13   C15   T    
C14   C16   S    
O24   Zn1   S    
C2    O16   S    
C31   O18   D    
H5    O16   S    
C15   C17   S    
H11   O2    S    
C28   O10   S    
H13   O4    S    
C25   N1    S    
C3    C5    A    
C10   C13   S    
C1    O1    A    
O25   Zn2   S    
C31   O19   S    
C38   O17   S    
O22   Zn2   S    
C30   C36   S    
C23   O5    S    
C36   C38   A    
C8    H9    S    
C19   C35   A    
C30   O15   S    
C2    C37   A    
C12   C19   S    
C33   C35   A    
C18   C20   A    
C23   C25   A    
C20   O2    S    
N4    Zn1   S    
C27   O7    D    
C9    O24   A    
C22   O4    S    
C29   O13   S    
C21   C24   A    
C29   C37   S    
O27   Zn1   S    
C7    H1    S    
C5    C31   S    
C7    N3    A    
H14   O5    S    
C29   O11   D    
C3    N5    S    
