data_mof_unit_12854.cif
_audit_creation_date              2013-03-05T15:41:32-0500
_audit_creation_method            fapswitch 2.2
_symmetry_space_group_name_H-M    P1
_symmetry_Int_Tables_number       1
_space_group_crystal_system       triclinic
_cell_length_a                    24.731462
_cell_length_b                    17.647582
_cell_length_c                    15.496303
_cell_angle_alpha                 90.405294
_cell_angle_beta                  128.808213
_cell_angle_gamma                 90.112055
_cell_volume                      5270.03388649

loop_
_atom_site_label
_atom_site_type_symbol
_atom_site_description
_atom_site_fract_x
_atom_site_fract_y
_atom_site_fract_z
_atom_type_partial_charge
C1    C     C_R   0.347076 0.364051 0.233772 -0.097405
C2    C     C_R   0.336900 0.614285 0.205270 -0.076562
C3    C     C_R   0.848412 0.861712 0.237801 -0.097406
C4    C     C_R   0.834866 0.107019 0.200273 -0.107532
N1    N     N_R   0.389430 0.421450 0.294590 -0.072254
N2    N     N_R   0.389430 0.578550 0.294590 -0.076002
N3    N     N_R   0.889430 0.921450 0.294590 -0.077092
N4    N     N_R   0.889430 0.078550 0.294590 -0.072745
C5    C     C_R   0.652430 0.365653 0.765350 0.346508
C6    C     C_R   0.666885 0.606423 0.801012 0.339231
C7    C     C_R   0.146308 0.859563 0.750633 0.339652
C8    C     C_R   0.169328 0.094326 0.807028 0.268962
N5    N     N_R   0.612200 0.424040 0.705410 -0.108774
N6    N     N_R   0.612200 0.575960 0.705410 -0.110521
N7    N     N_R   0.112200 0.924040 0.705410 -0.107895
N8    N     N_R   0.112200 0.075960 0.705410 -0.109784
C9    C     C_R   0.613526 0.401610 0.404083 -0.005358
C10   C     C_R   0.605955 0.622459 0.406626 0.043613
C11   C     C_R   0.114424 0.899451 0.405106 0.052010
C12   C     C_R   0.089069 0.141254 0.407384 0.050737
N9    N     N_R   0.581780 0.422390 0.443390 -0.073956
N10   N     N_R   0.581780 0.577610 0.443390 -0.071709
N11   N     N_R   0.081780 0.922390 0.443390 -0.083597
N12   N     N_R   0.081780 0.077610 0.443390 -0.058128
C13   C     C_R   0.385478 0.402130 0.593073 0.251999
C14   C     C_R   0.412208 0.643675 0.590197 0.409483
C15   C     C_R   0.883121 0.909207 0.590876 0.216541
C16   C     C_R   0.900348 0.130880 0.592024 0.352118
N13   N     N_R   0.419850 0.423100 0.556610 -0.096857
N14   N     N_R   0.419850 0.576900 0.556610 -0.093981
N15   N     N_R   0.919850 0.923100 0.556610 -0.092148
N16   N     N_R   0.919850 0.076900 0.556610 -0.103879
C17   C     C_R   0.688946 0.404495 0.586415 -0.069775
C18   C     C_R   0.683161 0.615904 0.589776 -0.023882
C19   C     C_R   0.189116 0.904382 0.586593 -0.003183
C20   C     C_R   0.164434 0.140947 0.591924 -0.014056
N17   N     N_R   0.627410 0.423100 0.556610 -0.065204
N18   N     N_R   0.627410 0.576900 0.556610 -0.073357
N19   N     N_R   0.127410 0.923100 0.556610 -0.075397
N20   N     N_R   0.127410 0.076900 0.556610 -0.044865
C21   C     C_R   0.312505 0.401629 0.409893 -0.111059
C22   C     C_R   0.335831 0.639305 0.407198 -0.097084
C23   C     C_R   0.811189 0.908505 0.409777 -0.143086
C24   C     C_R   0.828625 0.131522 0.406985 -0.065474
H1    H     H_    0.267274 0.402040 0.323775 0.164066
H2    H     H_    0.289977 0.645166 0.323137 0.181383
H3    H     H_    0.765169 0.921623 0.327373 0.190438
H4    H     H_    0.789311 0.142645 0.320417 0.171482
N21   N     N_R   0.374220 0.422390 0.443390 -0.072585
N22   N     N_R   0.374220 0.577610 0.443390 -0.077526
N23   N     N_R   0.874220 0.922390 0.443390 -0.071921
N24   N     N_R   0.874220 0.077610 0.443390 -0.084224
C25   C     C_R   0.560982 0.365011 0.764037 -0.109976
C26   C     C_R   0.581805 0.598878 0.809378 0.006693
C27   C     C_R   0.054114 0.856558 0.745355 -0.035980
C28   C     C_R   0.080492 0.094627 0.809082 0.051594
H5    H     H_    0.527841 0.352318 0.784361 0.199350
H6    H     H_    0.557671 0.588757 0.846889 0.206569
H7    H     H_    0.015065 0.837003 0.751023 0.171082
H8    H     H_    0.054912 0.084681 0.844017 0.216940
N25   N     N_R   0.555000 0.424040 0.705410 -0.085086
N26   N     N_R   0.555000 0.575960 0.705410 -0.094357
N27   N     N_R   0.055000 0.924040 0.705410 -0.073082
N28   N     N_R   0.055000 0.075960 0.705410 -0.088449
C29   C     C_R   0.436504 0.362157 0.230651 0.385919
C30   C     C_R   0.425565 0.612058 0.200531 0.359312
C31   C     C_R   0.936390 0.861199 0.231482 0.365372
C32   C     C_R   0.923275 0.106271 0.195930 0.315397
N29   N     N_R   0.446630 0.421450 0.294590 -0.108921
N30   N     N_R   0.446630 0.578550 0.294590 -0.102966
N31   N     N_R   0.946630 0.921450 0.294590 -0.108623
N32   N     N_R   0.946630 0.078550 0.294590 -0.109921
C33   C     C_R   0.375942 0.324674 0.194145 -0.079203
C34   C     C_R   0.357902 0.636920 0.145315 -0.078465
C35   C     C_R   0.877263 0.820914 0.199286 -0.046391
C36   C     C_R   0.854544 0.126359 0.137702 -0.076827
C37   C     C_R   0.620598 0.326941 0.801396 -0.040318
C38   C     C_R   0.650143 0.622521 0.868354 -0.049899
C39   C     C_R   0.111416 0.815820 0.775586 -0.098160
C40   C     C_R   0.150063 0.108391 0.871802 -0.139382
C41   C     C_R   0.680656 0.388056 0.491573 0.136969
C42   C     C_R   0.669951 0.647622 0.497996 0.069794
C43   C     C_R   0.182480 0.887744 0.493441 0.088093
C44   C     C_R   0.144076 0.179651 0.498431 0.048670
C45   C     C_R   0.316378 0.388225 0.501632 0.070515
C46   C     C_R   0.359351 0.685190 0.497639 -0.009200
C47   C     C_R   0.814029 0.893569 0.499243 0.076122
C48   C     C_R   0.841425 0.165578 0.498820 -0.051033
Ni1   Ni    Ni4+2 0.382890 0.500000 0.370170 0.268697
Ni2   Ni    Ni4+2 0.882890 0.000000 0.370170 0.240095
Ni3   Ni    Ni4+2 0.618740 0.500000 0.629830 0.305837
Ni4   Ni    Ni4+2 0.118740 0.000000 0.629830 0.330853
Ni5   Ni    Ni4+2 0.514090 0.500000 0.370170 0.331144
Ni6   Ni    Ni4+2 0.014090 0.000000 0.370170 0.337904
Ni7   Ni    Ni4+2 0.487550 0.500000 0.629830 0.313651
Ni8   Ni    Ni4+2 0.987550 0.000000 0.629830 0.313258
C49   C     C_3   0.308014 0.266069 0.564168 -0.493297
C50   C     C_3   0.353746 0.789437 0.605816 -0.425189
C51   C     C_3   0.820502 0.786124 0.607371 -0.511263
C52   C     C_3   0.842299 0.295810 0.557455 -0.467575
H9    H     H_    0.324334 0.237004 0.519846 0.238035
H10   H     H_    0.400427 0.817357 0.624808 0.258101
H11   H     H_    0.870468 0.772187 0.625542 0.213754
H12   H     H_    0.862316 0.316980 0.514848 0.235832
C53   C     C_3   0.785672 0.714959 0.608299 0.186746
C54   C     C_3   0.801117 0.356092 0.566637 0.183813
C55   C     C_3   0.266054 0.212204 0.578633 0.210450
C56   C     C_3   0.306586 0.847896 0.602548 0.118734
H13   H     H_    0.284197 0.221007 0.664299 0.138868
H14   H     H_    0.305619 0.831953 0.671068 0.150153
H15   H     H_    0.784336 0.723747 0.678292 0.150094
H16   H     H_    0.819547 0.354757 0.653133 0.145683
C57   C     C_3   0.231722 0.373450 0.548288 0.118297
C58   C     C_3   0.251423 0.700877 0.472759 0.092533
C59   C     C_3   0.706542 0.856643 0.480941 0.115740
C60   C     C_3   0.760964 0.194991 0.542457 0.089273
C61   C     C_3   0.205996 0.311194 0.375740 0.017653
C62   C     C_3   0.287338 0.806451 0.402891 0.085940
C63   C     C_3   0.748792 0.769101 0.399274 0.052401
C64   C     C_3   0.738536 0.250954 0.369202 0.040019
C65   C     C_3   0.266054 0.338394 0.498867 -0.091138
C66   C     C_3   0.314234 0.743973 0.494623 -0.150782
C67   C     C_3   0.772092 0.829462 0.495152 -0.114340
C68   C     C_3   0.796625 0.224243 0.493404 -0.091396
H17   H     H_    0.230937 0.287198 0.341906 0.161495
H18   H     H_    0.333642 0.842374 0.435266 0.197196
H19   H     H_    0.797101 0.741886 0.423551 0.193016
H20   H     H_    0.767147 0.270169 0.339416 0.172473
C69   C     C_3   0.708180 0.711143 0.498473 -0.248743
C70   C     C_3   0.722757 0.333015 0.486872 -0.230657
C71   C     C_3   0.187381 0.235600 0.495693 -0.206003
C72   C     C_3   0.230835 0.840321 0.490654 -0.236696
C73   C     C_3   0.674173 0.787691 0.497747 -0.018554
C74   C     C_3   0.714005 0.257441 0.531346 -0.019074
C75   C     C_3   0.181817 0.313291 0.539694 -0.035367
C76   C     C_3   0.207573 0.755534 0.483744 -0.005770
C77   C     C_3   0.701870 0.708686 0.392104 0.091522
C78   C     C_3   0.698122 0.318981 0.366505 0.087743
C79   C     C_3   0.163434 0.247055 0.375219 0.088328
C80   C     C_3   0.230025 0.855919 0.389874 0.091170
H21   H     H_    0.647899 0.725362 0.323725 0.177431
H22   H     H_    0.642235 0.303573 0.311304 0.177797
H23   H     H_    0.108272 0.264626 0.321907 0.169995
H24   H     H_    0.178648 0.837260 0.314231 0.178013
H25   H     H_    0.688642 0.205266 0.825673 0.219655
H26   H     H_    0.787650 0.603246 0.025598 0.213961
H27   H     H_    0.231818 0.798473 0.958162 0.175912
H28   H     H_    0.214301 0.230583 0.929844 0.158775
C81   C     C_2   0.654135 0.274003 0.891243 -0.069937
C82   C     C_2   0.696737 0.656013 0.981045 -0.071454
C83   C     C_2   0.137602 0.744968 0.836331 -0.001934
C84   C     C_2   0.196329 0.134344 0.985554 0.062183
C85   C     C_2   0.697077 0.223797 0.900103 -0.155883
C86   C     C_2   0.765700 0.645092 0.046895 -0.106109
C87   C     C_2   0.204447 0.744418 0.925696 -0.111590
C88   C     C_2   0.230933 0.197431 0.001803 -0.157764
C89   C     C_2   0.315766 0.682677 0.045657 0.232932
C90   C     C_2   0.338462 0.266720 0.107959 0.228744
C91   C     C_2   0.804539 0.151936 0.024344 0.219755
C92   C     C_2   0.843770 0.754969 0.123343 0.186886
C93   C     C_2   0.245651 0.675601 0.977948 0.210068
C94   C     C_2   0.295609 0.219631 0.108720 0.216251
C95   C     C_2   0.763057 0.208730 0.009037 0.215604
C96   C     C_2   0.814507 0.697297 0.140022 0.201778
H29   H     H_    0.654939 0.288617 0.960064 0.221681
H30   H     H_    0.675042 0.695638 0.005814 0.208803
H31   H     H_    0.105998 0.693941 0.800793 0.204131
H32   H     H_    0.209221 0.097960 0.052195 0.203164
H33   H     H_    0.297196 0.354399 0.213924 0.149120
H34   H     H_    0.285131 0.617277 0.179699 0.168927
H35   H     H_    0.800029 0.850576 0.221746 0.182556
H36   H     H_    0.782130 0.102679 0.170994 0.156384
N33   N     N_R   0.827876 0.646769 0.635429 0.291785
O1    O     O_R   0.866723 0.641042 0.605873 -0.266447
O2    O     O_R   0.845546 0.606726 0.719685 -0.268670
N34   N     N_R   0.814160 0.433651 0.548926 0.301086
O3    O     O_R   0.854113 0.447716 0.523068 -0.239712
O4    O     O_R   0.790751 0.490470 0.570209 -0.300749
N35   N     N_R   0.283713 0.133075 0.574951 0.292959
O5    O     O_R   0.348710 0.113671 0.640504 -0.241539
O6    O     O_R   0.237063 0.079993 0.519427 -0.298110
N36   N     N_R   0.335687 0.925082 0.626994 0.286642
O7    O     O_R   0.362365 0.950680 0.582409 -0.266208
O8    O     O_R   0.348123 0.962181 0.710695 -0.250144
N37   N     N_R   0.282171 0.400911 0.663066 0.263019
O9    O     O_R   0.284127 0.472713 0.684642 -0.195049
O10   O     O_R   0.314921 0.353857 0.745362 -0.287068
N38   N     N_R   0.271604 0.634371 0.543747 0.259558
O11   O     O_R   0.255856 0.566749 0.499919 -0.324691
O12   O     O_R   0.301096 0.641726 0.648415 -0.265549
N39   N     N_R   0.720964 0.921013 0.553516 0.278334
O13   O     O_R   0.705226 0.989059 0.513065 -0.276768
O14   O     O_R   0.740300 0.910940 0.652462 -0.256422
N40   N     N_R   0.809109 0.170918 0.658412 0.258137
O15   O     O_R   0.801095 0.103960 0.683696 -0.177193
O16   O     O_R   0.848538 0.219925 0.738162 -0.288791
H37   H     H_    0.687624 0.792124 0.580825 0.190751
H38   H     H_    0.731724 0.269789 0.616061 0.189007
H39   H     H_    0.198848 0.302809 0.624274 0.164899
H40   H     H_    0.217517 0.744334 0.563242 0.195705
N41   N     N_R   0.711661 0.799113 0.286585 0.226489
O17   O     O_R   0.657409 0.841843 0.241470 -0.332197
O18   O     O_R   0.720998 0.766526 0.221454 -0.366979
N42   N     N_R   0.688016 0.192706 0.288713 0.257337
O19   O     O_R   0.686894 0.123695 0.316585 -0.334326
O20   O     O_R   0.645860 0.209569 0.184070 -0.257229
N43   N     N_R   0.159162 0.371182 0.297955 0.253921
O21   O     O_R   0.170004 0.442665 0.325533 -0.310785
O22   O     O_R   0.111385 0.353261 0.194093 -0.262111
N44   N     N_R   0.262077 0.777685 0.294004 0.229865
O23   O     O_R   0.201855 0.744183 0.226691 -0.352019
O24   O     O_R   0.297053 0.792488 0.259175 -0.333155
N45   N     N_R   0.709664 0.633838 0.358580 0.277102
O25   O     O_R   0.657330 0.604766 0.264049 -0.252673
O26   O     O_R   0.769795 0.602275 0.409849 -0.189406
N46   N     N_R   0.704369 0.385622 0.315995 0.269158
O27   O     O_R   0.697135 0.376278 0.225820 -0.256180
O28   O     O_R   0.695408 0.453523 0.337751 -0.268385
N47   N     N_R   0.166451 0.178050 0.323914 0.271120
O29   O     O_R   0.110744 0.155477 0.227807 -0.245327
O30   O     O_R   0.225650 0.151014 0.357521 -0.245563
N48   N     N_R   0.235603 0.936801 0.372264 0.292717
O31   O     O_R   0.278905 0.959295 0.356345 -0.237991
O32   O     O_R   0.185608 0.982413 0.343045 -0.269860
H41   H     H_    0.200995 0.423279 0.498898 0.216911
H42   H     H_    0.219966 0.679119 0.386390 0.190993
H43   H     H_    0.668431 0.877230 0.395559 0.201915
H44   H     H_    0.728980 0.144593 0.494713 0.216596
N49   N     N_R   0.724362 0.362448 0.815177 0.220968
O33   O     O_R   0.763478 0.422101 0.864903 -0.309869
O34   O     O_R   0.749502 0.303171 0.801580 -0.364234
N50   N     N_R   0.729661 0.627758 0.822673 0.205853
O35   O     O_R   0.737619 0.697294 0.804955 -0.352948
O36   O     O_R   0.777355 0.577764 0.854831 -0.311040
N51   N     N_R   0.211204 0.841780 0.777010 0.207214
O37   O     O_R   0.264814 0.885109 0.845714 -0.289324
O38   O     O_R   0.219096 0.777146 0.745335 -0.361891
N52   N     N_R   0.237504 0.069670 0.849833 0.257925
O39   O     O_R   0.247144 0.039143 0.783918 -0.352378
O40   O     O_R   0.287364 0.065617 0.956040 -0.273013
N53   N     N_R   0.597678 0.788653 0.417624 0.251575
O41   O     O_R   0.564438 0.798827 0.312319 -0.301729
O42   O     O_R   0.562291 0.785266 0.453652 -0.308336
N54   N     N_R   0.641418 0.231310 0.466755 0.257813
O43   O     O_R   0.609196 0.198209 0.370719 -0.265969
O44   O     O_R   0.610852 0.234487 0.511003 -0.324496
N55   N     N_R   0.109967 0.340655 0.474218 0.258692
O45   O     O_R   0.079880 0.374645 0.380148 -0.289573
O46   O     O_R   0.077288 0.335933 0.514808 -0.305976
N56   N     N_R   0.133310 0.740330 0.394902 0.251123
O47   O     O_R   0.108758 0.731983 0.292637 -0.283199
O48   O     O_R   0.093321 0.724754 0.420211 -0.302549
N57   N     N_R   0.212469 0.604882 0.967533 0.237782
O49   O     O_R   0.157003 0.604202 0.959937 -0.318526
O50   O     O_R   0.238754 0.540781 0.968396 -0.316931
N58   N     N_R   0.307244 0.201505 0.209883 0.240498
O51   O     O_R   0.255154 0.194409 0.210571 -0.330008
O52   O     O_R   0.369977 0.192189 0.301587 -0.301270
N59   N     N_R   0.785233 0.257989 0.101102 0.242195
O53   O     O_R   0.842223 0.297416 0.150483 -0.278785
O54   O     O_R   0.754493 0.255028 0.145025 -0.379401
N60   N     N_R   0.830877 0.683483 0.245842 0.271438
O55   O     O_R   0.795698 0.632487 0.252737 -0.234086
O56   O     O_R   0.888030 0.709552 0.337216 -0.344956
N61   N     N_R   0.348896 0.746912 0.039098 0.255790
O57   O     O_R   0.395237 0.786139 0.127926 -0.254702
O58   O     O_R   0.343467 0.756166 0.950857 -0.208327
N62   N     N_R   0.333778 0.274518 0.010827 0.250607
O59   O     O_R   0.330398 0.341366 0.972861 -0.263921
O60   O     O_R   0.334046 0.214909 0.961267 -0.279135
N63   N     N_R   0.791079 0.106627 0.934965 0.261815
O61   O     O_R   0.782911 0.139006 0.852396 -0.228984
O62   O     O_R   0.800812 0.033779 0.946821 -0.269009
N64   N     N_R   0.838481 0.755737 0.025676 0.267979
O63   O     O_R   0.822662 0.818211 0.970583 -0.251037
O64   O     O_R   0.864505 0.699962 0.007267 -0.224065
H45   H     H_    0.591827 0.405976 0.318842 0.182626
H46   H     H_    0.579458 0.637059 0.321727 0.171186
H47   H     H_    0.092593 0.898354 0.319453 0.182839
H48   H     H_    0.058389 0.157832 0.322592 0.141265
N65   N     N_R   0.408147 0.425029 0.699849 0.246237
O65   O     O_R   0.416819 0.496640 0.725283 -0.281643
O66   O     O_R   0.432396 0.375789 0.778052 -0.324477
N66   N     N_R   0.455282 0.669830 0.702287 0.194450
O67   O     O_R   0.496121 0.727999 0.731518 -0.394965
O68   O     O_R   0.446682 0.643412 0.771122 -0.276791
N67   N     N_R   0.905516 0.936417 0.696473 0.238891
O69   O     O_R   0.860628 0.959905 0.707868 -0.230345
O70   O     O_R   0.970762 0.950534 0.776186 -0.373064
N68   N     N_R   0.936879 0.149623 0.706036 0.226600
O71   O     O_R   0.981395 0.205455 0.750919 -0.385163
O72   O     O_R   0.937731 0.101540 0.769984 -0.240241
H49   H     H_    0.737215 0.406776 0.669820 0.186950
H50   H     H_    0.731513 0.615679 0.670945 0.205984
H51   H     H_    0.237089 0.913194 0.668361 0.206118
H52   H     H_    0.205696 0.156459 0.677084 0.142984
N69   N     N_R   0.474525 0.347290 0.191438 0.219691
O73   O     O_R   0.476654 0.398158 0.133434 -0.252918
O74   O     O_R   0.490501 0.277828 0.187828 -0.273922
N70   N     N_R   0.456577 0.597605 0.148906 0.242832
O75   O     O_R   0.433420 0.629947 0.056511 -0.234344
O76   O     O_R   0.502142 0.544199 0.186311 -0.344437
N71   N     N_R   0.970671 0.850005 0.185202 0.228338
O77   O     O_R   0.974617 0.905546 0.134815 -0.268698
O78   O     O_R   0.982102 0.781641 0.169051 -0.242301
N72   N     N_R   0.957329 0.095895 0.148603 0.252481
O79   O     O_R   0.939764 0.136139 0.064651 -0.228567
O80   O     O_R   0.009043 0.049450 0.193433 -0.311198
H53   H     H_    0.356671 0.279118 0.647677 0.241273
H54   H     H_    0.371107 0.752021 0.675243 0.261643
H55   H     H_    0.834372 0.822884 0.677000 0.249221
H56   H     H_    0.888314 0.283540 0.642126 0.262550

loop_
_geom_bond_atom_site_label_1
_geom_bond_atom_site_label_2
_geom_bond_distance
_ccdc_geom_bond_type
C51   H11   1.110341 S    
C27   H7    1.079327 S    
N69   O74   1.300207 A    
N40   O16   1.302769 A    
N71   O78   1.297636 A    
C60   H44   1.103850 S    
N66   O67   1.301921 A    
N29   Ni5   1.896205 S    
C75   H39   1.114132 S    
N6    N26   1.414640 A    
N56   O48   1.301591 A    
N63   O61   1.300491 A    
N10   N18   1.367680 A    
C52   H12   1.110436 S    
C50   C56   1.535770 S    
N54   O43   1.300153 A    
N64   O63   1.301468 A    
C81   C85   1.324537 D    
N36   O7    1.300518 A    
N16   N24   1.367680 A    
C7    N7    1.330970 A    
C84   C88   1.325711 D    
C29   N69   1.427293 S    
C96   N60   1.444382 S    
C50   H54   1.099993 S    
N67   O70   1.298997 A    
C45   C65   1.500834 S    
C22   C46   1.385116 A    
C83   C87   1.334736 D    
H27   C87   1.088646 S    
C59   N39   1.469713 S    
C8    N52   1.441287 S    
N26   Ni7   1.863206 S    
N5    Ni3   1.858406 S    
C76   N56   1.471088 S    
C61   C79   1.540710 S    
C62   C80   1.568720 S    
C21   N21   1.317326 A    
N45   O26   1.296757 A    
C7    N51   1.422343 S    
N52   O40   1.301004 A    
C59   C67   1.569635 S    
C15   N15   1.331454 A    
N39   O13   1.301212 A    
C16   N16   1.329467 A    
N30   Ni5   1.913013 S    
C94   N58   1.443844 S    
C50   H10   1.109990 S    
N27   Ni8   1.879750 S    
C9    N9    1.311233 A    
C31   N71   1.425801 S    
C52   C68   1.558083 S    
C11   N11   1.328844 A    
C59   H43   1.102717 S    
N49   O33   1.299245 A    
C75   N55   1.473311 S    
C57   H41   1.104379 S    
N71   O77   1.298418 A    
H26   C86   1.082422 S    
C32   N32   1.347282 A    
C6    N50   1.416879 S    
N72   O79   1.300581 A    
C5    C37   1.397489 A    
C7    C39   1.381984 A    
C69   C73   1.589074 S    
N62   O60   1.300539 A    
C64   C78   1.547568 S    
C13   N65   1.429110 S    
C70   C78   1.574846 S    
C89   N61   1.438406 S    
N70   O75   1.299531 A    
N57   O50   1.301770 A    
C54   C70   1.560975 S    
C73   H37   1.111693 S    
C34   C89   1.458329 S    
C55   N35   1.475312 S    
N59   O54   1.301117 A    
C53   C69   1.575925 S    
C63   C67   1.605077 S    
C52   C54   1.540475 S    
C80   N48   1.477441 S    
C30   N30   1.344312 A    
N9    Ni5   1.901556 S    
C83   H31   1.084353 S    
C30   N70   1.435359 S    
C10   C42   1.373471 A    
C76   H40   1.114046 S    
C49   C55   1.523641 S    
C20   H52   1.078715 S    
C69   C77   1.555567 S    
C57   C75   1.566853 S    
C58   C76   1.539015 S    
C23   H3    1.078473 S    
N1    Ni1   1.880120 S    
C24   H4    1.073810 S    
C48   C68   1.481763 S    
C6    C38   1.370773 A    
N13   N21   1.367413 A    
C85   C95   1.462327 S    
C32   N72   1.433046 S    
N46   O28   1.299099 A    
N23   Ni2   1.880176 S    
N57   O49   1.301237 A    
C52   H56   1.094044 S    
N37   O10   1.301860 A    
N15   Ni8   1.876325 S    
C82   H30   1.086278 S    
C95   N59   1.446281 S    
C13   N13   1.335153 A    
N38   O12   1.301323 A    
N53   O41   1.301609 A    
C62   C66   1.587034 S    
C5    N5    1.331758 A    
C18   H50   1.061548 S    
C25   N25   1.333393 A    
N58   O52   1.301673 A    
C28   N28   1.345023 A    
C3    C35   1.383246 A    
C9    C41   1.355162 A    
C60   N40   1.469017 S    
C24   N24   1.307452 A    
N34   O4    1.298568 A    
C53   N33   1.475249 S    
N41   O18   1.298876 A    
C11   C43   1.366346 A    
N33   O2    1.301602 A    
C8    N8    1.335379 A    
C81   H29   1.083400 S    
N28   Ni8   1.863206 S    
C6    N6    1.336933 A    
N3    Ni2   1.880120 S    
N48   O32   1.299643 A    
C72   C76   1.580649 S    
C57   N37   1.469343 S    
C13   C45   1.395268 A    
C42   C69   1.462022 S    
C15   C47   1.401289 A    
N61   O58   1.299098 A    
C74   N54   1.474860 S    
C22   N22   1.321592 A    
C14   N14   1.345644 A    
N44   O24   1.301573 A    
C12   C44   1.370230 A    
C64   N42   1.482221 S    
C31   C35   1.403263 A    
N63   O62   1.301366 A    
C50   C66   1.560292 S    
C21   H1    1.077646 S    
C4    H36   1.081736 S    
C10   N10   1.319066 A    
C12   H48   1.069793 S    
N15   N23   1.367413 A    
N60   O55   1.301183 A    
N65   O66   1.299752 A    
N8    N28   1.414640 A    
C28   C40   1.364908 A    
N41   O17   1.301282 A    
N66   O68   1.300538 A    
N32   Ni6   1.913013 S    
C47   C67   1.507177 S    
N54   O44   1.301542 A    
N64   O64   1.301200 A    
N14   N22   1.367680 A    
N36   O8    1.301072 A    
N6    Ni3   1.846873 S    
C56   C72   1.567880 S    
C71   C79   1.580150 S    
C15   N67   1.437661 S    
C79   N47   1.477032 S    
C92   N64   1.435298 S    
N42   O19   1.301096 A    
N43   O22   1.301627 A    
C54   N34   1.472207 S    
C18   C42   1.368368 A    
C61   H17   1.112620 S    
C9    H45   1.073232 S    
C63   H19   1.114024 S    
C35   C92   1.476633 S    
C11   H47   1.074700 S    
C36   C91   1.452362 S    
N24   Ni2   1.869059 S    
C70   C74   1.580963 S    
N45   O25   1.301756 A    
C87   C93   1.467488 S    
C78   N46   1.477664 S    
C1    N1    1.325317 A    
C92   C96   1.364447 D    
C51   C67   1.566902 S    
C3    N3    1.333653 A    
C64   H20   1.113279 S    
C60   C74   1.533002 S    
C58   N38   1.472770 S    
C40   C84   1.443838 S    
N68   O71   1.301125 A    
C22   H2    1.069747 S    
N1    N29   1.414640 A    
C46   C66   1.504393 S    
N72   O80   1.299481 A    
N51   O37   1.300495 A    
N40   O15   1.300797 A    
C53   H15   1.115430 S    
C91   N63   1.440097 S    
C55   H13   1.112618 S    
C84   H32   1.085299 S    
N70   O76   1.298963 A    
N55   O46   1.301315 A    
N4    N32   1.414640 A    
N43   O21   1.301268 A    
C78   H22   1.108747 S    
C37   C81   1.439866 S    
N47   O29   1.300933 A    
C19   C43   1.376125 A    
C59   C73   1.565687 S    
N56   O47   1.300773 A    
N18   Ni3   1.871013 S    
C17   N17   1.326762 A    
C28   H8    1.074391 S    
C19   N19   1.330160 A    
N39   O14   1.302461 A    
N14   Ni7   1.892600 S    
C58   H42   1.109255 S    
C27   C39   1.386095 A    
N22   Ni1   1.869059 S    
N67   O69   1.296871 A    
C2    H34   1.078763 S    
N8    Ni4   1.846873 S    
C32   C36   1.383347 A    
C89   C93   1.356545 D    
N19   Ni4   1.859947 S    
C19   H51   1.072156 S    
C86   C96   1.477106 S    
N2    N30   1.414640 A    
C77   H21   1.106429 S    
N52   O39   1.299372 A    
C25   H5    1.070036 S    
C60   C68   1.570440 S    
C80   H24   1.105884 S    
C61   N43   1.479235 S    
N25   Ni7   1.879750 S    
C72   C80   1.575430 S    
C26   N26   1.360065 A    
N37   O9    1.301242 A    
C1    C33   1.383850 A    
C43   C72   1.483435 S    
N49   O34   1.299587 A    
C23   N23   1.319211 A    
C41   C70   1.459788 S    
C29   N29   1.346342 A    
N50   O35   1.300600 A    
C31   N31   1.350880 A    
N35   O5    1.301330 A    
N9    N17   1.367412 A    
N62   O59   1.301305 A    
H28   C88   1.090955 S    
C26   C38   1.386216 A    
C30   C34   1.392276 A    
C49   H53   1.103873 S    
N69   O73   1.298906 A    
C51   H55   1.108167 S    
C63   N41   1.475884 S    
C4    N4    1.323058 A    
C93   N57   1.443665 S    
N31   Ni6   1.896205 S    
C54   H16   1.113368 S    
N33   O1    1.301664 A    
C71   C75   1.571225 S    
N3    N31   1.414640 A    
C29   C33   1.389152 A    
C5    N49   1.429497 S    
C61   C65   1.584029 S    
C73   N53   1.475505 S    
N7    Ni4   1.858406 S    
C10   H46   1.073077 S    
C12   N12   1.318889 A    
C56   H14   1.114996 S    
C16   C48   1.400873 A    
C49   C65   1.561148 S    
N61   O57   1.301348 A    
C2    C34   1.379056 A    
H25   C85   1.083305 S    
C88   C94   1.457269 S    
N51   O38   1.301180 A    
C2    N2    1.327759 A    
C79   H23   1.110145 S    
N50   O36   1.300599 A    
C51   C53   1.526748 S    
C90   N62   1.443047 S    
N17   Ni3   1.859947 S    
C63   C77   1.525642 S    
C20   N20   1.332123 A    
N46   O27   1.301968 A    
C55   C71   1.576152 S    
N13   Ni7   1.876325 S    
N60   O56   1.301581 A    
N65   O65   1.297828 A    
C33   C90   1.454018 S    
C27   N27   1.352472 A    
N38   O11   1.300860 A    
N53   O42   1.301511 A    
N12   Ni6   1.885206 S    
N47   O30   1.301123 A    
C14   C46   1.404042 A    
N58   O51   1.300769 A    
C57   C65   1.581346 S    
N20   Ni4   1.871013 S    
N34   O3    1.302006 A    
N16   Ni8   1.892600 S    
N42   O20   1.301538 A    
C25   C37   1.378345 A    
N10   Ni5   1.885206 S    
C91   C95   1.347460 D    
N4    Ni2   1.891833 S    
N59   O53   1.301150 A    
C38   C82   1.478916 S    
C39   C83   1.457601 S    
C26   H6    1.077927 S    
C74   H38   1.112378 S    
C77   N45   1.472609 S    
C18   N18   1.319888 A    
C14   N66   1.425631 S    
N21   Ni1   1.880176 S    
N55   O45   1.301160 A    
N2    Ni1   1.891833 S    
C21   C45   1.385746 A    
C44   C71   1.475513 S    
N11   Ni6   1.901556 S    
C56   N36   1.471084 S    
C62   N44   1.469859 S    
C23   C47   1.371020 A    
C16   N68   1.427210 S    
C3    H35   1.075916 S    
C20   C44   1.385682 A    
N11   N19   1.367412 A    
C8    C40   1.375689 A    
C1    H33   1.080845 S    
N12   N20   1.367680 A    
N68   O72   1.299326 A    
N48   O31   1.302373 A    
C17   H49   1.078103 S    
C4    C36   1.374414 A    
C90   C94   1.351414 D    
C58   C66   1.561527 S    
N5    N25   1.414640 A    
N44   O23   1.302453 A    
C82   C86   1.345342 D    
N7    N27   1.414640 A    
C62   H18   1.112444 S    
C24   C48   1.381702 A    
C17   C41   1.379225 A    
C49   H9    1.114013 S    
C64   C68   1.593784 S    
N35   O6    1.299620 A    
