data_mof_unit_59852.cif
_audit_creation_date              2012-12-10T20:25:44-0500
_audit_creation_method            fapswitch 2.2
_symmetry_space_group_name_H-M    P1
_symmetry_Int_Tables_number       1
_space_group_crystal_system       triclinic
_cell_length_a                    8.590606
_cell_length_b                    10.669156
_cell_length_c                    9.88624
_cell_angle_alpha                 90.008349
_cell_angle_beta                  98.059355
_cell_angle_gamma                 90.031521
_cell_volume                      897.168974881

loop_
_atom_site_label
_atom_site_type_symbol
_atom_type_description
_atom_site_fract_x
_atom_site_fract_y
_atom_site_fract_z
_atom_type_partial_charge
C1    C     C_R   0.495041 0.260009 0.499438 0.869293
C2    C     C_R   0.397761 0.425731 0.916683 0.204605
C3    C     C_3   0.222955 0.434769 0.892742 -0.499611
C4    C     C_R   0.201368 0.500185 0.464360 0.952002
C5    C     C_3   0.224344 0.429754 0.045884 -0.478827
C6    C     C_R   0.495019 0.739974 0.499389 0.870933
C7    C     C_R   0.798371 0.500331 0.535236 0.975143
C8    C     C_2   0.036405 0.500431 0.444418 -0.368811
C9    C     C_2   0.962804 0.500900 0.553608 -0.403518
C10   C     C_R   0.471140 0.063855 0.619435 0.133016
C11   C     C_R   0.469557 0.128597 0.497025 -0.098842
C12   C     C_R   0.436946 0.935120 0.372140 -0.246570
C13   C     C_R   0.437123 0.064756 0.372164 -0.227566
C14   C     C_3   0.727810 0.760128 0.137577 0.108260
C15   C     C_3   0.888817 0.792572 0.099503 -0.884608
C16   C     C_R   0.469371 0.871322 0.496967 -0.100236
C17   C     C_R   0.471001 0.936078 0.619380 0.141427
C18   C     C_3   0.583439 0.928789 0.749061 -0.491805
C19   C     C_3   0.583883 0.070913 0.749025 -0.479565
C20   C     C_R   0.398849 0.424645 0.059190 0.114931
C21   C     C_R   0.608489 0.567644 0.085749 0.515660
C22   C     C_R   0.609683 0.565146 0.941018 -0.255883
H1    H     H_    0.975958 0.499906 0.340043 0.210758
H2    H     H_    0.527734 0.887930 0.833878 0.198596
H3    H     H_    0.698605 0.887089 0.734566 0.203251
H4    H     H_    0.529071 0.112132 0.834244 0.203323
H5    H     H_    0.699246 0.112066 0.734081 0.203681
H6    H     H_    0.711051 0.815472 0.229572 0.176341
H7    H     H_    0.634146 0.791225 0.054685 0.096451
H8    H     H_    0.910575 0.739332 0.007537 0.242552
H9    H     H_    0.894536 0.894427 0.077431 0.220292
H10   H     H_    0.981982 0.769034 0.185437 0.263850
H11   H     H_    0.697209 0.617443 0.896041 0.168422
H12   H     H_    0.183252 0.527426 0.849919 0.206705
H13   H     H_    0.167104 0.351506 0.838351 0.201153
H14   H     H_    0.180290 0.517339 0.088304 0.221580
H15   H     H_    0.173709 0.341720 0.081207 0.201206
H16   H     H_    0.022698 0.501557 0.657141 0.173012
H17   H     H_    0.422935 0.113816 0.275272 0.170227
H18   H     H_    0.422563 0.886038 0.275240 0.162096
N1    N     N_R   0.498950 0.499140 0.142680 -0.149966
N2    N     N_R   0.498950 0.499180 0.857030 -0.126575
O1    O     O_R   0.500020 0.316790 0.614690 -0.615276
O2    O     O_R   0.500000 0.316760 0.385350 -0.625749
O3    O     O_R   0.271760 0.500010 0.587850 -0.612033
O4    O     O_R   0.271740 0.499970 0.358500 -0.632856
O5    O     O_R   0.500000 0.683240 0.614650 -0.619140
O6    O     O_R   0.499980 0.683210 0.385310 -0.613450
O7    O     O_R   0.728260 0.500030 0.641500 -0.632305
O8    O     O_R   0.728240 0.499990 0.412150 -0.562836
O9    O     O_3   0.722952 0.631422 0.171794 -0.590866
Zn1   Zn    Zn3+2 0.500010 0.500020 0.653130 0.938224
Zn2   Zn    Zn3+2 0.499990 0.499980 0.346870 0.969905

loop_
_geom_bond_atom_site_label_1
_geom_bond_atom_site_label_2
_ccdc_geom_bond_type
C12   H18   S    
C15   H9    S    
O5    Zn1   S    
C5    H15   S    
C19   H5    S    
C1    O2    A    
C14   O9    S    
C3    H12   S    
C3    H13   S    
C10   C19   S    
C4    C8    S    
O7    Zn1   S    
C2    C3    S    
C15   H10   S    
C5    C20   S    
C4    O4    A    
C21   C22   A    
C11   C13   A    
N1    Zn2   S    
C22   N2    A    
C18   H3    S    
C6    O6    A    
C2    N2    A    
C21   N1    A    
O4    Zn2   S    
C9    H16   S    
C17   C18   S    
C4    O3    A    
O6    Zn2   S    
C18   H2    S    
O1    Zn1   S    
C13   H17   S    
O8    Zn2   S    
C10   C11   A    
C14   H7    S    
C2    C20   A    
C5    H14   S    
C21   O9    S    
C8    H1    S    
C12   C13   A    
C7    O7    A    
C15   H8    S    
C18   C19   S    
C6    O5    A    
N2    Zn1   S    
C7    C9    S    
C19   H4    S    
C14   C15   S    
C8    C9    D    
C1    C11   S    
C10   C17   A    
O3    Zn1   S    
C14   H6    S    
C6    C16   S    
O2    Zn2   S    
C1    O1    A    
C12   C16   A    
C7    O8    A    
C20   N1    A    
C16   C17   A    
C3    C5    S    
C22   H11   S    
