data_mof_unit_44986.cif
_audit_creation_date              2012-12-11T17:09:35-0500
_audit_creation_method            fapswitch 2.2
_symmetry_space_group_name_H-M    P1
_symmetry_Int_Tables_number       1
_space_group_crystal_system       triclinic
_cell_length_a                    14.844273
_cell_length_b                    6.9811
_cell_length_c                    13.479288
_cell_angle_alpha                 89.999974
_cell_angle_beta                  99.967042
_cell_angle_gamma                 90.000027
_cell_volume                      1375.76792159

loop_
_atom_site_label
_atom_site_type_symbol
_atom_type_description
_atom_site_fract_x
_atom_site_fract_y
_atom_site_fract_z
_atom_type_partial_charge
O1    O     O_R   0.586930 0.505770 0.416350 -0.533383
O2    O     O_R   0.413070 0.005770 0.583650 -0.533382
O3    O     O_R   0.397900 0.173100 0.389630 -0.533026
O4    O     O_R   0.602100 0.673100 0.610370 -0.533026
C1    C     C_R   0.364433 0.345349 0.362949 0.722279
C2    C     C_R   0.635567 0.845349 0.637051 0.722280
O5    O     O_R   0.585280 0.175870 0.404330 -0.545676
O6    O     O_R   0.414720 0.675870 0.595670 -0.545677
O7    O     O_R   0.601790 0.008380 0.598460 -0.535517
O8    O     O_R   0.398210 0.508380 0.401540 -0.535516
C3    C     C_R   0.614436 0.345448 0.382627 0.711907
C4    C     C_R   0.385564 0.845447 0.617374 0.711909
O9    O     O_3   0.505200 0.340120 0.563670 -0.375311
O10   O     O_3   0.494800 0.840120 0.436330 -0.375313
V1    V     V_3+5 0.499040 0.064180 0.488190 1.387545
V2    V     V_3+5 0.500960 0.564180 0.511810 1.387547
C5    C     C_R   0.316319 0.009120 0.754502 -0.006952
C6    C     C_R   0.683681 0.509118 0.245498 -0.006965
C7    C     C_R   0.317686 0.856788 0.686699 -0.113598
C8    C     C_R   0.682315 0.356789 0.313302 -0.113599
C9    C     C_R   0.245487 0.725631 0.678393 -0.185421
C10   C     C_R   0.754515 0.225635 0.321610 -0.185398
H1    H     H_    0.236030 0.629907 0.615576 0.132195
H2    H     H_    0.763974 0.129914 0.384429 0.132186
C11   C     C_R   0.180202 0.732509 0.742847 -0.181691
C12   C     C_R   0.819799 0.232512 0.257155 -0.181688
H3    H     H_    0.123967 0.632095 0.731665 0.177464
H4    H     H_    0.876036 0.132100 0.268338 0.177455
C13   C     C_R   0.183165 0.877916 0.815512 -0.155560
C14   C     C_R   0.816835 0.377915 0.184488 -0.155566
C15   C     C_R   0.251480 0.016942 0.819092 0.022138
C16   C     C_R   0.748518 0.516939 0.180907 0.022142
C17   C     C_3   0.238312 0.228233 0.805234 0.631002
C18   C     C_3   0.761684 0.728231 0.194760 0.630991
C19   C     C_3   0.307152 0.220258 0.731346 0.175749
C20   C     C_3   0.692845 0.720259 0.268649 0.175768
C21   C     C_1   0.783515 0.877187 0.782867 -0.176382
C22   C     C_1   0.216485 0.377187 0.217133 -0.176385
C23   C     C_1   0.716155 0.860046 0.716754 -0.179300
C24   C     C_1   0.283844 0.360046 0.283246 -0.179299
O11   O     O_R   0.101720 0.231700 0.098560 -0.535786
O12   O     O_R   0.898280 0.731700 0.901440 -0.535786
O13   O     O_R   0.914700 0.558980 0.095690 -0.515013
O14   O     O_R   0.085300 0.058980 0.904310 -0.515011
C25   C     C_R   0.886214 0.389671 0.117799 0.712992
C26   C     C_R   0.113786 0.889671 0.882200 0.712999
O15   O     O_R   0.102080 0.561590 0.110390 -0.542168
O16   O     O_R   0.897920 0.061590 0.889610 -0.542169
O17   O     O_R   0.086950 0.728940 0.916330 -0.538897
O18   O     O_R   0.913050 0.228940 0.083670 -0.538902
C27   C     C_R   0.135930 0.391982 0.137372 0.740695
C28   C     C_R   0.864070 0.891982 0.862628 0.740688
O19   O     O_3   0.994770 0.394510 0.936380 -0.363448
O20   O     O_3   0.005230 0.894510 0.063620 -0.363452
V3    V     V_3+5 0.000970 0.670520 0.011800 1.507457
V4    V     V_3+5 0.999030 0.170520 0.988200 1.507458
O21   O     O_3   0.269570 0.324754 0.896026 -0.645331
H5    H     H_    0.264492 0.463497 0.880465 0.306000
O22   O     O_3   0.730423 0.824745 0.103966 -0.645338
H6    H     H_    0.735528 0.963489 0.119517 0.306008
O23   O     O_3   0.147953 0.282421 0.763660 -0.653569
H7    H     H_    0.121220 0.186402 0.712606 0.261085
O24   O     O_3   0.852043 0.782426 0.236331 -0.653576
H8    H     H_    0.878779 0.686409 0.287386 0.261086
C29   C     C_3   0.398067 0.324610 0.768811 -0.689642
H9    H     H_    0.388040 0.481746 0.764142 0.211127
H10   H     H_    0.426242 0.286579 0.848188 0.202595
H11   H     H_    0.449897 0.282786 0.723094 0.228818
C30   C     C_3   0.601930 0.824610 0.231181 -0.689599
H12   H     H_    0.611961 0.981749 0.235830 0.211121
H13   H     H_    0.573748 0.786543 0.151810 0.202593
H14   H     H_    0.550105 0.782815 0.276910 0.228814
C31   C     C_3   0.266312 0.260079 0.618564 -0.720347
H15   H     H_    0.247187 0.128210 0.574249 0.184225
H16   H     H_    0.201668 0.340906 0.609117 0.183870
H17   H     H_    0.315520 0.339797 0.580811 0.226868
C32   C     C_3   0.733685 0.760091 0.381430 -0.720352
H18   H     H_    0.752800 0.628225 0.425751 0.184229
H19   H     H_    0.798334 0.840902 0.390876 0.183872
H20   H     H_    0.684480 0.839830 0.419178 0.226863

loop_
_geom_bond_atom_site_label_1
_geom_bond_atom_site_label_2
_ccdc_geom_bond_type
C14   C16   A    
C31   H15   S    
C14   C25   S    
O1    C3    A    
O2    C4    A    
C2    O7    A    
C32   H18   S    
O5    C3    A    
C26   O17   A    
C7    C9    A    
C20   C32   S    
C32   H20   S    
C19   C29   S    
C30   H13   S    
C5    C7    A    
C29   H10   S    
C15   C17   S    
O10   V2    S    
C6    C8    A    
O5    V1    S    
O22   H6    S    
O6    V2    S    
C13   C15   A    
C31   H16   S    
C30   H12   S    
O14   C26   A    
C32   H19   S    
C11   C13   A    
O20   V4    S    
C3    C8    S    
O4    C2    A    
C21   C28   S    
O15   C27   A    
C22   C27   S    
O17   V3    S    
O18   V4    S    
C16   C18   S    
O4    V2    S    
C30   H14   S    
O11   V4    S    
O12   V3    S    
O14   V4    S    
O6    C4    A    
C29   H11   S    
O1    V2    S    
O2    V1    S    
O13   C25   A    
O13   V3    S    
C8    C10   A    
C12   C14   A    
O9    V1    S    
C18   O22   S    
C5    C15   A    
C31   H17   S    
C10   H2    S    
C1    C24   S    
C6    C16   A    
O19   V3    S    
O3    V1    S    
C20   C30   S    
O15   V3    S    
O19   V4    S    
O16   V4    S    
C9    C11   A    
O20   V3    S    
C19   C31   S    
C17   O21   S    
C2    C23   S    
O3    C1    A    
C11   H3    S    
C12   H4    S    
C13   C26   S    
C9    H1    S    
O7    V1    S    
C1    O8    A    
C21   C23   T    
O8    V2    S    
C22   C24   T    
O21   H5    S    
C25   O18   A    
C4    C7    S    
C18   O24   S    
C17   C19   S    
C18   C20   S    
O23   H7    S    
O24   H8    S    
O16   C28   A    
C17   O23   S    
C29   H9    S    
C10   C12   A    
O9    V2    S    
O10   V1    S    
C5    C19   S    
C6    C20   S    
O11   C27   A    
O12   C28   A    
