data_mof_unit_24797.cif
_audit_creation_date              2012-12-10T16:52:04-0500
_audit_creation_method            fapswitch 2.2
_symmetry_space_group_name_H-M    P1
_symmetry_Int_Tables_number       1
_space_group_crystal_system       triclinic
_cell_length_a                    7.841495
_cell_length_b                    8.583608
_cell_length_c                    14.970744
_cell_angle_alpha                 91.837528
_cell_angle_beta                  86.045171
_cell_angle_gamma                 93.32663
_cell_volume                      1003.16373393

loop_
_atom_site_label
_atom_site_type_symbol
_atom_type_description
_atom_site_fract_x
_atom_site_fract_y
_atom_site_fract_z
_atom_type_partial_charge
C1    C     C_R   0.544413 0.793805 0.499300 0.926372
C2    C     C_R   0.589180 0.613916 0.810964 0.602871
C3    C     C_R   0.497762 0.508551 0.232233 -0.255092
C4    C     C_R   0.502240 0.491449 0.767766 -0.255098
C5    C     C_R   0.595723 0.624754 0.185048 -0.181211
C6    C     C_R   0.404284 0.375243 0.814951 -0.181171
C7    C     C_R   0.588567 0.627246 0.091579 -0.066940
C8    C     C_R   0.411442 0.372749 0.908420 -0.066954
C9    C     C_R   0.501905 0.500593 0.046810 -0.028675
C10   C     C_R   0.498106 0.499400 0.953189 -0.028681
C11   C     C_R   0.419465 0.374986 0.095734 -0.114293
C12   C     C_R   0.455587 0.206195 0.500702 0.926339
C13   C     C_R   0.580555 0.625004 0.904264 -0.114292
C14   C     C_R   0.659709 0.755488 0.042391 0.587920
C15   C     C_R   0.340309 0.244501 0.957607 0.587982
C16   C     C_2   0.707462 0.739134 0.233949 1.118967
C17   C     C_2   0.292559 0.260856 0.766052 1.118953
C18   C     C_2   0.717174 0.901933 0.904571 1.143183
C19   C     C_2   0.282946 0.098024 0.095424 1.143123
C20   C     C_2   0.699527 0.012238 0.572284 1.064185
C21   C     C_2   0.300478 0.987761 0.427719 1.064216
C22   C     C_2   0.019533 0.410573 0.390498 1.156770
C23   C     C_R   0.654695 0.756160 0.949827 -0.192234
C24   C     C_2   0.980470 0.589414 0.609504 1.156763
C25   C     C_R   0.345346 0.243822 0.050170 -0.192241
C26   C     C_2   0.563180 0.956172 0.512593 -0.310602
C27   C     C_2   0.436824 0.043828 0.487409 -0.310590
C28   C     C_R   0.501132 0.496501 0.672403 0.987605
C29   C     C_R   0.498868 0.503497 0.327597 0.987630
C30   C     C_R   0.410831 0.386078 0.189035 0.602893
F1    F     F_    0.320710 0.277111 0.239695 -0.626467
F2    F     F_    0.679293 0.722884 0.760303 -0.626456
F3    F     F_    0.723217 0.887383 0.084063 -0.594096
F4    F     F_    0.276805 0.112607 0.915935 -0.594058
H1    H     H_    0.724478 0.913707 0.326478 0.357847
H2    H     H_    0.275569 0.086254 0.673540 0.357857
H3    H     H_    0.661096 0.082426 0.830929 0.372555
H4    H     H_    0.339106 0.917580 0.169077 0.372548
H5    H     H_    0.937226 0.110666 0.583009 0.370464
H6    H     H_    0.062760 0.889374 0.416999 0.370453
H7    H     H_    0.062888 0.461888 0.260035 0.362099
H8    H     H_    0.937108 0.538070 0.739962 0.362090
N1    N     N_2   0.950330 0.457950 0.475660 -0.215946
N2    N     N_2   0.049670 0.542050 0.524340 -0.215958
O1    O     O_R   0.389250 0.738570 0.505970 -0.612865
O2    O     O_R   0.635520 0.839440 0.299395 -0.788824
O3    O     O_2   0.137780 0.254218 0.783891 -0.527449
O4    O     O_R   0.364519 0.160531 0.700619 -0.788804
O5    O     O_2   0.863261 0.955466 0.913266 -0.486359
O6    O     O_R   0.606270 0.981193 0.855267 -0.689313
O7    O     O_2   0.136905 0.044398 0.086700 -0.486356
O8    O     O_R   0.393876 0.018846 0.144754 -0.689275
O9    O     O_2   0.675005 0.999993 0.653255 -0.507118
O10   O     O_R   0.855843 0.075731 0.535557 -0.737002
O11   O     O_2   0.325023 0.999950 0.346744 -0.507157
O12   O     O_R   0.610750 0.261430 0.494030 -0.612840
O13   O     O_R   0.144141 0.924317 0.464450 -0.737010
O14   O     O_2   0.066113 0.277820 0.378311 -0.544800
O15   O     O_R   0.020777 0.511662 0.319140 -0.776161
O16   O     O_2   0.933896 0.722167 0.621700 -0.544794
O17   O     O_R   0.979219 0.488306 0.680854 -0.776156
O18   O     O_R   0.678390 0.711620 0.490370 -0.609897
O19   O     O_R   0.321610 0.288380 0.509630 -0.609889
O20   O     O_R   0.355420 0.513510 0.639950 -0.633196
O21   O     O_R   0.644580 0.486490 0.360050 -0.633194
O22   O     O_R   0.644560 0.486560 0.624350 -0.603061
O23   O     O_R   0.355440 0.513440 0.375650 -0.603064
O24   O     O_2   0.862237 0.745778 0.216096 -0.527399
Zn1   Zn    Zn3+2 0.306940 0.517990 0.510420 1.050675
Zn2   Zn    Zn3+2 0.693060 0.482010 0.489580 1.050678

loop_
_geom_bond_atom_site_label_1
_geom_bond_atom_site_label_2
_ccdc_geom_bond_type
C14   C23   A    
C22   O14   D    
C3    C30   A    
C2    C4    A    
N1    N2    D    
C21   O13   S    
C24   O17   S    
C16   O24   D    
N1    Zn2   S    
C5    C7    A    
C9    C10   A    
C15   F4    S    
C28   O22   A    
C22   N1    S    
C17   O4    S    
C2    C13   A    
C24   O16   D    
C1    O18   A    
C14   F3    S    
C21   C27   S    
N2    Zn1   S    
O22   Zn2   S    
O20   Zn1   S    
H3    O6    S    
C9    C11   A    
H8    O17   S    
C1    O1    A    
C26   C27   D    
C12   O12   A    
C20   C26   S    
C18   O5    D    
C29   O21   A    
C18   O6    S    
C28   O20   A    
C2    F2    S    
C4    C28   S    
C13   C23   A    
H2    O4    S    
C8    C15   A    
O12   Zn2   S    
C7    C14   A    
O19   Zn1   S    
C30   F1    S    
C19   C25   S    
C1    C26   S    
H5    O10   S    
C15   C25   A    
C11   C25   A    
C12   C27   S    
O1    Zn1   S    
C18   C23   S    
C29   O23   A    
C19   O7    D    
C3    C29   S    
H4    O8    S    
C24   N2    S    
O18   Zn2   S    
C20   O10   S    
C4    C6    A    
H7    O15   S    
C16   O2    S    
C22   O15   S    
C21   O11   D    
C6    C17   S    
C7    C9    A    
C5    C16   S    
C6    C8    A    
H6    O13   S    
C3    C5    A    
O21   Zn2   S    
C12   O19   A    
H1    O2    S    
C19   O8    S    
C8    C10   A    
C17   O3    D    
C11   C30   A    
C20   O9    D    
O23   Zn1   S    
C10   C13   A    
