data_mof_unit_45839.cif
_audit_creation_date              2012-10-26T20:40:16-0400
_audit_creation_method            fapswitch 2.2
_symmetry_space_group_name_H-M    P1
_symmetry_Int_Tables_number       1
_space_group_crystal_system       triclinic
_cell_length_a                    15.107398
_cell_length_b                    10.864362
_cell_length_c                    9.564775
_cell_angle_alpha                 90.302367
_cell_angle_beta                  89.429728
_cell_angle_gamma                 92.691864
_cell_volume                      1568.05981228

loop_
_atom_site_label
_atom_site_type_symbol
_atom_type_description
_atom_site_fract_x
_atom_site_fract_y
_atom_site_fract_z
_atom_type_partial_charge
C1    C     C_R   0.507093 0.263078 0.500305 0.551841
C2    C     C_R   0.186748 0.462985 0.378393 -0.117775
C3    C     C_R   0.232090 0.495423 0.501088 -0.021814
C4    C     C_R   0.328776 0.498955 0.500599 0.561882
C5    C     C_R   0.185091 0.523663 0.623074 -0.120236
C6    C     C_R   0.556542 0.122282 0.754982 -0.062062
C7    C     C_R   0.545669 0.064142 0.883849 -0.104462
C8    C     C_R   0.501858 0.949197 0.891304 -0.113416
C9    C     C_R   0.477205 0.887201 0.768761 -0.091657
C10   C     C_R   0.497007 0.939393 0.635588 0.023425
C11   C     C_R   0.523642 0.065294 0.630965 0.033476
C12   C     C_R   0.907275 0.520517 0.619322 0.009203
C13   C     C_R   0.515056 0.129315 0.503046 -0.010126
C14   C     C_R   0.501953 0.063182 0.378460 -0.161528
C15   C     C_R   0.494360 0.935975 0.379965 -0.159499
C16   C     C_R   0.495104 0.737618 0.501560 0.530026
C17   C     C_R   0.491686 0.872290 0.507011 -0.007209
C18   C     C_R   0.617569 0.664625 0.143638 -0.093121
C19   C     C_R   0.674895 0.745279 0.070883 -0.177453
C20   C     C_R   0.674995 0.745245 0.926867 -0.167866
C21   C     C_R   0.617654 0.664714 0.854822 -0.092534
C22   C     C_R   0.557790 0.581073 0.924697 0.091317
C23   C     C_R   0.955550 0.421530 0.253694 -0.097581
C24   C     C_R   0.557756 0.581036 0.074487 0.125317
C25   C     C_R   0.445201 0.422750 0.074530 0.021974
C26   C     C_R   0.445124 0.422717 0.926427 0.472432
C27   C     C_R   0.671323 0.496530 0.498783 0.525075
C28   C     C_R   0.815263 0.522640 0.617032 -0.162100
C29   C     C_R   0.768320 0.490098 0.495561 -0.003109
C30   C     C_R   0.814783 0.451281 0.374233 0.081023
C31   C     C_R   0.907782 0.452945 0.374663 0.033937
C32   C     C_R   0.953916 0.487340 0.497373 0.024563
C33   C     C_R   0.048221 0.424397 0.252734 0.081001
C34   C     C_R   0.094227 0.458203 0.375655 0.042810
C35   C     C_R   0.046949 0.488744 0.498403 0.033101
C36   C     C_R   0.092750 0.521505 0.622360 0.015499
C37   C     C_R   0.045564 0.552324 0.743409 -0.127135
C38   C     C_R   0.953386 0.552348 0.741731 -0.128975
Cu1   Cu    Cu3+1 0.499990 0.499990 0.640660 0.994184
Cu2   Cu    Cu3+1 0.500010 0.500010 0.359340 0.915242
F1    F     F_    0.388694 0.343350 0.857900 -0.616440
H1    H     H_    0.780139 0.550878 0.710397 0.127521
H2    H     H_    0.719733 0.808286 0.870188 0.122990
H3    H     H_    0.623142 0.672906 0.744639 0.186167
H4    H     H_    0.921154 0.395412 0.158487 0.149919
H5    H     H_    0.224073 0.440535 0.285170 0.164448
H6    H     H_    0.220333 0.549013 0.717962 0.145652
H7    H     H_    0.079995 0.577304 0.839055 0.127444
H8    H     H_    0.918128 0.577471 0.836134 0.113618
H9    H     H_    0.497497 0.109705 0.279029 0.137361
H10   H     H_    0.722361 0.336754 0.279265 0.251901
H11   H     H_    0.739636 0.478854 0.202163 0.257901
H12   H     H_    0.592531 0.210596 0.753914 0.138383
H13   H     H_    0.121506 0.307014 0.142269 0.236523
H14   H     H_    0.052596 0.384322 0.042401 0.229316
H15   H     H_    0.568944 0.109913 0.978307 0.108315
H16   H     H_    0.488615 0.906671 0.991959 0.115516
H17   H     H_    0.439936 0.800851 0.781617 0.150891
H18   H     H_    0.489076 0.887550 0.280863 0.138554
H19   H     H_    0.400359 0.359560 0.130563 0.137727
H20   H     H_    0.623821 0.671432 0.253750 0.188281
H21   H     H_    0.719774 0.808066 0.126981 0.122553
N1    N     N_R   0.500860 0.501210 0.147910 -0.287006
N2    N     N_R   0.500890 0.501290 0.852040 -0.246838
N3    N     N_3   0.769423 0.406192 0.251474 -0.653980
N4    N     N_3   0.095663 0.393490 0.127138 -0.638173
O1    O     O_R   0.499990 0.319640 0.618810 -0.449752
O2    O     O_R   0.500000 0.319660 0.381240 -0.515818
O3    O     O_R   0.370250 0.499960 0.618800 -0.445561
O4    O     O_R   0.370260 0.499980 0.381230 -0.510037
O5    O     O_R   0.500000 0.680340 0.618760 -0.545000
O6    O     O_R   0.500010 0.680360 0.381190 -0.520873
O7    O     O_R   0.629740 0.500020 0.618770 -0.538588
O8    O     O_R   0.629750 0.500040 0.381200 -0.530584

loop_
_geom_bond_atom_site_label_1
_geom_bond_atom_site_label_2
_ccdc_geom_bond_type
C23   H4    S    
C27   C29   S    
C35   C36   A    
C16   O6    A    
H14   N4    S    
C4    O4    A    
C7    C8    A    
C38   H8    S    
C2    H5    S    
Cu1   N2    S    
C5    H6    S    
C37   C38   A    
Cu2   N1    S    
Cu2   O4    S    
C12   C28   A    
C18   C24   A    
C36   C37   A    
C34   C35   A    
H10   N3    S    
C30   C31   A    
C19   H21   S    
C5    C36   A    
C1    O2    A    
C18   C19   A    
C25   N1    A    
C26   N2    A    
C19   C20   A    
C8    C9    A    
C23   C33   A    
C25   H19   S    
C13   C14   A    
C27   O8    A    
C9    C10   A    
C2    C34   A    
C21   C22   A    
C12   C32   A    
C16   O5    A    
Cu1   O1    S    
C7    H15   S    
C4    O3    A    
C33   N4    S    
C32   C35   A    
C6    C11   A    
C16   C17   S    
C25   C26   A    
C23   C31   A    
C29   C30   A    
C8    H16   S    
C21   H3    S    
C31   C32   A    
C33   C34   A    
Cu1   O3    S    
C37   H7    S    
C9    H17   S    
C24   N1    A    
C22   C24   A    
C1    C13   S    
C6    H12   S    
C3    C4    S    
Cu1   Cu2   S    
C20   H2    S    
C15   C17   A    
C28   C29   A    
Cu2   O6    S    
C15   H18   S    
C3    C5    A    
C18   H20   S    
C6    C7    A    
H13   N4    S    
C2    C3    A    
C11   C13   A    
C14   H9    S    
C28   H1    S    
C1    O1    A    
Cu2   O8    S    
Cu1   O7    S    
C12   C38   A    
C30   N3    S    
C10   C11   A    
C22   N2    A    
C20   C21   A    
Cu2   O2    S    
Cu1   O5    S    
C14   C15   A    
C10   C17   A    
C27   O7    A    
H11   N3    S    
C26   F1    S    
