data_mof_unit_38152.cif
_audit_creation_date              2013-03-05T16:05:29-0500
_audit_creation_method            fapswitch 2.2
_symmetry_space_group_name_H-M    P1
_symmetry_Int_Tables_number       1
_space_group_crystal_system       triclinic
_cell_length_a                    10.828798
_cell_length_b                    9.643447
_cell_length_c                    10.655245
_cell_angle_alpha                 90.158542
_cell_angle_beta                  92.520223
_cell_angle_gamma                 89.985939
_cell_volume                      1111.61412288

loop_
_atom_site_label
_atom_site_type_symbol
_atom_site_description
_atom_site_fract_x
_atom_site_fract_y
_atom_site_fract_z
_atom_type_partial_charge
O1    O     O_R   0.319640 0.618740 0.499990 -0.587642
O2    O     O_R   0.680360 0.381260 0.500010 -0.587642
O3    O     O_R   0.680360 0.618740 0.500010 -0.563770
O4    O     O_R   0.319640 0.381260 0.499990 -0.563770
C1    C     C_R   0.871627 0.499981 0.500337 -0.028523
C2    C     C_R   0.128373 0.500019 0.499663 -0.028523
C3    C     C_R   0.262420 0.500016 0.499548 0.832333
C4    C     C_R   0.737580 0.499984 0.500452 0.832333
O5    O     O_R   0.499970 0.618770 0.316850 -0.583639
O6    O     O_R   0.500030 0.381230 0.683150 -0.583639
O7    O     O_R   0.500030 0.618770 0.683150 -0.612017
O8    O     O_R   0.499970 0.381230 0.316850 -0.612017
C5    C     C_R   0.500721 0.499770 0.259873 0.866475
C6    C     C_R   0.499279 0.500230 0.740127 0.866475
Cu1   Cu    Cu3+1 0.500000 0.640660 0.500000 0.990205
Cu2   Cu    Cu3+1 0.500000 0.359340 0.500000 0.990205
N1    N     N_R   0.500000 0.852070 0.500000 -0.333827
N2    N     N_R   0.500000 0.147930 0.500000 -0.333827
C7    C     C_3   0.402570 0.573657 0.039567 -0.269788
C8    C     C_3   0.597430 0.426343 0.960433 -0.269788
C9    C     C_3   0.507113 0.632524 0.959106 -0.231557
C10   C     C_3   0.492887 0.367476 0.040894 -0.231557
C11   C     C_3   0.396612 0.443408 0.956167 0.399092
C12   C     C_3   0.603388 0.556592 0.043833 0.399092
H1    H     H_    0.321935 0.631857 0.073288 0.190639
H2    H     H_    0.678064 0.368143 0.926712 0.190639
H3    H     H_    0.514962 0.740701 0.924949 0.190813
H4    H     H_    0.485038 0.259299 0.075051 0.190813
C13   C     C_3   0.498598 0.500728 0.876635 -0.132107
C14   C     C_3   0.501402 0.499272 0.123365 -0.132107
C15   C     C_R   0.407326 0.073187 0.438153 0.421657
C16   C     C_R   0.592674 0.926813 0.561847 0.421657
C17   C     C_R   0.592708 0.073460 0.561811 0.421912
C18   C     C_R   0.407292 0.926539 0.438189 0.421912
C19   C     C_R   0.063998 0.374053 0.501493 -0.085996
C20   C     C_R   0.936002 0.625947 0.498507 -0.085996
C21   C     C_R   0.936229 0.374035 0.501791 -0.142302
C22   C     C_R   0.063771 0.625965 0.498209 -0.142302
H5    H     H_    0.112023 0.275507 0.502865 0.204174
H6    H     H_    0.887977 0.724493 0.497135 0.204174
H7    H     H_    0.888399 0.275476 0.503143 0.201874
H8    H     H_    0.111601 0.724524 0.496857 0.201874
O9    O     O_3   0.311654 0.136654 0.371477 -0.663002
H9    H     H_    0.343755 0.221942 0.334825 0.363108
O10   O     O_3   0.688346 0.863346 0.628523 -0.663001
H10   H     H_    0.656245 0.778058 0.665176 0.363108
O11   O     O_3   0.688569 0.137185 0.628278 -0.669624
H11   H     H_    0.656699 0.222795 0.664958 0.359329
O12   O     O_3   0.311431 0.862815 0.371722 -0.669624
H12   H     H_    0.343301 0.777204 0.335041 0.359329
N3    N     N_R   0.280766 0.380717 0.910162 0.134361
O13   O     O_R   0.203098 0.334625 0.989832 -0.313944
O14   O     O_R   0.252835 0.373104 0.790444 -0.358235
N4    N     N_R   0.719234 0.619283 0.089838 0.134361
O15   O     O_R   0.796902 0.665375 0.010168 -0.313945
O16   O     O_R   0.747165 0.626895 0.209556 -0.358235

loop_
_geom_bond_atom_site_label_1
_geom_bond_atom_site_label_2
_geom_bond_distance
_ccdc_geom_bond_type
O4    Cu2   1.964432 S    
C1    C4    1.451623 S    
C19   H5    1.083027 S    
O9    H9    0.981675 S    
C2    C22   1.401248 A    
C9    C13   1.543633 S    
C2    C3    1.451623 S    
O1    Cu1   1.964535 S    
C1    C21   1.401248 A    
O2    Cu2   1.964534 S    
C16   O10   1.374777 S    
C15   O9    1.374777 S    
C11   N3    1.457438 S    
O11   H11   0.981512 S    
C16   C17   1.414192 A    
C20   C22   1.383730 A    
O5    Cu1   1.962298 S    
C15   C18   1.414192 A    
O6    Cu2   1.962297 S    
O10   H10   0.981677 S    
O8    C5    1.296024 A    
C8    H2    1.110304 S    
O4    C3    1.301882 A    
C17   O11   1.374788 S    
C11   C13   1.525962 S    
C10   H4    1.110318 S    
O7    C6    1.296024 A    
C8    C10   1.557963 S    
C22   H8    1.082962 S    
N3    O14   1.299867 A    
C12   C14   1.525962 S    
C8    C13   1.541532 S    
O1    C3    1.301858 A    
C21   H7    1.082962 S    
O8    Cu2   1.963459 S    
C7    H1    1.110304 S    
N2    C17   1.378933 A    
N4    O16   1.299867 A    
O3    C4    1.301882 A    
N1    C18   1.378934 A    
C6    C13   1.454868 S    
C12   N4    1.457438 S    
Cu1   Cu2   2.712895 S    
C1    C20   1.401314 A    
C8    C12   1.536338 S    
C5    C14   1.454868 S    
C20   H6    1.083027 S    
O3    Cu1   1.964431 S    
C2    C19   1.401314 A    
C7    C11   1.536339 S    
Cu2   N2    2.038722 S    
O12   H12   0.981513 S    
O6    C6    1.296965 A    
C9    C12   1.535784 S    
Cu1   N1    2.038721 S    
N1    C16   1.378576 A    
C9    H3    1.110318 S    
N4    O15   1.300242 A    
C18   O12   1.374788 S    
O5    C5    1.296965 A    
N2    C15   1.378577 A    
C10   C14   1.543633 S    
C19   C21   1.383730 A    
C10   C11   1.535784 S    
C7    C14   1.541531 S    
O7    Cu1   1.963459 S    
O2    C4    1.301857 A    
N3    O13   1.300242 A    
C7    C9    1.557964 S    
