data_mof_unit_47444.cif
_audit_creation_date              2012-12-11T18:42:08-0500
_audit_creation_method            fapswitch 2.2
_symmetry_space_group_name_H-M    P1
_symmetry_Int_Tables_number       1
_space_group_crystal_system       triclinic
_cell_length_a                    8.391962
_cell_length_b                    14.273303
_cell_length_c                    18.798361
_cell_angle_alpha                 98.108336
_cell_angle_beta                  91.608638
_cell_angle_gamma                 92.368471
_cell_volume                      2225.96418383

loop_
_atom_site_label
_atom_site_type_symbol
_atom_type_description
_atom_site_fract_x
_atom_site_fract_y
_atom_site_fract_z
_atom_type_partial_charge
Ba1   Ba    Ba6+2 0.843240 0.541620 0.463500 1.720629
Ba2   Ba    Ba6+2 0.346570 0.458460 0.536510 1.743043
C1    C     C_3   0.570545 0.861193 0.251700 1.099340
C2    C     C_3   0.582009 0.773515 0.288681 0.289616
C3    C     C_3   0.494918 0.256347 0.316302 0.245587
C4    C     C_3   0.464626 0.182272 0.248171 0.692331
C5    C     C_3   0.109311 0.269130 0.748691 0.292746
C6    C     C_3   0.189806 0.310171 0.820847 -0.380856
C7    C     C_3   0.528129 0.211035 0.732329 0.757623
C8    C     C_3   0.450172 0.131592 0.770032 -0.234227
C9    C     C_R   0.997344 0.456881 0.051010 0.002506
C10   C     C_R   0.911202 0.411313 0.100854 -0.090714
C11   C     C_R   0.774057 0.437869 0.959468 -0.084108
C12   C     C_3   0.071945 0.726666 0.260156 0.319670
C13   C     C_R   0.934040 0.464509 0.980688 0.039826
C14   C     C_R   0.716997 0.440506 0.889637 -0.086995
C15   C     C_R   0.816779 0.469356 0.837338 -0.008176
C16   C     C_R   0.970922 0.508896 0.859030 -0.003918
C17   C     C_R   0.031112 0.503982 0.930627 0.028956
C18   C     C_R   0.767419 0.458871 0.764136 0.069233
C19   C     C_R   0.869527 0.491910 0.714192 -0.185760
C20   C     C_R   0.013485 0.543799 0.735059 0.103699
C21   C     C_R   0.063002 0.555544 0.810277 -0.061133
C22   C     C_R   0.154054 0.493355 0.071923 0.033771
C23   C     C_3   0.055860 0.751031 0.184199 -0.266346
C24   C     C_R   0.212817 0.493804 0.144298 0.023815
C25   C     C_R   0.117284 0.454964 0.195172 -0.010697
C26   C     C_R   0.971124 0.409290 0.170477 0.000717
C27   C     C_R   0.199728 0.609919 0.840863 0.355898
C28   C     C_R   0.271971 0.588206 0.903855 -0.114705
C29   C     C_R   0.188896 0.537587 0.951134 -0.032457
C30   C     C_R   0.252383 0.529985 0.021196 0.041956
C31   C     C_R   0.411925 0.558308 0.042566 -0.065820
C32   C     C_R   0.368067 0.532188 0.165433 0.006585
C33   C     C_R   0.467197 0.560937 0.113112 -0.027633
C34   C     C_3   0.189207 0.746545 0.606885 0.394801
C35   C     C_R   0.421269 0.538568 0.237966 0.033828
C36   C     C_R   0.322731 0.504593 0.288228 -0.270105
C37   C     C_R   0.173209 0.460985 0.268305 0.067940
C38   C     C_R   0.704609 0.937843 0.537645 -0.016222
C39   C     C_R   0.516804 0.799106 0.495981 0.039427
C40   C     C_R   0.375139 0.764032 0.458384 -0.294049
C41   C     C_R   0.272125 0.825159 0.430409 0.004259
C42   C     C_R   0.316991 0.920637 0.433768 -0.051281
C43   C     C_R   0.462355 0.956658 0.467749 0.018235
C44   C     C_R   0.562917 0.897044 0.500832 -0.053196
C45   C     C_3   0.210303 0.854066 0.622392 -0.335096
C46   C     C_R   0.645688 0.093126 0.506563 -0.035804
C47   C     C_R   0.749415 0.034132 0.538580 0.029029
C48   C     C_R   0.687684 0.190524 0.509624 0.024318
C49   C     C_R   0.833071 0.226992 0.543033 -0.188155
C50   C     C_R   0.939720 0.168504 0.572904 0.091648
C51   C     C_R   0.898026 0.071794 0.569868 -0.041075
C52   C     C_R   0.504114 0.052779 0.470889 0.016291
C53   C     C_3   0.019609 0.249096 0.390406 0.321514
C54   C     C_3   0.061602 0.145444 0.380948 -0.287381
C55   C     C_3   0.694356 0.697847 0.680156 0.754615
C56   C     C_3   0.747716 0.753251 0.752704 0.473837
H1    H     H_    0.652963 0.792420 0.339934 0.007174
H2    H     H_    0.310016 0.874654 0.662392 0.156814
H3    H     H_    0.236594 0.884410 0.572894 0.014540
H4    H     H_    0.098948 0.884438 0.644200 0.127419
H5    H     H_    0.892199 0.254686 0.402492 0.007227
H6    H     H_    0.093904 0.285683 0.436565 0.045384
H7    H     H_    0.997223 0.105492 0.333188 0.195622
H8    H     H_    0.029343 0.113028 0.429117 0.018975
H9    H     H_    0.191667 0.139825 0.373293 0.088532
H10   H     H_    0.606087 0.639813 0.686085 0.003866
H11   H     H_    0.851398 0.800853 0.745070 0.099676
H12   H     H_    0.653827 0.799764 0.775475 0.066787
H13   H     H_    0.459019 0.750059 0.300681 -0.073268
H14   H     H_    0.378250 0.277561 0.338404 -0.046399
H15   H     H_    0.562038 0.319910 0.302848 0.050509
H16   H     H_    0.380509 0.125788 0.261751 0.016389
H17   H     H_    0.692149 0.888452 0.241090 0.038300
H18   H     H_    0.134031 0.814192 0.178872 0.195159
H19   H     H_    0.051272 0.329361 0.728919 0.055251
H20   H     H_    0.030465 0.211731 0.761514 0.186959
H21   H     H_    0.257654 0.377118 0.816728 0.151907
H22   H     H_    0.096659 0.327298 0.860586 0.072189
H23   H     H_    0.266001 0.259480 0.843277 0.160923
H24   H     H_    0.489351 0.203765 0.674830 0.036920
H25   H     H_    0.481188 0.060753 0.742843 0.116098
H26   H     H_    0.319256 0.128112 0.770240 0.098796
H27   H     H_    0.993923 0.662816 0.263593 0.078247
H28   H     H_    0.492614 0.139093 0.827183 0.166333
H29   H     H_    0.832517 0.480532 0.657938 0.088242
H30   H     H_    0.593889 0.417720 0.877173 0.113343
H31   H     H_    0.899822 0.371399 0.204624 0.170736
H32   H     H_    0.589984 0.584800 0.125532 0.109165
H33   H     H_    0.365359 0.509605 0.343566 0.057855
H34   H     H_    0.688690 0.414972 0.995928 0.092594
H35   H     H_    0.797345 0.374482 0.087273 0.129824
H36   H     H_    0.383468 0.626005 0.920483 0.130120
H37   H     H_    0.198100 0.710356 0.270284 -0.044060
H38   H     H_    0.498929 0.578026 0.005624 0.082466
H39   H     H_    0.338602 0.689995 0.455874 0.053897
H40   H     H_    0.236544 0.967142 0.411320 0.082499
H41   H     H_    0.980423 0.026451 0.592337 0.051687
H42   H     H_    0.866344 0.301049 0.543058 0.040335
H43   H     H_    0.782792 0.896116 0.565567 0.105162
H44   H     H_    0.423430 0.095206 0.444938 0.094903
H45   H     H_    0.091747 0.690551 0.145050 0.066865
H46   H     H_    0.930176 0.766215 0.171773 0.142953
H47   H     H_    0.303770 0.716199 0.590634 -0.050487
H48   H     H_    0.097154 0.727516 0.563112 0.057220
O1    O     O_2   0.887710 0.436190 0.327560 -0.460192
O2    O     O_3   0.627411 0.761683 0.639649 -0.696465
O3    O     O_3   0.025067 0.803513 0.309190 -0.578627
O4    O     O_2   0.301980 0.563840 0.672490 -0.478018
O5    O     O_3   0.054330 0.556590 0.583490 -0.470432
O6    O     O_3   0.555270 0.390630 0.635330 -0.457341
O7    O     O_3   0.141021 0.714456 0.669979 -0.502127
O8    O     O_3   0.637720 0.384870 0.467990 -0.471751
O9    O     O_3   0.145220 0.339960 0.601250 -0.482763
O10   O     O_2   0.271729 0.178401 0.563798 -0.511302
O11   O     O_3   0.211534 0.224071 0.698556 -0.617372
O12   O     O_3   0.135370 0.443490 0.416520 -0.519478
O13   O     O_3   0.551980 0.615210 0.532020 -0.472250
O14   O     O_2   0.394410 0.269100 0.474240 -0.479665
O15   O     O_3   0.587482 0.214122 0.365049 -0.630132
O16   O     O_2   0.449498 0.477283 0.755725 -0.521108
O17   O     O_3   0.498639 0.302247 0.769378 -0.635324
O18   O     O_3   0.634420 0.609440 0.364670 -0.482965
O19   O     O_2   0.754342 0.532812 0.242588 -0.489903
O20   O     O_3   0.046850 0.285087 0.325887 -0.566581
O21   O     O_3   0.658437 0.703637 0.243379 -0.636910
O22   O     O_2   0.795290 0.730930 0.525800 -0.425487
O23   O     O_3   0.044470 0.660110 0.398750 -0.500981
O24   O     O_2   0.942277 0.830700 0.443072 -0.495537
P1    P     P_3+3 0.061800 0.409390 0.339760 1.020599
P2    P     P_3+3 0.622760 0.718740 0.547830 1.048327
P3    P     P_3+3 0.071483 0.781070 0.396412 0.957361
P4    P     P_3+3 0.127890 0.590690 0.660240 1.142748
P5    P     P_3+3 0.137017 0.221432 0.610315 0.980036
P6    P     P_3+3 0.616796 0.593862 0.271502 0.967057
P7    P     P_3+3 0.575879 0.265515 0.454848 0.965525
P8    P     P_3+3 0.570233 0.402354 0.729730 1.018922
F1    F     F_    0.824887 0.659290 0.647853 -0.745231
F2    F     F_    0.494321 0.930496 0.295171 -0.719931
F3    F     F_    0.786084 0.692297 0.800829 -0.711394
F4    F     F_    0.484666 0.838855 0.187208 -0.664906
S1    S     S_3+6 0.374554 0.232881 0.175831 -0.064098
O25   O     O_2   0.455064 0.327241 0.169965 -0.346108
O26   O     O_2   0.388968 0.168542 0.105945 -0.203143
O27   O     O_3   0.180400 0.245555 0.191523 -0.564630
H49   H     H_    0.126749 0.237342 0.143310 0.359786
S2    S     S_3+6 0.643882 0.126098 0.218053 0.029639
O28   O     O_2   0.719956 0.081109 0.277255 -0.299594
O29   O     O_2   0.603696 0.050246 0.155428 -0.185893
O30   O     O_3   0.772890 0.206906 0.192511 -0.518229
H50   H     H_    0.858648 0.169574 0.169010 0.371195
S3    S     S_3+6 0.729655 0.191395 0.737465 -0.184603
O31   O     O_2   0.763257 0.091428 0.707081 -0.335854
O32   O     O_2   0.806092 0.259010 0.693773 -0.493861
O33   O     O_3   0.790917 0.211369 0.824538 -0.518865
H51   H     H_    0.825136 0.278922 0.833706 0.316022
S4    S     S_3+6 0.243093 0.728372 0.827327 -0.004854
O34   O     O_2   0.096219 0.773577 0.804435 -0.216404
O35   O     O_2   0.308542 0.786152 0.895826 -0.228691
O36   O     O_3   0.381768 0.729447 0.765817 -0.522910
H52   H     H_    0.454197 0.681048 0.778534 0.311659

loop_
_geom_bond_atom_site_label_1
_geom_bond_atom_site_label_2
_ccdc_geom_bond_type
S1    O27   S    
C53   C54   S    
C19   H29   S    
C12   O3    S    
C32   C35   A    
C39   C40   A    
C8    H25   S    
Ba1   O22   S    
Ba1   P2    S    
C17   C29   A    
C45   H4    S    
O36   H52   S    
Ba2   O12   S    
C48   P7    S    
C5    C6    S    
O10   P5    D    
C43   C44   A    
C51   H41   S    
C13   C17   A    
O17   P8    S    
Ba2   O6    S    
C24   C25   A    
Ba2   P4    S    
O9    P5    S    
C20   P4    S    
C21   C27   A    
O33   H51   S    
C35   C36   A    
C22   C24   A    
C16   C17   A    
C3    H14   S    
Ba1   O23   S    
C3    C4    S    
C54   H8    S    
C18   P8    S    
C38   C47   A    
C3    O15   S    
C9    C22   A    
C15   C18   A    
C55   F1    S    
C34   C45   S    
C32   C33   A    
Ba1   O13   S    
O8    P7    S    
O15   P7    S    
C41   P3    S    
C5    O11   S    
O12   P1    S    
S4    O36   S    
C7    O17   S    
C45   H2    S    
C42   H40   S    
C24   C32   A    
C8    H28   S    
C25   C37   A    
C14   C15   A    
C53   H5    S    
C6    H21   S    
C39   C44   A    
S2    O30   S    
C26   H31   S    
S3    O32   D    
C1    H17   S    
C7    C8    S    
C7    H24   S    
C5    H19   S    
C46   C48   A    
C38   H43   S    
C7    S3    S    
C19   C20   A    
S4    O35   D    
C1    F4    S    
C9    C13   A    
C34   O7    S    
O22   P2    D    
C4    H16   S    
Ba2   O5    S    
O18   P6    S    
O3    P3    S    
C6    H23   S    
O6    P8    S    
S2    O28   D    
O16   P8    D    
O1    P1    D    
C40   H39   S    
C56   H11   S    
Ba2   O14   S    
C23   H45   S    
C48   C49   A    
C34   H48   S    
C36   H33   S    
C16   C21   A    
C46   C52   A    
C38   C44   A    
C41   C42   A    
C22   C30   A    
C27   C28   A    
C4    S2    S    
Ba2   O9    S    
C29   C30   A    
C53   O20   S    
C28   C29   A    
O30   H50   S    
C53   H6    S    
C15   C16   A    
C35   P6    S    
O5    P4    S    
O21   P6    S    
S3    O33   S    
Ba1   O1    S    
C5    H20   S    
O23   P3    S    
O19   P6    D    
C46   C47   A    
C10   C26   A    
C43   C52   A    
O7    P4    S    
C11   C13   A    
C11   H34   S    
S4    O34   D    
C10   H35   S    
O4    P4    D    
O24   P3    D    
Ba1   O8    S    
C55   H10   S    
C1    C2    S    
O11   P5    S    
C31   H38   S    
C12   H37   S    
C50   C51   A    
C6    H22   S    
O27   H49   S    
C49   H42   S    
S1    O26   D    
Ba2   O4    S    
C2    O21   S    
C34   H47   S    
C52   H44   S    
C56   H12   S    
C42   C43   A    
C12   H27   S    
S2    O29   D    
Ba1   P1    S    
O13   P2    S    
C45   H3    S    
C39   P2    S    
Ba2   O13   S    
C23   H46   S    
C27   S4    S    
C1    F2    S    
C54   H7    S    
C54   H9    S    
C23   H18   S    
C30   C31   A    
C4    S1    S    
Ba1   O18   S    
C49   C50   A    
C28   H36   S    
Ba1   O5    S    
Ba2   O8    S    
C56   F3    S    
C55   C56   S    
C36   C37   A    
C37   P1    S    
O20   P1    S    
C47   C51   A    
Ba1   Ba2   S    
C2    H1    S    
C8    H26   S    
C31   C33   A    
Ba1   O12   S    
C12   C23   S    
C3    H15   S    
O2    P2    S    
C33   H32   S    
C55   O2    S    
C18   C19   A    
C40   C41   A    
C11   C14   A    
C25   C26   A    
C14   H30   S    
C50   P5    S    
C20   C21   A    
O14   P7    D    
S3    O31   D    
C2    H13   S    
S1    O25   D    
C9    C10   A    
