data_mof_unit_57702.cif
_audit_creation_date              2013-03-05T15:48:34-0500
_audit_creation_method            fapswitch 2.2
_symmetry_space_group_name_H-M    P1
_symmetry_Int_Tables_number       1
_space_group_crystal_system       triclinic
_cell_length_a                    16.640549
_cell_length_b                    16.654571
_cell_length_c                    42.738887
_cell_angle_alpha                 89.64359
_cell_angle_beta                  90.386324
_cell_angle_gamma                 119.730661
_cell_volume                      10285.2532687

loop_
_atom_site_label
_atom_site_type_symbol
_atom_site_description
_atom_site_fract_x
_atom_site_fract_y
_atom_site_fract_z
_atom_type_partial_charge
O1    O     O_R   0.509640 0.171340 0.784000 -0.500694
O2    O     O_R   0.661700 0.490360 0.716000 -0.507449
O3    O     O_R   0.828660 0.338300 0.784000 -0.507591
O4    O     O_R   0.509640 0.171340 0.716000 -0.506616
O5    O     O_R   0.661700 0.490360 0.784000 -0.511143
O6    O     O_R   0.828660 0.338300 0.716000 -0.496896
O7    O     O_R   0.171340 0.509640 0.284000 -0.499944
O8    O     O_R   0.490360 0.661700 0.216000 -0.511656
O9    O     O_R   0.338300 0.828660 0.284000 -0.507177
O10   O     O_R   0.171340 0.509640 0.216000 -0.511868
O11   O     O_R   0.490360 0.661700 0.284000 -0.498397
O12   O     O_R   0.338300 0.828660 0.216000 -0.506170
O13   O     O_R   0.539230 0.345420 0.781810 -0.487904
O14   O     O_R   0.806190 0.460770 0.718190 -0.499976
O15   O     O_R   0.654580 0.193810 0.781810 -0.503408
O16   O     O_R   0.539230 0.345420 0.718190 -0.496237
O17   O     O_R   0.806190 0.460770 0.781810 -0.498421
O18   O     O_R   0.654580 0.193810 0.718190 -0.493967
O19   O     O_R   0.345420 0.539230 0.281810 -0.496091
O20   O     O_R   0.460770 0.806190 0.218190 -0.499547
O21   O     O_R   0.193810 0.654580 0.281810 -0.503055
O22   O     O_R   0.345420 0.539230 0.218190 -0.497138
O23   O     O_R   0.460770 0.806190 0.281810 -0.494299
O24   O     O_R   0.193810 0.654580 0.218190 -0.498369
C1    C     C_R   0.583470 0.425859 0.794456 0.538640
C2    C     C_R   0.845332 0.417403 0.705919 0.546562
C3    C     C_R   0.573897 0.156340 0.794515 0.540768
C4    C     C_R   0.582717 0.427716 0.705959 0.547488
C5    C     C_R   0.842085 0.415960 0.795175 0.536433
C6    C     C_R   0.572268 0.155552 0.705856 0.546123
C7    C     C_R   0.428134 0.582874 0.294123 0.547683
C8    C     C_R   0.416173 0.842294 0.205123 0.538094
C9    C     C_R   0.154738 0.572101 0.294011 0.548042
C10   C     C_R   0.425400 0.584389 0.204969 0.538203
C11   C     C_R   0.417201 0.844545 0.294046 0.549413
C12   C     C_R   0.157025 0.574209 0.205378 0.537305
Cr1   Cr    Cr6+3 0.530290 0.262330 0.750000 1.024393
Cr2   Cr    Cr6+3 0.732040 0.469710 0.750000 1.009532
Cr3   Cr    Cr6+3 0.737670 0.267960 0.750000 1.015714
Cr4   Cr    Cr6+3 0.262330 0.530290 0.250000 1.015116
Cr5   Cr    Cr6+3 0.469710 0.732040 0.250000 1.014409
Cr6   Cr    Cr6+3 0.267960 0.737670 0.250000 1.009187
O25   O     O_3   0.666667 0.333333 0.750000 -0.231286
O26   O     O_3   0.333333 0.666667 0.250000 -0.230889
C13   C     C_R   0.889479 0.450720 0.826349 -0.057082
C14   C     C_R   0.552999 0.107216 0.675530 -0.046123
C15   C     C_R   0.546846 0.437768 0.824352 -0.035306
C16   C     C_R   0.898164 0.449124 0.676131 -0.047192
C17   C     C_R   0.560300 0.100694 0.823453 -0.051390
C18   C     C_R   0.549894 0.446841 0.676184 -0.051480
C19   C     C_R   0.448629 0.892990 0.324153 -0.049811
C20   C     C_R   0.103463 0.561936 0.176085 -0.050701
C21   C     C_R   0.449469 0.552048 0.324174 -0.046699
C22   C     C_R   0.452813 0.892403 0.174900 -0.054309
C23   C     C_R   0.101826 0.551583 0.323628 -0.047543
C24   C     C_R   0.433714 0.553661 0.173090 -0.051783
C25   C     C_R   0.987218 0.612257 0.036669 0.034437
C26   C     C_R   0.603797 0.997145 0.467078 0.046344
C27   C     C_R   0.425846 0.393836 0.032858 0.034023
C28   C     C_R   0.000783 0.602670 0.466342 0.046809
C29   C     C_R   0.610900 0.016373 0.033088 0.052614
C30   C     C_R   0.381560 0.417547 0.468628 0.043971
C31   C     C_R   0.617527 0.031929 0.531715 0.044468
C32   C     C_R   0.001997 0.601598 0.970994 0.037632
C33   C     C_R   0.389318 0.402547 0.534083 0.046758
C34   C     C_R   0.603897 0.996128 0.967319 0.083202
C35   C     C_R   0.978816 0.590240 0.531851 0.044009
C36   C     C_R   0.414351 0.361215 0.967774 0.042939
C37   C     C_R   0.978924 0.615591 0.069386 0.450868
C38   C     C_R   0.590965 0.972954 0.435336 0.481148
C39   C     C_R   0.433034 0.410996 0.065238 0.462714
C40   C     C_R   0.019376 0.609557 0.434086 0.481383
C41   C     C_R   0.610134 0.021726 0.065974 0.468322
C42   C     C_R   0.378949 0.430449 0.436242 0.474576
C43   C     C_R   0.623208 0.052606 0.563655 0.476929
C44   C     C_R   0.008392 0.594980 0.938262 0.470302
C45   C     C_R   0.400118 0.393126 0.566287 0.482259
C46   C     C_R   0.596325 0.982960 0.934645 0.479289
C47   C     C_R   0.962613 0.578106 0.564239 0.476149
C48   C     C_R   0.415575 0.348634 0.935317 0.471546
O27   O     O_2   0.972944 0.679414 0.080657 -0.483412
O28   O     O_2   0.637023 0.942920 0.423339 -0.447819
O29   O     O_2   0.432970 0.354179 0.083508 -0.446189
O30   O     O_2   0.048166 0.684010 0.420929 -0.443206
O31   O     O_2   0.680900 0.043948 0.080916 -0.437407
O32   O     O_2   0.304671 0.393220 0.422547 -0.441051
O33   O     O_2   0.698395 0.088804 0.576783 -0.441167
O34   O     O_2   0.052846 0.665062 0.922691 -0.435955
O35   O     O_2   0.350508 0.319239 0.579174 -0.445716
O36   O     O_2   0.635737 0.946569 0.922116 -0.473325
O37   O     O_2   0.929935 0.619974 0.577506 -0.439817
O38   O     O_2   0.407521 0.276567 0.925110 -0.450460
N1    N     N_R   0.974060 0.545259 0.088360 -0.360784
N2    N     N_R   0.523913 0.980196 0.418206 -0.375355
N3    N     N_R   0.439150 0.491288 0.076503 -0.369047
N4    N     N_R   0.008092 0.532808 0.417759 -0.380534
N5    N     N_R   0.528091 0.997568 0.081332 -0.374110
N6    N     N_R   0.460099 0.487323 0.420240 -0.380022
N7    N     N_R   0.543965 0.033975 0.579864 -0.376771
N8    N     N_R   0.962021 0.509729 0.923645 -0.369368
N9    N     N_R   0.469354 0.466408 0.582839 -0.379784
N10   N     N_R   0.542791 0.009498 0.917102 -0.370762
N11   N     N_R   0.981135 0.516794 0.580638 -0.381556
N12   N     N_R   0.431817 0.419898 0.915016 -0.369327
C49   C     C_R   0.951153 0.461287 0.074212 0.466938
C50   C     C_R   0.468439 0.009042 0.432679 0.463904
C51   C     C_R   0.433474 0.553650 0.056357 0.446185
C52   C     C_R   0.977529 0.449796 0.433517 0.467281
C53   C     C_R   0.452719 0.988237 0.064184 0.484368
C54   C     C_R   0.542961 0.532824 0.436511 0.472691
C55   C     C_R   0.460340 0.999284 0.564131 0.471068
C56   C     C_R   0.920367 0.429586 0.941684 0.452834
C57   C     C_R   0.526323 0.548878 0.567526 0.460761
C58   C     C_R   0.484335 0.033026 0.932760 0.474932
C59   C     C_R   0.014683 0.467530 0.564628 0.470853
C60   C     C_R   0.429255 0.496944 0.925549 0.471235
O39   O     O_2   0.950118 0.398976 0.089697 -0.430353
O40   O     O_2   0.422447 0.032841 0.416866 -0.521270
O41   O     O_2   0.436881 0.622784 0.067200 -0.498985
O42   O     O_2   0.948167 0.378138 0.418789 -0.499481
O43   O     O_2   0.378649 0.960704 0.077169 -0.491600
O44   O     O_2   0.616042 0.567693 0.422334 -0.488794
O45   O     O_2   0.388219 0.966605 0.578855 -0.506182
O46   O     O_2   0.877784 0.355087 0.928665 -0.529711
O47   O     O_2   0.574160 0.618724 0.582653 -0.513134
O48   O     O_2   0.446650 0.069237 0.918514 -0.439449
O49   O     O_2   0.050342 0.429797 0.579022 -0.485356
O50   O     O_2   0.439289 0.556832 0.906803 -0.403956
C61   C     C_R   0.934064 0.448433 0.041499 -0.035713
C62   C     C_R   0.462179 0.007020 0.465410 0.010130
C63   C     C_R   0.423081 0.537718 0.023631 -0.022418
C64   C     C_R   0.984264 0.448725 0.466276 0.012347
C65   C     C_R   0.459400 0.005810 0.031549 0.001775
C66   C     C_R   0.542757 0.541176 0.469170 0.009084
C67   C     C_R   0.458770 0.003700 0.531344 0.007554
C68   C     C_R   0.924978 0.433181 0.974944 -0.018508
C69   C     C_R   0.533212 0.550625 0.534798 0.013284
C70   C     C_R   0.470388 0.018572 0.965324 -0.003194
C71   C     C_R   0.005284 0.458785 0.531955 0.009974
C72   C     C_R   0.419610 0.508589 0.957928 -0.030553
C73   C     C_R   0.961916 0.526985 0.022525 -0.078966
C74   C     C_R   0.534239 0.006272 0.482532 -0.074335
C75   C     C_R   0.422274 0.458167 0.011917 -0.077353
C76   C     C_R   0.992233 0.525194 0.482671 -0.074523
C77   C     C_R   0.535988 0.011192 0.015857 -0.061086
C78   C     C_R   0.461910 0.479022 0.485250 -0.075406
C79   C     C_R   0.536871 0.014297 0.515226 -0.075907
C80   C     C_R   0.962994 0.520397 0.989429 -0.078164
C81   C     C_R   0.461436 0.477619 0.518092 -0.072950
C82   C     C_R   0.537027 0.009281 0.982825 -0.046403
C83   C     C_R   0.991897 0.524541 0.515535 -0.075875
C84   C     C_R   0.418136 0.442511 0.979182 -0.082343
C85   C     C_R   0.019977 0.691901 0.017870 -0.101244
C86   C     C_R   0.681527 0.008578 0.483990 -0.056668
C87   C     C_R   0.421935 0.313487 0.021016 -0.089655
C88   C     C_R   0.994907 0.672304 0.482936 -0.049542
C89   C     C_R   0.681860 0.011022 0.017159 -0.053302
C90   C     C_R   0.305698 0.347575 0.484934 -0.059609
C91   C     C_R   0.690517 0.030704 0.515741 -0.059304
C92   C     C_R   0.031049 0.687244 0.985640 -0.084651
C93   C     C_R   0.311649 0.337127 0.517195 -0.054571
C94   C     C_R   0.675709 0.995951 0.984828 -0.050120
C95   C     C_R   0.978785 0.663402 0.515194 -0.052413
C96   C     C_R   0.415777 0.297212 0.988982 -0.081279
C97   C     C_R   0.895261 0.360562 0.027159 0.180247
C98   C     C_R   0.386495 0.004222 0.481437 0.213532
C99   C     C_R   0.413762 0.598607 0.002286 0.192222
C100  C     C_R   0.987966 0.376752 0.482959 0.215501
C101  C     C_R   0.388754 0.009809 0.013811 0.206647
C102  C     C_R   0.618628 0.610843 0.486060 0.216259
C103  C     C_R   0.382625 0.997706 0.514280 0.212099
C104  C     C_R   0.889794 0.352768 0.994268 0.206418
C105  C     C_R   0.611186 0.619293 0.518464 0.219036
C106  C     C_R   0.394770 0.017173 0.980870 0.191373
C107  C     C_R   0.005210 0.385274 0.515392 0.213604
C108  C     C_R   0.414776 0.585461 0.969769 0.192311
C109  C     C_R   0.961061 0.490159 0.144381 0.235817
C110  C     C_R   0.407109 0.888729 0.378098 0.234832
C111  C     C_R   0.520489 0.545901 0.127948 0.238882
C112  C     C_R   0.090420 0.496731 0.376717 0.225940
C113  C     C_R   0.475396 0.008674 0.135073 0.243972
C114  C     C_R   0.508437 0.600835 0.376630 0.218854
C115  C     C_R   0.502612 0.106747 0.622398 0.227449
C116  C     C_R   0.978990 0.448220 0.872289 0.241569
C117  C     C_R   0.588407 0.489782 0.622308 0.233073
C118  C     C_R   0.467728 0.991123 0.864731 0.238431
C119  C     C_R   0.911622 0.401970 0.623904 0.216440
C120  C     C_R   0.416561 0.415921 0.856895 0.238131
C121  C     C_R   0.010955 0.490679 0.171786 -0.062434
C122  C     C_R   0.382151 0.881245 0.346566 -0.042418
C123  C     C_R   0.518393 0.570590 0.159669 -0.062163
C124  C     C_R   0.104189 0.487981 0.344973 -0.047087
C125  C     C_R   0.440597 0.966559 0.164716 -0.066969
C126  C     C_R   0.516373 0.618649 0.344465 -0.051668
C127  C     C_R   0.490555 0.113271 0.654420 -0.049615
C128  C     C_R   0.946810 0.420585 0.840946 -0.064143
C129  C     C_R   0.615085 0.503471 0.653724 -0.042018
C130  C     C_R   0.472832 0.035481 0.835573 -0.060052
C131  C     C_R   0.899768 0.383059 0.656010 -0.050040
C132  C     C_R   0.454973 0.420963 0.826875 -0.061317
C133  C     C_R   0.140813 0.635893 0.154965 -0.193044
C134  C     C_R   0.542609 0.943973 0.332032 -0.209160
C135  C     C_R   0.352788 0.511740 0.154776 -0.171657
C136  C     C_R   0.052050 0.595918 0.331800 -0.200995
C137  C     C_R   0.501178 0.863040 0.155712 -0.177335
C138  C     C_R   0.401550 0.459688 0.334103 -0.201105
C139  C     C_R   0.600389 0.061782 0.666078 -0.201861
C140  C     C_R   0.872204 0.513722 0.842515 -0.188454
C141  C     C_R   0.455572 0.406468 0.668941 -0.211314
C142  C     C_R   0.639938 0.113569 0.839051 -0.190570
C143  C     C_R   0.943850 0.541915 0.666531 -0.199533
C144  C     C_R   0.597405 0.444610 0.851439 -0.165425
C145  C     C_R   0.088912 0.640874 0.130062 -0.055226
C146  C     C_R   0.569156 0.979086 0.362438 -0.013758
C147  C     C_R   0.354095 0.487693 0.123739 -0.015533
C148  C     C_R   0.011839 0.581978 0.361688 0.001468
C149  C     C_R   0.531888 0.900326 0.125884 -0.027896
C150  C     C_R   0.413124 0.436413 0.364858 -0.003655
C151  C     C_R   0.590363 0.028920 0.635319 -0.009045
C152  C     C_R   0.901733 0.540516 0.873431 -0.025452
C153  C     C_R   0.427472 0.419075 0.639079 -0.006583
C154  C     C_R   0.636063 0.073219 0.867978 -0.043585
C155  C     C_R   0.981705 0.566162 0.636231 0.001769
C156  C     C_R   0.558496 0.433926 0.881143 -0.017768
C157  C     C_R   0.004461 0.561397 0.121414 0.186180
C158  C     C_R   0.501353 0.946957 0.386342 0.196869
C159  C     C_R   0.437726 0.504725 0.109960 0.210936
C160  C     C_R   0.038310 0.539493 0.385447 0.194342
C161  C     C_R   0.515768 0.971578 0.114499 0.200332
C162  C     C_R   0.458798 0.507846 0.387218 0.191567
C163  C     C_R   0.548058 0.058415 0.612545 0.194469
C164  C     C_R   0.950204 0.502397 0.889535 0.208390
C165  C     C_R   0.493769 0.455451 0.614665 0.194803
C166  C     C_R   0.549574 0.019187 0.882937 0.201267
C167  C     C_R   0.956953 0.495486 0.613557 0.190098
C168  C     C_R   0.468402 0.422044 0.884109 0.197687
H1    H     H_    0.831686 0.540545 0.831327 0.145210
H2    H     H_    0.640175 0.047330 0.683050 0.112212
H3    H     H_    0.665325 0.451183 0.849356 0.120362
H4    H     H_    0.954787 0.595163 0.683169 0.106903
H5    H     H_    0.707506 0.157764 0.828942 0.144312
H6    H     H_    0.404811 0.370807 0.687046 0.116225
H7    H     H_    0.594357 0.960999 0.314111 0.113065
H8    H     H_    0.206743 0.696659 0.160396 0.143087
H9    H     H_    0.359585 0.406048 0.317523 0.109290
H10   H     H_    0.512437 0.807296 0.163561 0.143416
H11   H     H_    0.039512 0.635819 0.314318 0.105699
H12   H     H_    0.287831 0.500912 0.164244 0.151544
H13   H     H_    0.059405 0.750528 0.972050 0.200346
H14   H     H_    0.752722 0.042897 0.528023 0.207193
H15   H     H_    0.416296 0.236152 0.980805 0.203237
H16   H     H_    0.970152 0.715669 0.527230 0.205300
H17   H     H_    0.729102 0.987778 0.973390 0.163071
H18   H     H_    0.254472 0.279632 0.529001 0.208279
H19   H     H_    0.736629 0.003427 0.472503 0.204996
H20   H     H_    0.040817 0.758628 0.028253 0.186655
H21   H     H_    0.243523 0.298616 0.472619 0.209175
H22   H     H_    0.739342 0.013021 0.029885 0.176737
H23   H     H_    0.999597 0.731883 0.470880 0.203984
H24   H     H_    0.425039 0.263400 0.036511 0.216296
N13   N     N_R   0.847266 0.262045 0.981042 0.113882
O51   O     O_R   0.890471 0.215011 0.982383 -0.321570
O52   O     O_R   0.758836 0.218966 0.975343 -0.379724
N14   N     N_R   0.302939 0.989595 0.529954 0.136903
O53   O     O_R   0.221613 0.918604 0.524660 -0.275840
O54   O     O_R   0.309814 0.058471 0.546228 -0.206376
N15   N     N_R   0.405278 0.648111 0.948988 0.156564
O55   O     O_R   0.323754 0.629124 0.938969 -0.183656
O56   O     O_R   0.477929 0.724597 0.940370 -0.232149
N16   N     N_R   0.014198 0.314388 0.531506 0.152735
O57   O     O_R   0.096024 0.327717 0.538669 -0.280870
O58   O     O_R   0.942559 0.232227 0.534518 -0.231975
N17   N     N_R   0.319255 0.013887 0.963252 0.144535
O59   O     O_R   0.274083 0.947421 0.943328 -0.200664
O60   O     O_R   0.289376 0.070978 0.969291 -0.267669
N18   N     N_R   0.686814 0.693502 0.534740 0.141684
O61   O     O_R   0.684750 0.769098 0.540400 -0.292211
O62   O     O_R   0.762916 0.691162 0.539491 -0.230186
N19   N     N_R   0.310547 0.002421 0.464717 0.128863
O63   O     O_R   0.289608 0.067023 0.469292 -0.280748
O64   O     O_R   0.255059 0.930210 0.448293 -0.214668
N20   N     N_R   0.852977 0.277840 0.045809 0.143450
O65   O     O_R   0.780932 0.258670 0.062752 -0.207656
O66   O     O_R   0.888710 0.223913 0.047034 -0.271997
N21   N     N_R   0.700635 0.677976 0.470347 0.148503
O67   O     O_R   0.766394 0.659545 0.464478 -0.281986
O68   O     O_R   0.715105 0.761490 0.466033 -0.218515
N22   N     N_R   0.311440 0.008414 0.028940 0.112980
O69   O     O_R   0.324662 0.076130 0.047216 -0.299451
O70   O     O_R   0.227423 0.945223 0.021806 -0.313883
N23   N     N_R   0.982386 0.298688 0.467006 0.148121
O71   O     O_R   0.901877 0.229555 0.459491 -0.288388
O72   O     O_R   0.055780 0.290401 0.464426 -0.239522
N24   N     N_R   0.397621 0.670890 0.013201 0.117647
O73   O     O_R   0.450472 0.755923 0.004093 -0.326122
O74   O     O_R   0.321947 0.649556 0.028301 -0.307884
C169  C     C_R   0.882819 0.611165 0.887331 0.064227
C170  C     C_R   0.838735 0.597000 0.916319 -0.081478
C171  C     C_R   0.825203 0.666049 0.929505 -0.107313
C172  C     C_R   0.852968 0.748811 0.913395 -0.076955
C173  C     C_R   0.895224 0.763076 0.884215 -0.082280
C174  C     C_R   0.910358 0.694854 0.871257 -0.053560
H25   H     H_    0.816996 0.533342 0.928990 0.125750
H26   H     H_    0.793135 0.655413 0.952232 0.115713
H27   H     H_    0.841949 0.801939 0.923547 0.133522
H28   H     H_    0.916951 0.827316 0.871736 0.114243
H29   H     H_    0.944741 0.707833 0.848851 0.117654
C175  C     C_R   0.618425 0.959736 0.627939 0.057266
C176  C     C_R   0.551148 0.869987 0.619122 -0.109157
C177  C     C_R   0.576951 0.804080 0.612084 -0.096322
C178  C     C_R   0.670062 0.827590 0.613563 -0.050492
C179  C     C_R   0.737372 0.916863 0.622145 -0.107037
C180  C     C_R   0.711700 0.982708 0.629354 -0.059602
H30   H     H_    0.478826 0.851081 0.617849 0.112802
H31   H     H_    0.524634 0.734899 0.605522 0.154961
H32   H     H_    0.690378 0.776858 0.608122 0.212211
H33   H     H_    0.809494 0.935163 0.623058 0.137803
H34   H     H_    0.764696 0.052340 0.634771 0.153682
C181  C     C_R   0.607904 0.423140 0.908526 0.051283
C182  C     C_R   0.624924 0.476630 0.935682 -0.107183
C183  C     C_R   0.658049 0.455434 0.962888 -0.144180
C184  C     C_R   0.677065 0.382590 0.962927 -0.096595
C185  C     C_R   0.663020 0.330920 0.935766 -0.072512
C186  C     C_R   0.628827 0.351044 0.908689 -0.064668
H35   H     H_    0.610745 0.533374 0.936019 0.122366
H36   H     H_    0.669330 0.495777 0.983874 0.135094
H37   H     H_    0.702976 0.366439 0.983939 0.158692
H38   H     H_    0.676907 0.274073 0.935760 0.172549
H39   H     H_    0.615298 0.308060 0.888217 0.123502
C187  C     C_R   0.051267 0.663674 0.629415 0.064986
C188  C     C_R   0.140303 0.686093 0.619413 -0.105321
C189  C     C_R   0.206426 0.777984 0.613037 -0.099111
C190  C     C_R   0.184031 0.848005 0.616447 -0.058558
C191  C     C_R   0.095600 0.826252 0.626258 -0.105135
C192  C     C_R   0.029472 0.734500 0.632710 -0.057523
H40   H     H_    0.158560 0.632501 0.616726 0.108517
H41   H     H_    0.274988 0.794803 0.605489 0.149518
H42   H     H_    0.234989 0.919123 0.611480 0.204398
H43   H     H_    0.078095 0.880422 0.628665 0.134673
H44   H     H_    0.960465 0.718202 0.639088 0.145905
C193  C     C_R   0.724148 0.083108 0.879465 0.044854
C194  C     C_R   0.779612 0.152403 0.900734 -0.065061
C195  C     C_R   0.866824 0.165392 0.908999 -0.015434
C196  C     C_R   0.898407 0.108955 0.896372 -0.079919
C197  C     C_R   0.843302 0.039766 0.875127 -0.118290
C198  C     C_R   0.756848 0.027421 0.866424 -0.055631
H45   H     H_    0.755568 0.196570 0.910324 0.173421
H46   H     H_    0.911200 0.220285 0.924680 0.238200
H47   H     H_    0.966000 0.119548 0.902800 0.162774
H48   H     H_    0.868029 0.996527 0.865105 0.110367
H49   H     H_    0.715359 0.974732 0.849446 0.125823
C199  C     C_R   0.331154 0.399112 0.634688 0.068860
C200  C     C_R   0.313280 0.470186 0.625933 -0.100925
C201  C     C_R   0.222105 0.451770 0.622458 -0.090342
C202  C     C_R   0.148517 0.362370 0.627513 -0.044163
C203  C     C_R   0.165792 0.291328 0.636085 -0.096143
C204  C     C_R   0.256769 0.309580 0.639685 -0.059128
H50   H     H_    0.369823 0.539784 0.622094 0.109291
H51   H     H_    0.208568 0.506834 0.615926 0.134807
H52   H     H_    0.077985 0.347869 0.624852 0.196650
H53   H     H_    0.108683 0.222069 0.639826 0.133868
H54   H     H_    0.269340 0.253586 0.645377 0.139122
C205  C     C_R   0.665807 0.051808 0.368150 0.061906
C206  C     C_R   0.686009 0.142098 0.375265 -0.106306
C207  C     C_R   0.777524 0.211180 0.380529 -0.094451
C208  C     C_R   0.849052 0.190212 0.379026 -0.045670
C209  C     C_R   0.829335 0.100484 0.372042 -0.099550
C210  C     C_R   0.738066 0.031503 0.366556 -0.056886
H55   H     H_    0.631026 0.158920 0.376565 0.110022
H56   H     H_    0.792810 0.280853 0.385737 0.145271
H57   H     H_    0.919899 0.243254 0.383199 0.206955
H58   H     H_    0.884730 0.084287 0.371054 0.135535
H59   H     H_    0.723293 0.961657 0.362352 0.150393
C211  C     C_R   0.101839 0.734148 0.125125 0.064445
C212  C     C_R   0.165429 0.796194 0.103447 -0.068712
C213  C     C_R   0.173733 0.883535 0.099481 -0.037234
C214  C     C_R   0.121465 0.910290 0.117566 -0.087282
C215  C     C_R   0.059813 0.849528 0.139709 -0.110105
C216  C     C_R   0.049917 0.761788 0.143504 -0.041434
H60   H     H_    0.206445 0.776320 0.089303 0.147402
H61   H     H_    0.220130 0.930854 0.082334 0.246060
H62   H     H_    0.128865 0.978165 0.114414 0.147523
H63   H     H_    0.019487 0.870224 0.153843 0.107618
H64   H     H_    0.001462 0.714965 0.160679 0.115011
C217  C     C_R   0.383027 0.338911 0.372772 0.058526
C218  C     C_R   0.448601 0.314453 0.382814 -0.108519
C219  C     C_R   0.420810 0.222824 0.390764 -0.101684
C220  C     C_R   0.327399 0.155152 0.388913 -0.058160
C221  C     C_R   0.261777 0.179005 0.379042 -0.107709
C222  C     C_R   0.289435 0.270502 0.370993 -0.059357
H65   H     H_    0.521150 0.366328 0.384429 0.112482
H66   H     H_    0.471796 0.204536 0.398388 0.155966
H67   H     H_    0.305603 0.084234 0.395131 0.211656
H68   H     H_    0.189373 0.126726 0.377865 0.137532
H69   H     H_    0.237666 0.288729 0.364736 0.154244
C223  C     C_R   0.584450 0.865299 0.108148 0.047222
C224  C     C_R   0.554755 0.823994 0.078653 -0.035099
C225  C     C_R   0.610192 0.799034 0.061382 -0.066834
C226  C     C_R   0.693530 0.811956 0.073837 -0.064095
C227  C     C_R   0.722244 0.850578 0.103516 -0.055323
C228  C     C_R   0.668142 0.877277 0.120596 -0.066187
H70   H     H_    0.490269 0.813668 0.068728 0.176501
H71   H     H_    0.588611 0.769305 0.038346 0.167006
H72   H     H_    0.735787 0.791909 0.060503 0.144606
H73   H     H_    0.786807 0.860510 0.113201 0.137356
H74   H     H_    0.692432 0.909155 0.143280 0.109833
C229  C     C_R   0.937949 0.605354 0.366821 0.066011
C230  C     C_R   0.849326 0.536123 0.376020 -0.104253
C231  C     C_R   0.779055 0.557575 0.380744 -0.091385
C232  C     C_R   0.796924 0.648247 0.376513 -0.047180
C233  C     C_R   0.884840 0.717459 0.367418 -0.099700
C234  C     C_R   0.955102 0.696138 0.362554 -0.058590
H75   H     H_    0.834605 0.465569 0.379331 0.109145
H76   H     H_    0.710789 0.503844 0.387637 0.144207
H77   H     H_    0.742770 0.665056 0.380225 0.202922
H78   H     H_    0.898660 0.787723 0.364294 0.133456
H79   H     H_    0.023476 0.750728 0.356566 0.140649
C235  C     C_R   0.269491 0.454712 0.104486 0.033323
C236  C     C_R   0.237194 0.515881 0.096765 -0.045818
C237  C     C_R   0.166994 0.490771 0.074513 -0.048186
C238  C     C_R   0.127195 0.403807 0.060398 -0.034480
C239  C     C_R   0.156473 0.341246 0.068900 -0.084153
C240  C     C_R   0.227567 0.366555 0.090855 -0.098552
H80   H     H_    0.269441 0.584523 0.106818 0.134348
H81   H     H_    0.144890 0.539554 0.067768 0.132066
H82   H     H_    0.073974 0.384970 0.042780 0.155559
H83   H     H_    0.125321 0.273826 0.058028 0.157401
H84   H     H_    0.251545 0.318540 0.096619 0.156767
C241  C     C_R   0.963475 0.424415 0.197548 0.072996
C242  C     C_R   0.903431 0.436870 0.217268 -0.068663
C243  C     C_R   0.859243 0.375292 0.241947 -0.103153
C244  C     C_R   0.874654 0.301034 0.247027 -0.094147
C245  C     C_R   0.934567 0.288399 0.227509 -0.088748
C246  C     C_R   0.978836 0.349799 0.202759 -0.019236
H85   H     H_    0.891196 0.494343 0.213558 0.101143
H86   H     H_    0.813036 0.385111 0.257124 0.098987
H87   H     H_    0.840014 0.253271 0.266062 0.097589
H88   H     H_    0.946622 0.231003 0.231553 0.101274
H89   H     H_    0.025064 0.339474 0.187728 0.126999
C247  C     C_R   0.308668 0.902574 0.337329 0.091856
C248  C     C_R   0.220119 0.832723 0.328602 0.004688
C249  C     C_R   0.156890 0.855596 0.315364 -0.110586
C250  C     C_R   0.180115 0.948166 0.312205 -0.107952
C251  C     C_R   0.267239 0.018153 0.321766 -0.120436
C252  C     C_R   0.331529 0.995582 0.334122 -0.080218
H90   H     H_    0.202638 0.761326 0.330674 0.148106
H91   H     H_    0.090224 0.801745 0.307173 0.075116
H92   H     H_    0.130939 0.965657 0.302091 0.097564
H93   H     H_    0.285586 0.089906 0.319063 0.104305
H94   H     H_    0.399911 0.050547 0.340555 0.108404
C253  C     C_R   0.603364 0.608939 0.179053 0.084779
C254  C     C_R   0.628629 0.549284 0.193890 -0.054006
C255  C     C_R   0.708960 0.585342 0.212224 -0.096149
C256  C     C_R   0.764378 0.680985 0.215791 -0.101596
C257  C     C_R   0.739701 0.740739 0.200963 -0.097379
C258  C     C_R   0.659549 0.704936 0.182572 -0.012477
H95   H     H_    0.586112 0.475100 0.191274 0.129671
H96   H     H_    0.728252 0.539166 0.223668 0.105190
H97   H     H_    0.826432 0.708778 0.230025 0.092281
H98   H     H_    0.782623 0.814764 0.203735 0.092290
H99   H     H_    0.640749 0.751621 0.171268 0.104956
C259  C     C_R   0.088779 0.397738 0.333372 0.091035
C260  C     C_R   0.162422 0.381004 0.328848 -0.003298
C261  C     C_R   0.146782 0.298942 0.314576 -0.114608
C262  C     C_R   0.057198 0.231771 0.306046 -0.108398
C263  C     C_R   0.983234 0.247254 0.311102 -0.120186
C264  C     C_R   0.999031 0.330428 0.324304 -0.090591
H100  H     H_    0.231542 0.433055 0.335436 0.140080
H101  H     H_    0.203856 0.287006 0.310080 0.078763
H102  H     H_    0.045190 0.167962 0.295376 0.098575
H103  H     H_    0.913820 0.195209 0.304492 0.097602
H104  H     H_    0.941420 0.342700 0.327342 0.094839
C265  C     C_R   0.394653 0.001780 0.185592 0.086476
C266  C     C_R   0.445228 0.065293 0.209251 -0.061780
C267  C     C_R   0.400323 0.094025 0.230188 -0.096273
C268  C     C_R   0.304920 0.059456 0.227606 -0.091384
C269  C     C_R   0.254248 0.996171 0.204053 -0.095481
C270  C     C_R   0.298855 0.967132 0.183134 -0.016744
H105  H     H_    0.518938 0.091558 0.211656 0.113234
H106  H     H_    0.439354 0.142650 0.248530 0.102843
H107  H     H_    0.270235 0.081436 0.243925 0.101075
H108  H     H_    0.180334 0.969064 0.202155 0.093760
H109  H     H_    0.258906 0.916789 0.165338 0.122485
C271  C     C_R   0.604952 0.692928 0.331614 0.087314
C272  C     C_R   0.622884 0.784227 0.328877 -0.000762
C273  C     C_R   0.701614 0.849956 0.312868 -0.109942
C274  C     C_R   0.764152 0.825669 0.300535 -0.107856
C275  C     C_R   0.747437 0.735193 0.303666 -0.113794
C276  C     C_R   0.667692 0.668810 0.318841 -0.092611
H110  H     H_    0.574190 0.802802 0.338197 0.139887
H111  H     H_    0.714091 0.919638 0.309672 0.077805
H112  H     H_    0.825147 0.876778 0.288332 0.096412
H113  H     H_    0.795547 0.716148 0.293960 0.098743
H114  H     H_    0.654185 0.598227 0.320381 0.095190
C277  C     C_R   0.399420 0.096255 0.665875 0.092447
C278  C     C_R   0.383535 0.169331 0.672820 0.008551
C279  C     C_R   0.302122 0.151826 0.688028 -0.104736
C280  C     C_R   0.234267 0.061087 0.694893 -0.107220
C281  C     C_R   0.248369 0.987697 0.687121 -0.119427
C282  C     C_R   0.330978 0.005186 0.672943 -0.088773
H115  H     H_    0.436373 0.239391 0.667780 0.142620
H116  H     H_    0.291809 0.208431 0.694885 0.078947
H117  H     H_    0.171169 0.047741 0.706485 0.093757
H118  H     H_    0.196076 0.917405 0.692610 0.100734
H119  H     H_    0.342428 0.947944 0.667953 0.099608
C283  C     C_R   0.977295 0.365119 0.822846 0.092650
C284  C     C_R   0.052317 0.408837 0.802238 -0.039801
C285  C     C_R   0.079229 0.356148 0.784361 -0.071188
C286  C     C_R   0.031275 0.259736 0.786923 -0.084960
C287  C     C_R   0.956476 0.215852 0.807407 -0.090484
C288  C     C_R   0.929402 0.268307 0.825297 -0.014502
H120  H     H_    0.089462 0.483439 0.799942 0.118425
H121  H     H_    0.136968 0.390009 0.768431 0.119072
H122  H     H_    0.051842 0.219014 0.772970 0.092119
H123  H     H_    0.919288 0.141216 0.809350 0.095626
H124  H     H_    0.871284 0.233905 0.840988 0.109277
C289  C     C_R   0.688844 0.596690 0.663321 0.090325
C290  C     C_R   0.777981 0.614123 0.670987 -0.000440
C291  C     C_R   0.842390 0.699152 0.684015 -0.114906
C292  C     C_R   0.819560 0.768614 0.688011 -0.106537
C293  C     C_R   0.731578 0.752549 0.679635 -0.119112
C294  C     C_R   0.666201 0.666762 0.667513 -0.085755
H125  H     H_    0.795210 0.560168 0.668103 0.145260
H126  H     H_    0.909929 0.711315 0.691221 0.078373
H127  H     H_    0.869767 0.834563 0.697834 0.101360
H128  H     H_    0.713560 0.806056 0.682970 0.108330
H129  H     H_    0.597351 0.654254 0.661877 0.104134
C295  C     C_R   0.388320 0.012489 0.817327 0.087366
C296  C     C_R   0.361478 0.949821 0.792392 -0.061799
C297  C     C_R   0.285565 0.933322 0.773664 -0.092213
C298  C     C_R   0.236293 0.979345 0.779702 -0.096381
C299  C     C_R   0.262763 0.041899 0.804499 -0.095230
C300  C     C_R   0.338704 0.058720 0.823255 -0.002999
H130  H     H_    0.400064 0.914888 0.787250 0.104959
H131  H     H_    0.265325 0.885373 0.754330 0.103118
H132  H     H_    0.177832 0.966788 0.765094 0.097321
H133  H     H_    0.224852 0.077836 0.809035 0.103231
H134  H     H_    0.359692 0.108482 0.842082 0.150193
C301  C     C_R   0.914022 0.308535 0.669316 0.084619
C302  C     C_R   0.841924 0.216692 0.670708 -0.005127
C303  C     C_R   0.854364 0.150289 0.686971 -0.111664
C304  C     C_R   0.939223 0.174787 0.701228 -0.106375
C305  C     C_R   0.011524 0.266025 0.699726 -0.116444
C306  C     C_R   0.998721 0.332857 0.684158 -0.097019
H135  H     H_    0.776005 0.197954 0.659987 0.140882
H136  H     H_    0.798209 0.079844 0.688838 0.078713
H137  H     H_    0.948670 0.123242 0.713670 0.095053
H138  H     H_    0.077060 0.285243 0.710967 0.093897
H139  H     H_    0.054582 0.403924 0.683863 0.093502
C307  C     C_R   0.397153 0.401047 0.798221 0.074644
C308  C     C_R   0.318736 0.313430 0.794035 -0.036671
C309  C     C_R   0.267221 0.292680 0.766311 -0.113414
C310  C     C_R   0.293291 0.359224 0.742663 -0.127207
C311  C     C_R   0.371104 0.446566 0.746662 -0.113096
C312  C     C_R   0.423092 0.467486 0.774292 -0.059278
H140  H     H_    0.298530 0.260886 0.812021 0.116472
H141  H     H_    0.207456 0.224798 0.763075 0.088505
H142  H     H_    0.253537 0.342976 0.721172 0.092803
H143  H     H_    0.391556 0.497822 0.728238 0.106017
H144  H     H_    0.483807 0.535067 0.776984 0.114255
N25   N     N_R   0.865163 0.420877 0.140436 0.116191
O75   O     O_R   0.835413 0.335544 0.148893 -0.260223
O76   O     O_R   0.808111 0.441965 0.126619 -0.241581
N26   N     N_R   0.337918 0.837530 0.401527 0.122216
O77   O     O_R   0.250532 0.806143 0.395729 -0.271554
O78   O     O_R   0.360407 0.807906 0.426507 -0.260750
N27   N     N_R   0.606670 0.565837 0.113726 0.093488
O79   O     O_R   0.680352 0.646165 0.117410 -0.345218
O80   O     O_R   0.612689 0.503151 0.097576 -0.244760
N28   N     N_R   0.132216 0.465779 0.399945 0.110955
O81   O     O_R   0.128395 0.386149 0.397461 -0.278011
O82   O     O_R   0.178361 0.519776 0.423101 -0.260367
N29   N     N_R   0.471950 0.090257 0.125818 0.114368
O83   O     O_R   0.397055 0.095307 0.129552 -0.294780
O84   O     O_R   0.542190 0.157673 0.111636 -0.225059
N30   N     N_R   0.546078 0.676630 0.398393 0.103513
O85   O     O_R   0.631305 0.743356 0.396190 -0.288394
O86   O     O_R   0.494043 0.679524 0.420446 -0.258308
N31   N     N_R   0.473038 0.152224 0.600052 0.115017
O87   O     O_R   0.398556 0.157499 0.604513 -0.273832
O88   O     O_R   0.526310 0.197206 0.576618 -0.256844
N32   N     N_R   0.044101 0.425478 0.886521 0.112870
O89   O     O_R   0.037684 0.345257 0.882301 -0.315806
O90   O     O_R   0.110263 0.485413 0.904296 -0.218798
N33   N     N_R   0.656456 0.509408 0.598361 0.114011
O91   O     O_R   0.742139 0.573769 0.602178 -0.267103
O92   O     O_R   0.635401 0.454545 0.574417 -0.263274
N34   N     N_R   0.380793 0.917522 0.876305 0.112505
O93   O     O_R   0.304131 0.919384 0.872452 -0.261481
O94   O     O_R   0.378988 0.850048 0.892402 -0.217364
N35   N     N_R   0.872842 0.326724 0.601949 0.106166
O95   O     O_R   0.890366 0.258957 0.604150 -0.286155
O96   O     O_R   0.818688 0.325617 0.579643 -0.256880
N36   N     N_R   0.324393 0.402117 0.859803 0.108221
O97   O     O_R   0.297337 0.448395 0.842225 -0.277980
O98   O     O_R   0.267510 0.344353 0.880391 -0.261443

loop_
_geom_bond_atom_site_label_1
_geom_bond_atom_site_label_2
_geom_bond_distance
_ccdc_geom_bond_type
C9    C23   1.485062 S    
C100  C107  1.407313 A    
C117  C165  1.419843 A    
N27   O79   1.300373 A    
C10   C24   1.489552 S    
C258  H99   1.081834 S    
N9    C57   1.385376 Am   
N33   O91   1.300650 A    
C52   O42   1.219042 D    
C45   N9    1.386521 Am   
N23   O71   1.300970 A    
C131  C301  1.483772 S    
C180  H34   1.078155 S    
C190  C191  1.396478 A    
C213  C214  1.396507 A    
C45   O35   1.220338 D    
N20   O65   1.301072 A    
C156  C181  1.486181 S    
C135  C147  1.391430 A    
C237  C238  1.397962 A    
C56   O46   1.217552 D    
C76   C83   1.404573 A    
C37   N1    1.389677 Am   
C194  H45   1.080290 S    
C304  C305  1.395405 A    
O21   C9    1.300540 A    
C28   C40   1.406409 A    
N28   O82   1.301416 A    
C238  H82   1.080801 S    
O24   Cr6   1.895519 S    
O10   Cr4   1.995613 S    
C297  C298  1.398216 A    
C310  C311  1.397770 A    
C260  C261  1.401101 A    
C93   H18   1.083314 S    
O12   Cr6   2.003570 S    
N12   C60   1.383012 Am   
C132  C307  1.485966 S    
C286  H122  1.081987 S    
C135  H12   1.084577 S    
C277  C278  1.401366 A    
C18   C141  1.400290 A    
C261  C262  1.396551 A    
N25   O76   1.301541 A    
C109  C121  1.428680 A    
C70   C106  1.416819 A    
C101  C106  1.412322 A    
N32   O89   1.300071 A    
C114  C126  1.397762 A    
C72   C84   1.413468 A    
O1    Cr1   1.997230 S    
N4    C52   1.385355 Am   
C24   C123  1.417371 A    
O3    Cr3   2.002175 S    
C221  H68   1.082364 S    
C50   O40   1.220707 D    
C21   C126  1.412793 A    
O7    C9    1.278172 A    
C244  H87   1.081816 S    
Cr6   O26   1.964107 S    
C285  H121  1.082299 S    
C116  N32   1.443140 S    
C86   H19   1.083404 S    
C36   C96   1.403996 A    
C66   C78   1.405736 A    
C33   C45   1.404726 A    
C187  C188  1.405394 A    
C16   C131  1.411416 A    
C53   C65   1.417069 A    
C185  C186  1.396676 A    
C138  H9    1.081800 S    
C35   C47   1.406112 A    
C142  H5    1.083692 S    
C290  H125  1.078067 S    
N16   O57   1.300958 A    
C194  C195  1.400143 A    
C26   C38   1.402093 A    
C283  C284  1.403474 A    
C173  C174  1.398074 A    
C5    C13   1.508277 S    
C48   O38   1.222724 D    
C115  N31   1.443010 S    
C293  H128  1.082367 S    
C69   C105  1.417499 A    
C227  H73   1.082378 S    
N10   C58   1.392031 Am   
O14   Cr2   1.897457 S    
O15   C3    1.288971 A    
C202  C203  1.395444 A    
C72   C108  1.418613 A    
C22   C137  1.401283 A    
C143  C155  1.410359 A    
C199  C200  1.404216 A    
C280  C281  1.396418 A    
O16   C4    1.299206 A    
C273  H111  1.080753 S    
C134  C146  1.404057 A    
O15   Cr3   1.896313 S    
C40   O30   1.220269 D    
C19   C122  1.406060 A    
C114  N30   1.439967 S    
C224  H70   1.082940 S    
O5    C1    1.289649 A    
C209  H58   1.082392 S    
C244  C245  1.398448 A    
C59   C71   1.404505 A    
C302  H135  1.079842 S    
N10   C166  1.466995 S    
C11   C19   1.471541 S    
C221  C222  1.397234 A    
N16   O58   1.300781 A    
C303  C304  1.397071 A    
C65   C77   1.406955 A    
C170  C171  1.399082 A    
C219  C220  1.398043 A    
C308  C309  1.398500 A    
C63   C75   1.413034 A    
C172  C173  1.395922 A    
N13   O52   1.299859 A    
C253  C258  1.404051 A    
C126  C271  1.482771 S    
C265  C270  1.404063 A    
C50   C62   1.402411 A    
C196  H47   1.082290 S    
C154  C166  1.417943 A    
C301  C306  1.406351 A    
C97   N20   1.435582 S    
N22   O69   1.301118 A    
C140  H1    1.083777 S    
N7    C163  1.448979 S    
C212  C213  1.400576 A    
C290  C291  1.400189 A    
C25   C73   1.404880 A    
C44   N8    1.385435 Am   
C90   H21   1.083322 S    
C130  C295  1.478958 S    
C262  H102  1.082322 S    
O23   Cr5   1.897718 S    
N30   O85   1.300951 A    
Cr2   O25   1.972692 S    
N21   O68   1.300671 A    
C207  C208  1.398703 A    
C53   O43   1.217786 D    
C216  H64   1.083669 S    
N24   O73   1.301149 A    
C275  C276  1.396934 A    
C268  H107  1.082475 S    
C298  H132  1.082375 S    
C211  C216  1.408375 A    
N19   O64   1.300792 A    
C276  H114  1.083458 S    
C33   C81   1.408106 A    
C273  C274  1.397121 A    
C38   O28   1.220333 D    
N3    C159  1.450865 S    
C144  H3    1.084361 S    
C175  C180  1.403290 A    
C235  C240  1.403914 A    
C40   N4    1.388274 Am   
N1    C157  1.477883 S    
C307  C312  1.405243 A    
C111  C123  1.424812 A    
C299  C300  1.398581 A    
C263  C264  1.397457 A    
C33   C93   1.406762 A    
C256  H97   1.082384 S    
C247  C252  1.405887 A    
C117  C129  1.395435 A    
C231  C232  1.397674 A    
C208  H57   1.080846 S    
C54   O44   1.219982 D    
C263  H103  1.082098 S    
C172  H27   1.082381 S    
C238  C239  1.396933 A    
C142  C154  1.389965 A    
C190  H42   1.081737 S    
C101  N22   1.433608 S    
C205  C210  1.403416 A    
C236  C237  1.396210 A    
C31   C91   1.406279 A    
C151  C175  1.478289 S    
C266  C267  1.398964 A    
C198  H49   1.083263 S    
C42   N6    1.387154 Am   
C241  C242  1.403873 A    
C137  C149  1.398639 A    
C203  H53   1.082457 S    
C148  C160  1.421248 A    
C304  H137  1.082361 S    
C173  H28   1.082439 S    
C95   H16   1.083315 S    
N23   O72   1.300763 A    
N34   O94   1.301611 A    
C20   C133  1.397386 A    
N13   O51   1.300485 A    
C58   O48   1.221921 D    
C120  C132  1.420661 A    
C245  H88   1.082367 S    
C215  H63   1.082355 S    
C121  C241  1.478582 S    
C206  C207  1.397938 A    
C119  N35   1.439344 S    
C272  H110  1.079564 S    
O3    C5    1.292490 A    
C211  C212  1.400988 A    
C154  C193  1.472584 S    
C29   C77   1.409064 A    
C139  H2    1.082490 S    
N6    C162  1.452604 S    
C124  C259  1.481807 S    
C259  C264  1.405119 A    
C114  C162  1.418823 A    
C243  C244  1.397452 A    
N14   O53   1.301041 A    
C17   C142  1.398075 A    
C310  H142  1.082510 S    
C277  C282  1.405134 A    
C312  H144  1.083043 S    
C47   O37   1.220096 D    
C77   C82   1.412723 A    
C12   C20   1.486930 S    
C19   C134  1.399816 A    
C20   C121  1.413781 A    
C13   C128  1.419240 A    
C27   C75   1.415260 A    
C239  H83   1.082275 S    
C32   C80   1.412091 A    
C47   N11   1.388985 Am   
C237  H81   1.081924 S    
C56   C68   1.423079 A    
C191  H43   1.082397 S    
C31   C79   1.408250 A    
C271  C272  1.401053 A    
N26   O78   1.301700 A    
C21   C138  1.400677 A    
C39   O29   1.222687 D    
C32   C44   1.412817 A    
O22   C10   1.291630 A    
C297  H131  1.082415 S    
O8    Cr5   2.007285 S    
C88   C95   1.399188 A    
C218  H65   1.083404 S    
C191  C192  1.397517 A    
C295  C296  1.403408 A    
C186  H39   1.083506 S    
C306  H139  1.083453 S    
C42   O32   1.220421 D    
O21   Cr6   1.895102 S    
C251  C252  1.397670 A    
N22   O70   1.301561 A    
C206  H55   1.083445 S    
C272  C273  1.401136 A    
N5    C53   1.389280 Am   
O2    Cr2   1.992491 S    
C305  C306  1.396803 A    
C169  C174  1.408327 A    
N7    C55   1.384636 Am   
C43   N7    1.385213 Am   
C296  C297  1.398846 A    
N25   O75   1.301401 A    
O8    C10   1.291840 A    
O4    Cr1   2.007549 S    
C41   O31   1.221497 D    
C232  C233  1.396266 A    
C68   C80   1.409914 A    
C43   O33   1.220755 D    
C183  C184  1.397383 A    
C13   C140  1.404227 A    
C67   C79   1.406360 A    
C187  C192  1.403521 A    
C49   C61   1.421058 A    
C239  C240  1.397526 A    
C54   C66   1.403787 A    
C102  N21   1.432827 S    
C115  C163  1.417555 A    
C98   N19   1.435016 S    
O20   C8    1.287247 A    
C283  C288  1.403686 A    
C230  H75   1.083352 S    
N11   C167  1.458448 S    
C153  C165  1.420406 A    
C233  H78   1.082436 S    
C305  H138  1.082216 S    
C92   H13   1.083368 S    
C6    C14   1.477190 S    
C118  C130  1.426046 A    
C228  H74   1.083261 S    
C188  H40   1.082978 S    
C151  C163  1.418455 A    
C254  C255  1.398946 A    
C189  H41   1.082160 S    
C251  H93   1.082369 S    
N15   O55   1.300795 A    
N26   O77   1.300788 A    
C136  C148  1.409652 A    
N20   O66   1.300623 A    
C280  H117  1.082363 S    
C88   H23   1.083301 S    
C85   C92   1.398690 A    
C215  C216  1.395525 A    
C118  N34   1.443377 S    
C86   C91   1.395859 A    
C224  C225  1.400745 A    
C284  H120  1.083049 S    
C260  H100  1.078638 S    
C31   C43   1.401020 A    
C89   C94   1.399910 A    
C71   C83   1.404170 A    
N17   O60   1.300616 A    
C264  H104  1.083536 S    
C147  C159  1.407646 A    
O17   Cr2   1.884158 S    
C58   C70   1.411935 A    
C111  C159  1.418999 A    
C62   C74   1.405844 A    
C52   C64   1.404501 A    
C136  H11   1.082873 S    
C145  C157  1.420437 A    
O19   Cr4   1.885525 S    
C109  C157  1.427565 A    
C253  C254  1.403153 A    
C35   C95   1.407578 A    
N12   C168  1.450990 S    
N18   O61   1.300623 A    
C281  H118  1.082448 S    
C30   C78   1.406805 A    
C301  C302  1.400818 A    
C143  H4    1.082214 S    
N32   O90   1.301449 A    
C14   C139  1.399145 A    
C249  C250  1.396998 A    
C113  N29   1.440894 S    
C242  H85   1.083393 S    
C3    C17   1.490397 S    
C285  C286  1.398265 A    
C118  C166  1.427484 A    
C23   C136  1.402512 A    
C300  H134  1.083378 S    
C140  C152  1.402662 A    
C292  H127  1.082354 S    
N6    C54   1.384322 Am   
C270  H109  1.082439 S    
C46   N10   1.388703 Am   
O17   C5    1.293140 A    
C195  C196  1.396804 A    
O19   C7    1.304777 A    
C200  C201  1.397854 A    
C70   C82   1.403798 A    
C266  H105  1.083106 S    
C24   C135  1.404853 A    
C141  C153  1.406275 A    
C46   O36   1.219524 D    
C295  C300  1.405155 A    
C133  H8    1.086266 S    
C48   N12   1.380825 Am   
C302  C303  1.401630 A    
C38   N2    1.384530 Am   
C34   C82   1.406742 A    
C144  C156  1.398781 A    
C286  C287  1.397988 A    
C110  C122  1.395468 A    
C39   N3    1.379369 Am   
C61   C73   1.405132 A    
C299  H133  1.082301 S    
C183  H36   1.082235 S    
C247  C248  1.400516 A    
C34   C94   1.406910 A    
C51   O41   1.218695 D    
C104  N13   1.431094 S    
N29   O84   1.301403 A    
C65   C101  1.423460 A    
C208  C209  1.395664 A    
C150  C162  1.419099 A    
C26   C86   1.405919 A    
C90   C93   1.397680 A    
C267  H106  1.082369 S    
C252  H94   1.083586 S    
C68   C104  1.426016 A    
C111  N27   1.439909 S    
C115  C127  1.397261 A    
C205  C206  1.403430 A    
C30   C90   1.407108 A    
C274  H112  1.082336 S    
C67   C103  1.417868 A    
C113  C125  1.424187 A    
C1    C15   1.475432 S    
C109  N25   1.441828 S    
C146  C205  1.476326 S    
C2    C16   1.489592 S    
C289  C290  1.399760 A    
C149  C223  1.483381 S    
C99   N24   1.438174 S    
C184  C185  1.397136 A    
C257  C258  1.398270 A    
O5    Cr2   2.007070 S    
N33   O92   1.301603 A    
C49   O39   1.220289 D    
C309  H141  1.082241 S    
C74   C79   1.402813 A    
C8    C22   1.493055 S    
C268  C269  1.398373 A    
C18   C129  1.405637 A    
C177  H31   1.081630 S    
C226  H72   1.082275 S    
C34   C46   1.410000 A    
C148  C229  1.480214 S    
C214  H62   1.082336 S    
C282  H119  1.083470 S    
C55   O45   1.220897 D    
N31   O87   1.300621 A    
C184  H37   1.082378 S    
C64   C100  1.418114 A    
C192  H44   1.077385 S    
C291  C292  1.396788 A    
C223  C224  1.404168 A    
C137  H10   1.085057 S    
C222  H69   1.077531 S    
C259  C260  1.399786 A    
C227  C228  1.396809 A    
C15   C144  1.397983 A    
C29   C41   1.409433 A    
C220  H67   1.081515 S    
C212  H60   1.083004 S    
C25   C85   1.406267 A    
C303  H136  1.080965 S    
C112  C160  1.420754 A    
C138  C150  1.406901 A    
C279  H116  1.081056 S    
C119  C131  1.399164 A    
N30   O86   1.301315 A    
Cr1   O25   1.971482 S    
N11   C59   1.385444 Am   
O18   Cr3   1.893962 S    
C28   C88   1.407519 A    
N21   O67   1.300930 A    
C36   C84   1.413542 A    
C29   C89   1.407716 A    
C78   C81   1.403694 A    
C62   C98   1.417931 A    
C16   C143  1.401988 A    
C32   C92   1.408253 A    
O24   C12   1.287692 A    
C182  H35   1.081842 S    
C155  C187  1.481997 S    
C107  N16   1.433198 S    
C133  C145  1.393982 A    
C271  C276  1.405597 A    
C308  H140  1.083055 S    
N3    C51   1.383494 Am   
C75   C84   1.419707 A    
N8    C56   1.390373 Am   
N36   O98   1.301226 A    
N27   O80   1.300020 A    
N9    C165  1.453129 S    
C257  H98   1.082316 S    
Cr5   O26   1.970995 S    
C311  C312  1.398799 A    
C122  C247  1.483193 S    
N36   O97   1.301372 A    
N4    C160  1.457488 S    
C147  C235  1.477772 S    
C217  C218  1.404696 A    
C181  C186  1.406259 A    
C213  H61   1.072919 S    
C139  C151  1.403928 A    
C225  H71   1.080887 S    
O16   Cr1   1.886943 S    
C223  C228  1.406471 A    
C193  C198  1.406412 A    
C243  H86   1.082360 S    
C296  H130  1.083072 S    
C61   C97   1.415191 A    
C23   C124  1.408766 A    
C218  C219  1.397786 A    
N28   O81   1.300825 A    
N19   O63   1.300985 A    
C232  H77   1.080893 S    
C116  C128  1.430577 A    
C28   C76   1.407221 A    
N15   O56   1.301001 A    
C55   C67   1.403497 A    
C307  C308  1.405571 A    
C287  H123  1.082314 S    
C134  H7    1.082839 S    
C174  H29   1.083163 S    
C103  N14   1.434755 S    
C37   O27   1.218064 D    
N2    C158  1.448545 S    
C181  C182  1.406792 A    
C289  C294  1.405564 A    
C230  C231  1.397937 A    
C100  N23   1.433266 S    
N14   O54   1.300547 A    
C177  C178  1.398310 A    
C233  C234  1.397243 A    
O9    C11   1.275724 A    
O6    Cr3   2.006412 S    
C30   C42   1.403069 A    
O10   C12   1.290659 A    
C254  H95   1.083136 S    
C226  C227  1.395753 A    
C102  C105  1.405409 A    
C36   C48   1.405968 A    
C110  N26   1.444506 S    
C178  C179  1.396122 A    
C261  H101  1.081025 S    
C169  C170  1.402025 A    
C71   C107  1.417502 A    
C209  C210  1.396213 A    
C145  C211  1.472753 S    
C188  C189  1.398483 A    
O20   Cr5   1.885236 S    
C14   C127  1.412099 A    
O6    C2    1.276812 A    
C176  C177  1.397496 A    
C179  C180  1.396648 A    
C41   N5    1.385849 Am   
O9    Cr6   2.005795 S    
C269  C270  1.398059 A    
C279  C280  1.396895 A    
C294  H129  1.083624 S    
C210  H59   1.078991 S    
C106  N17   1.438244 S    
C57   O47   1.220171 D    
C201  H51   1.081922 S    
C281  C282  1.397705 A    
C105  N18   1.432257 S    
C197  H48   1.082356 S    
C59   O49   1.218848 D    
C298  C299  1.398171 A    
C185  H38   1.080178 S    
C249  H91   1.081417 S    
C26   C74   1.408974 A    
C242  C243  1.397828 A    
C203  C204  1.396065 A    
C196  C197  1.395306 A    
C73   C80   1.420333 A    
C149  C161  1.422548 A    
C4    C18   1.475546 S    
N5    C161  1.465281 S    
C113  C161  1.425715 A    
C292  C293  1.396007 A    
C229  C230  1.405181 A    
O18   C6    1.299535 A    
C293  C294  1.397563 A    
C44   O34   1.221900 D    
O13   Cr1   1.897867 S    
C246  H89   1.083154 S    
C108  N15   1.432726 S    
C170  H25   1.078546 S    
N1    C49   1.394785 Am   
C97   C104  1.410676 A    
C202  H52   1.079905 S    
O11   C7    1.278093 A    
C64   C76   1.404606 A    
C22   C125  1.413241 A    
C199  C204  1.403624 A    
O12   C8    1.289143 A    
O13   C1    1.286177 A    
C255  C256  1.398266 A    
C112  N28   1.440459 S    
C94   H17   1.083300 S    
C189  C190  1.397831 A    
C17   C130  1.414808 A    
C291  H126  1.081353 S    
C123  C253  1.479386 S    
C284  C285  1.398946 A    
C152  C164  1.422085 A    
C35   C83   1.406648 A    
N8    C164  1.467443 S    
C96   H15   1.081437 S    
N34   O93   1.300700 A    
C116  C164  1.424289 A    
C51   C63   1.418596 A    
C219  H66   1.081722 S    
C112  C124  1.397925 A    
C128  C283  1.479212 S    
C267  C268  1.398518 A    
N35   O96   1.301309 A    
C171  C172  1.395811 A    
C27   C87   1.404539 A    
C220  C221  1.396496 A    
Cr3   O25   1.964014 S    
C265  C266  1.403012 A    
C269  H108  1.082398 S    
O14   C2    1.302628 A    
C217  C222  1.403187 A    
N31   O88   1.301584 A    
C287  C288  1.397882 A    
C231  H76   1.082122 S    
C89   H22   1.083272 S    
Cr4   O26   1.973087 S    
C152  C169  1.488285 S    
O7    Cr4   2.007331 S    
O22   Cr4   1.897598 S    
C262  C263  1.395400 A    
C250  H92   1.082341 S    
C255  H96   1.082492 S    
C229  C234  1.403567 A    
C7    C21   1.485129 S    
C125  C265  1.478231 S    
C214  C215  1.394135 A    
C256  C257  1.398087 A    
C155  C167  1.422024 A    
C207  H56   1.081852 S    
C127  C277  1.483865 S    
C309  C310  1.397503 A    
C69   C81   1.404879 A    
C85   H20   1.083522 S    
N18   O62   1.300725 A    
C234  H79   1.077817 S    
C201  C202  1.397952 A    
C66   C102  1.416519 A    
C275  H113  1.082394 S    
C15   C132  1.415870 A    
C274  C275  1.395748 A    
C175  C176  1.403969 A    
C235  C236  1.404292 A    
C171  H26   1.081969 S    
C204  H54   1.078234 S    
N2    C50   1.384507 Am   
C129  C289  1.481961 S    
C179  H33   1.082364 S    
C200  H50   1.083417 S    
C91   H14   1.083415 S    
C120  C168  1.417093 A    
C141  H6    1.081909 S    
C288  H124  1.080612 S    
C240  H84   1.082622 S    
C87   C96   1.390518 A    
C248  H90   1.078131 S    
O23   C11   1.294533 A    
C182  C183  1.399914 A    
C236  H80   1.083518 S    
C250  C251  1.396179 A    
C176  H30   1.083480 S    
N24   O74   1.301080 A    
C87   H24   1.082822 S    
C248  C249  1.399671 A    
C278  H115  1.078336 S    
C241  C246  1.403605 A    
C278  C279  1.400202 A    
O11   Cr5   1.993331 S    
C153  C199  1.477433 S    
C57   C69   1.403122 A    
C311  H143  1.082453 S    
N29   O83   1.300989 A    
C146  C158  1.418807 A    
O4    C6    1.273783 A    
C110  C158  1.418593 A    
C156  C168  1.418049 A    
C63   C99   1.423812 A    
N35   O95   1.300939 A    
C195  H46   1.077765 S    
C98   C103  1.406624 A    
C245  C246  1.398990 A    
C60   O50   1.221189 D    
C117  N33   1.442522 S    
O1    C3    1.290267 A    
C193  C194  1.398321 A    
C225  C226  1.395815 A    
O2    C4    1.279841 A    
C25   C37   1.410168 A    
C197  C198  1.396658 A    
C178  H32   1.081241 S    
C150  C217  1.480189 S    
C120  N36   1.439820 S    
C119  C167  1.421583 A    
C27   C39   1.407108 A    
C99   C108  1.409723 A    
C60   C72   1.419708 A    
N17   O59   1.301276 A    
