data_mof_unit_18441.cif
_audit_creation_date              2012-12-10T20:38:20-0500
_audit_creation_method            fapswitch 2.2
_symmetry_space_group_name_H-M    P1
_symmetry_Int_Tables_number       1
_space_group_crystal_system       triclinic
_cell_length_a                    9.842094
_cell_length_b                    10.665928
_cell_length_c                    16.633347
_cell_angle_alpha                 90.207286
_cell_angle_beta                  84.617264
_cell_angle_gamma                 90.109565
_cell_volume                      1738.37339141

loop_
_atom_site_label
_atom_site_type_symbol
_atom_type_description
_atom_site_fract_x
_atom_site_fract_y
_atom_site_fract_z
_atom_type_partial_charge
C1    C     C_R   0.500271 0.740488 0.500646 0.884809
C2    C     C_R   0.371557 0.612764 0.769720 -0.226948
C3    C     C_R   0.454335 0.672104 0.157552 -0.154192
C4    C     C_R   0.435798 0.623400 0.234921 -0.209639
C5    C     C_R   0.653742 0.516531 0.213227 -0.198047
C6    C     C_R   0.670996 0.563201 0.134982 -0.169363
C7    C     C_R   0.569465 0.637972 0.105984 0.201045
C8    C     C_2   0.462383 0.654413 0.980766 -0.221688
C9    C     C_2   0.576057 0.660354 0.018985 -0.236056
C10   C     C_R   0.534148 0.543595 0.262583 -0.031363
C11   C     C_R   0.381169 0.935797 0.536272 0.083033
C12   C     C_R   0.480276 0.499882 0.653525 0.931090
C13   C     C_R   0.501421 0.872382 0.512514 -0.104360
C14   C     C_R   0.626080 0.936572 0.510629 -0.223387
C15   C     C_R   0.625458 0.065733 0.515918 -0.185835
C16   C     C_R   0.500000 0.129539 0.524273 -0.139555
C17   C     C_R   0.380428 0.062576 0.547663 0.057613
C18   C     C_3   0.235299 0.073365 0.526703 0.283921
C19   C     C_3   0.244121 0.934473 0.505004 -0.481553
C20   C     C_R   0.922970 0.593728 0.537981 0.214226
C21   C     C_R   0.934748 0.414687 0.455902 -0.128895
C22   C     C_R   0.078939 0.414942 0.455679 -0.160922
C23   C     C_R   0.499151 0.260227 0.506321 0.899535
C24   C     C_R   0.065733 0.594272 0.537517 0.218384
C25   C     C_3   0.058508 0.627939 0.624808 -0.534763
C26   C     C_3   0.904073 0.625875 0.625632 -0.489664
C27   C     C_R   0.519656 0.505170 0.346583 0.856919
C28   C     C_R   0.466183 0.521541 0.740025 -0.121886
C29   C     C_R   0.556624 0.467591 0.791111 -0.050739
C30   C     C_R   0.556959 0.514866 0.869534 -0.196553
C31   C     C_R   0.467190 0.611327 0.897244 0.171803
C32   C     C_R   0.371234 0.656481 0.848232 -0.152301
H1    H     H_    0.760538 0.536163 0.095916 0.128834
H2    H     H_    0.723082 0.888935 0.498832 0.172204
H3    H     H_    0.722101 0.114632 0.505718 0.172790
H4    H     H_    0.217373 0.135339 0.475122 0.088275
H5    H     H_    0.169707 0.874628 0.541483 0.222771
H6    H     H_    0.250418 0.916717 0.438821 0.152630
H7    H     H_    0.885469 0.344190 0.421777 0.143209
H8    H     H_    0.138726 0.344664 0.421384 0.145359
H9    H     H_    0.100270 0.553466 0.661567 0.219302
H10   H     H_    0.345882 0.650340 0.273697 0.153910
H11   H     H_    0.099843 0.722824 0.635318 0.204113
H12   H     H_    0.855213 0.548979 0.662982 0.224540
H13   H     H_    0.856727 0.719693 0.636455 0.207150
H14   H     H_    0.732472 0.458043 0.234791 0.145669
H15   H     H_    0.675004 0.652055 0.984332 0.155967
H16   H     H_    0.298604 0.727873 0.870084 0.136274
H17   H     H_    0.377000 0.733749 0.137726 0.126484
H18   H     H_    0.301835 0.654699 0.730921 0.159397
H19   H     H_    0.361826 0.662291 0.013176 0.149759
H20   H     H_    0.623934 0.473330 0.910154 0.168373
N1    N     N_R   0.857140 0.500860 0.500530 -0.104947
N2    N     N_R   0.142780 0.500820 0.500530 -0.111563
O1    O     O_R   0.385310 0.683210 0.499990 -0.615151
O2    O     O_R   0.614650 0.683240 0.500000 -0.624305
O3    O     O_R   0.371780 0.500000 0.615800 -0.637452
O4    O     O_R   0.601120 0.500040 0.615800 -0.593267
O5    O     O_R   0.385350 0.316760 0.500000 -0.656336
O6    O     O_R   0.614690 0.316790 0.500010 -0.604088
O7    O     O_R   0.398880 0.499960 0.384200 -0.613493
O8    O     O_R   0.628220 0.500000 0.384200 -0.614623
Zn1   Zn    Zn3+2 0.346870 0.499980 0.499990 0.923592
Zn2   Zn    Zn3+2 0.653130 0.500020 0.500010 0.957939
C33   C     C_2   0.646923 0.359783 0.765714 0.886532
O9    O     O_2   0.747540 0.338146 0.801275 -0.658735
O10   O     O_R   0.614868 0.280077 0.703208 -0.814771
H21   H     H_    0.684199 0.210527 0.691891 0.343635
O11   O     O_3   0.140728 0.087463 0.595725 -0.630872
C34   C     C_3   0.145646 0.208458 0.629801 0.106753
H22   H     H_    0.084154 0.273807 0.596203 0.157458
H23   H     H_    0.251620 0.244787 0.629817 0.166358
C35   C     C_3   0.084784 0.200687 0.717660 -0.329573
H24   H     H_    0.979383 0.162243 0.720022 0.246576
H25   H     H_    0.147581 0.135838 0.750985 0.226775
C36   C     C_3   0.080520 0.328317 0.759262 -0.884823
H26   H     H_    0.182782 0.373402 0.752753 0.256904
H27   H     H_    0.048140 0.316610 0.824555 0.282670
H28   H     H_    0.005138 0.389168 0.732951 0.277129

loop_
_geom_bond_atom_site_label_1
_geom_bond_atom_site_label_2
_ccdc_geom_bond_type
C10   C27   S    
C32   H16   S    
C35   H24   S    
C36   H28   S    
C25   H11   S    
C3    H17   S    
C26   H12   S    
C22   N2    A    
C23   O5    A    
C11   C19   S    
C20   C26   S    
C12   C28   S    
C28   C29   A    
C27   O8    A    
C1    O2    A    
C36   H27   S    
C3    C7    A    
C5    C6    A    
N1    Zn2   S    
N2    Zn1   S    
C24   N2    A    
C15   C16   A    
C2    C32   A    
C18   C19   S    
O7    Zn1   S    
O8    Zn2   S    
C2    H18   S    
C26   H13   S    
C20   C24   A    
C8    C9    D    
C33   O10   S    
O1    Zn1   S    
O2    Zn2   S    
C34   H22   S    
C27   O7    A    
C12   O4    A    
C18   O11   S    
C21   C22   A    
C35   H25   S    
C15   H3    S    
O3    Zn1   S    
O4    Zn2   S    
C23   O6    A    
O10   H21   S    
C36   H26   S    
C25   H9    S    
C16   C17   A    
C25   C26   S    
C29   C30   A    
C19   H5    S    
C19   H6    S    
C31   C32   A    
C21   H7    S    
C22   H8    S    
C34   C35   S    
C17   C18   S    
C24   C25   S    
C8    H19   S    
C29   C33   S    
C12   O3    A    
C9    H15   S    
C16   C23   S    
C35   C36   S    
C1    C13   S    
C4    C10   A    
C3    C4    A    
C7    C9    S    
C30   H20   S    
C11   C17   A    
C8    C31   S    
C20   N1    A    
C14   H2    S    
C34   H23   S    
C6    C7    A    
C5    H14   S    
O5    Zn1   S    
C6    H1    S    
O6    Zn2   S    
C1    O1    A    
C5    C10   A    
C21   N1    A    
C11   C13   A    
C30   C31   A    
C4    H10   S    
O11   C34   S    
C33   O9    D    
C14   C15   A    
C2    C28   A    
C13   C14   A    
C18   H4    S    
