data_mof_unit_67344.cif
_audit_creation_date              2013-03-05T16:08:09-0500
_audit_creation_method            fapswitch 2.2
_symmetry_space_group_name_H-M    P1
_symmetry_Int_Tables_number       1
_space_group_crystal_system       triclinic
_cell_length_a                    19.753655
_cell_length_b                    23.432891
_cell_length_c                    9.080534
_cell_angle_alpha                 90.179037
_cell_angle_beta                  104.859348
_cell_angle_gamma                 89.917471
_cell_volume                      4062.66070644

loop_
_atom_site_label
_atom_site_type_symbol
_atom_site_description
_atom_site_fract_x
_atom_site_fract_y
_atom_site_fract_z
_atom_type_partial_charge
P1    P     P_3+3 0.853370 0.434890 0.996520 0.724973
P2    P     P_3+3 0.853370 0.565110 0.496520 0.723581
P3    P     P_3+3 0.353370 0.934890 0.996520 0.725996
P4    P     P_3+3 0.353370 0.065110 0.496520 0.722686
O1    O     O_2   0.860260 0.414960 0.826400 -0.253663
O2    O     O_2   0.860260 0.585040 0.326400 -0.253846
O3    O     O_2   0.360260 0.914960 0.826400 -0.241896
O4    O     O_2   0.360260 0.085040 0.326400 -0.260872
O5    O     O_3   0.918600 0.470180 0.098890 -0.257042
O6    O     O_3   0.918600 0.529820 0.598890 -0.253267
O7    O     O_3   0.418600 0.970180 0.098890 -0.261338
O8    O     O_3   0.418600 0.029820 0.598890 -0.247264
O9    O     O_3   0.975750 0.362410 0.628650 -0.346486
O10   O     O_3   0.975750 0.637590 0.128650 -0.344466
O11   O     O_3   0.475750 0.862410 0.628650 -0.346985
O12   O     O_3   0.475750 0.137590 0.128650 -0.340348
O13   O     O_2   0.867417 0.312845 0.675482 -0.247441
O14   O     O_2   0.868053 0.689088 0.168521 -0.240978
O15   O     O_2   0.365094 0.818523 0.683932 -0.247094
O16   O     O_2   0.370893 0.191151 0.177634 -0.252430
O17   O     O_3   0.772652 0.472509 0.958256 -0.506808
O18   O     O_3   0.771217 0.529550 0.460030 -0.515619
O19   O     O_3   0.273258 0.974281 0.953597 -0.506064
O20   O     O_3   0.270034 0.032133 0.464275 -0.529467
O21   O     O_3   0.960422 0.244950 0.611733 -0.441837
O22   O     O_3   0.963662 0.756131 0.114994 -0.436417
O23   O     O_3   0.450893 0.744634 0.614756 -0.461230
O24   O     O_3   0.464851 0.255638 0.110054 -0.441473
H1    H     H_    0.023652 0.281382 0.806290 0.116704
H2    H     H_    0.038260 0.716368 0.286291 0.104363
H3    H     H_    0.511660 0.777054 0.817269 0.119291
H4    H     H_    0.521284 0.219565 0.311499 0.115490
C1    C     C_3   0.065863 0.200997 0.760139 0.101644
C2    C     C_3   0.074813 0.798450 0.238818 0.089097
C3    C     C_3   0.551633 0.695576 0.769793 0.076766
C4    C     C_3   0.567587 0.298966 0.272287 0.070444
H5    H     H_    0.112927 0.210139 0.854318 0.113189
H6    H     H_    0.128075 0.787661 0.309134 0.084904
H7    H     H_    0.590815 0.701002 0.880611 0.136306
H8    H     H_    0.612298 0.289820 0.371576 0.119414
H9    H     H_    0.030877 0.171811 0.802144 0.197262
H10   H     H_    0.047422 0.823730 0.308988 0.184118
H11   H     H_    0.511917 0.663981 0.783794 0.212716
H12   H     H_    0.531371 0.329040 0.308207 0.193313
P5    P     P_3+3 0.146350 0.434230 0.693140 0.692601
P6    P     P_3+3 0.146350 0.565770 0.193140 0.696053
P7    P     P_3+3 0.646350 0.934230 0.693140 0.698708
P8    P     P_3+3 0.646350 0.065770 0.193140 0.696074
P9    P     P_3+3 0.088044 0.310500 0.129860 0.560408
P10   P     P_3+3 0.088676 0.688772 0.630433 0.584108
P11   P     P_3+3 0.587399 0.809801 0.130371 0.564584
P12   P     P_3+3 0.587569 0.190440 0.628972 0.562953
O25   O     O_2   0.139400 0.414340 0.863230 -0.308952
O26   O     O_2   0.139400 0.585660 0.363230 -0.305447
O27   O     O_2   0.639400 0.914340 0.863230 -0.299405
O28   O     O_2   0.639400 0.085660 0.363230 -0.299520
O29   O     O_3   0.023740 0.362300 0.060930 -0.287549
O30   O     O_3   0.023740 0.637700 0.560930 -0.284605
O31   O     O_3   0.523740 0.862300 0.060930 -0.284713
O32   O     O_3   0.523740 0.137700 0.560930 -0.280738
O33   O     O_2   0.137091 0.313762 0.022097 -0.366546
O34   O     O_2   0.140288 0.680684 0.529846 -0.329819
O35   O     O_2   0.633356 0.808251 0.015646 -0.364520
O36   O     O_2   0.634852 0.188761 0.517201 -0.368855
O37   O     O_3   0.229546 0.470081 0.719528 -0.529652
O38   O     O_3   0.230683 0.530748 0.228424 -0.526067
O39   O     O_3   0.730117 0.971572 0.729379 -0.513102
O40   O     O_3   0.729601 0.027890 0.228617 -0.514134
O41   O     O_3   0.052909 0.241584 0.082477 -0.620846
O42   O     O_3   0.053739 0.755575 0.563958 -0.613438
O43   O     O_3   0.549960 0.741456 0.095904 -0.629513
O44   O     O_3   0.552134 0.259732 0.587392 -0.633404
C5    C     C_3   0.989400 0.232518 0.122232 0.919852
C6    C     C_3   0.990312 0.768091 0.601028 0.910002
C7    C     C_3   0.487581 0.735487 0.141259 0.906783
C8    C     C_3   0.489023 0.268127 0.628704 0.923820
C9    C     C_3   0.972126 0.168680 0.111990 -0.025765
C10   C     C_3   0.972930 0.830710 0.567488 -0.033783
C11   C     C_3   0.470699 0.672009 0.143657 -0.022873
C12   C     C_3   0.471276 0.332072 0.624785 -0.042826
H13   H     H_    0.977722 0.151337 0.001945 0.165630
H14   H     H_    0.961630 0.837522 0.442823 0.174945
H15   H     H_    0.480752 0.651999 0.040536 0.168841
H16   H     H_    0.483229 0.352267 0.524005 0.166951
C13   C     C_3   0.245856 0.472203 0.269015 0.644553
C14   C     C_3   0.248887 0.526403 0.777651 0.684147
C15   C     C_3   0.740229 0.968806 0.268927 0.656033
C16   C     C_3   0.742688 0.030575 0.770882 0.656721
C17   C     C_3   0.327448 0.460721 0.276021 0.564542
C18   C     C_3   0.331230 0.536691 0.777972 0.537197
C19   C     C_3   0.819916 0.949378 0.277542 0.552425
C20   C     C_3   0.823293 0.048118 0.779608 0.552245
Ba1   Ba    Ba6+2 0.999900 0.457470 0.844900 1.895396
Ba2   Ba    Ba6+2 0.999900 0.542530 0.344900 1.899163
Ba3   Ba    Ba6+2 0.499900 0.957470 0.844900 1.898740
Ba4   Ba    Ba6+2 0.499900 0.042530 0.344900 1.900719
C21   C     C_3   0.771807 0.528606 0.910346 0.973404
C22   C     C_3   0.767667 0.473314 0.410713 0.980275
C23   C     C_3   0.276062 0.030696 0.909844 0.970986
C24   C     C_3   0.260805 0.976389 0.410767 0.988231
C25   C     C_3   0.696983 0.554292 0.868946 -0.083143
C26   C     C_3   0.692006 0.449196 0.375779 -0.087555
C27   C     C_3   0.203663 0.060419 0.860964 -0.080039
C28   C     C_3   0.183526 0.957273 0.390359 -0.095465
H17   H     H_    0.667835 0.540002 0.753833 0.206569
H18   H     H_    0.662224 0.460824 0.258804 0.210184
H19   H     H_    0.173970 0.045001 0.748315 0.199764
H20   H     H_    0.153090 0.959888 0.269312 0.202368
H21   H     H_    0.700398 0.601560 0.863614 0.144421
H22   H     H_    0.693822 0.401798 0.377841 0.146025
H23   H     H_    0.211710 0.106840 0.845910 0.118403
H24   H     H_    0.181019 0.911582 0.419980 0.160412
O45   O     O_3   0.081330 0.529680 0.090830 -0.281747
O46   O     O_3   0.081330 0.470320 0.590830 -0.280594
O47   O     O_3   0.581330 0.029680 0.090830 -0.275024
O48   O     O_3   0.581330 0.970320 0.590830 -0.275784
P13   P     P_3+3 0.916574 0.692481 0.060054 0.661860
P14   P     P_3+3 0.913935 0.309162 0.562724 0.665974
P15   P     P_3+3 0.416087 0.192388 0.062407 0.664468
P16   P     P_3+3 0.409939 0.811374 0.568378 0.663341
C29   C     C_3   0.027713 0.256531 0.704929 0.363591
C30   C     C_3   0.034316 0.743625 0.184748 0.348378
C31   C     C_3   0.517279 0.752918 0.716149 0.375654
C32   C     C_3   0.529621 0.243577 0.212864 0.403865
H25   H     H_    0.059102 0.280903 0.641142 0.062336
H26   H     H_    0.059018 0.721497 0.103681 0.054475
H27   H     H_    0.552315 0.777283 0.660907 0.087836
H28   H     H_    0.563180 0.218054 0.156211 0.056649
H29   H     H_    0.917189 0.162953 0.119037 0.178742
H30   H     H_    0.926392 0.842662 0.608653 0.195604
H31   H     H_    0.414693 0.666844 0.143570 0.178737
H32   H     H_    0.414412 0.337201 0.616375 0.184273
C33   C     C_R   0.136285 0.687383 0.842282 0.300935
C34   C     C_R   0.138098 0.314769 0.338552 0.301041
C35   C     C_R   0.639454 0.185283 0.836831 0.311647
C36   C     C_R   0.639776 0.815079 0.337049 0.311731
C37   C     C_R   0.183268 0.731591 0.912888 -0.050997
C38   C     C_R   0.186616 0.271568 0.406739 -0.049040
C39   C     C_R   0.687310 0.228822 0.905907 -0.046108
C40   C     C_R   0.688075 0.771674 0.405108 -0.048020
C41   C     C_R   0.782272 0.321222 0.037276 -0.173268
C42   C     C_R   0.783276 0.679307 0.535769 -0.181179
C43   C     C_R   0.279433 0.822976 0.046011 -0.174371
C44   C     C_R   0.283479 0.179820 0.534891 -0.183652
C45   C     C_R   0.741578 0.321004 0.882298 0.427382
C46   C     C_R   0.742326 0.679345 0.380744 0.427351
C47   C     C_R   0.234525 0.825839 0.897852 0.404303
C48   C     C_R   0.244165 0.181246 0.377862 0.433639
C49   C     C_R   0.191405 0.780451 0.833248 -0.050811
C50   C     C_R   0.201075 0.227131 0.319418 -0.053252
C51   C     C_R   0.699576 0.274769 0.820962 -0.051915
C52   C     C_R   0.700480 0.725710 0.319601 -0.043913
C53   C     C_R   0.836280 0.363827 0.100671 0.173287
C54   C     C_R   0.837592 0.636920 0.599148 0.183054
C55   C     C_R   0.334073 0.865397 0.106203 0.165145
C56   C     C_R   0.337923 0.137420 0.598571 0.177229
H33   H     H_    0.160747 0.786325 0.718893 0.218856
H34   H     H_    0.176730 0.225906 0.199235 0.203664
H35   H     H_    0.674188 0.277099 0.701438 0.199716
H36   H     H_    0.674713 0.723194 0.200129 0.201307
C57   C     C_R   0.875083 0.355059 0.255737 0.219444
C58   C     C_R   0.877921 0.646835 0.752616 0.213651
C59   C     C_R   0.371904 0.857627 0.261938 0.225374
C60   C     C_R   0.376810 0.146554 0.753763 0.222921
C61   C     C_R   0.157130 0.636983 0.090602 0.202984
C62   C     C_R   0.155647 0.363038 0.588688 0.210095
C63   C     C_R   0.657997 0.136264 0.086654 0.195922
C64   C     C_R   0.657741 0.863662 0.587108 0.202531
C65   C     C_R   0.206904 0.681422 0.155973 -0.113124
C66   C     C_R   0.205351 0.318576 0.652694 -0.116140
C67   C     C_R   0.707222 0.180924 0.150800 -0.114560
C68   C     C_R   0.707580 0.819376 0.650495 -0.105722
C69   C     C_R   0.219749 0.728959 0.068244 0.081846
C70   C     C_R   0.220300 0.272104 0.563395 0.108328
C71   C     C_R   0.721454 0.227769 0.062366 0.110019
C72   C     C_R   0.722233 0.772724 0.561470 0.110872
C73   C     C_R   0.242652 0.680887 0.308692 -0.133967
C74   C     C_R   0.242570 0.320588 0.803325 -0.121116
C75   C     C_R   0.743147 0.179702 0.302063 -0.131125
C76   C     C_R   0.743496 0.820643 0.801708 -0.121753
C77   C     C_R   0.790552 0.221683 0.371007 0.352557
C78   C     C_R   0.791728 0.779163 0.869680 0.360766
C79   C     C_R   0.285802 0.725632 0.378933 0.364024
C80   C     C_R   0.291950 0.279734 0.870664 0.352839
C81   C     C_R   0.807004 0.269470 0.287744 -0.224242
C82   C     C_R   0.808928 0.731770 0.785736 -0.212384
C83   C     C_R   0.303593 0.771937 0.293924 -0.230804
C84   C     C_R   0.307784 0.231500 0.787270 -0.230188
C85   C     C_R   0.770668 0.273103 0.129471 0.058880
C86   C     C_R   0.771930 0.727668 0.627926 0.056612
C87   C     C_R   0.268813 0.774337 0.135815 0.044952
C88   C     C_R   0.270658 0.227317 0.629083 0.047919
C89   C     C_R   0.859172 0.311733 0.353053 0.204255
C90   C     C_R   0.862215 0.690250 0.850097 0.189235
C91   C     C_R   0.355047 0.814708 0.359532 0.215180
C92   C     C_R   0.360427 0.189546 0.852281 0.198066
C93   C     C_R   0.124285 0.641403 0.933072 -0.302308
C94   C     C_R   0.122821 0.358946 0.431276 -0.282603
C95   C     C_R   0.625059 0.140653 0.929257 -0.302542
C96   C     C_R   0.624214 0.859080 0.430317 -0.302714
H37   H     H_    0.232711 0.647901 0.381164 0.237693
H38   H     H_    0.235539 0.355675 0.873345 0.239003
H39   H     H_    0.735435 0.145062 0.372221 0.240691
H40   H     H_    0.734965 0.854812 0.872622 0.239780
H41   H     H_    0.091636 0.606759 0.878057 0.205396
H42   H     H_    0.087998 0.392554 0.377856 0.204374
H43   H     H_    0.589607 0.107443 0.876236 0.213790
H44   H     H_    0.586724 0.891278 0.378710 0.210112
N1    N     N_R   0.371551 0.502785 0.375738 0.255468
O49   O     O_R   0.370315 0.555257 0.328277 -0.237944
O50   O     O_R   0.424122 0.486366 0.486059 -0.228157
N2    N     N_R   0.375145 0.484903 0.809552 0.277069
O51   O     O_R   0.351870 0.435795 0.751668 -0.273852
O52   O     O_R   0.442912 0.491019 0.853911 -0.169435
N3    N     N_R   0.870222 0.987316 0.377277 0.261347
O53   O     O_R   0.877989 0.038532 0.328911 -0.221849
O54   O     O_R   0.920404 0.966047 0.485276 -0.227770
N4    N     N_R   0.872837 0.008469 0.875447 0.263358
O55   O     O_R   0.878581 0.957189 0.824051 -0.223385
O56   O     O_R   0.924417 0.028270 0.983173 -0.227626
Cl1   Cl    Cl    0.357102 0.390114 0.341954 -0.459775
Cl2   Cl    Cl    0.373178 0.588911 0.915345 -0.482626
Cl3   Cl    Cl    0.834744 0.876712 0.346054 -0.508406
Cl4   Cl    Cl    0.842483 0.120137 0.852563 -0.493325
N5    N     N_R   0.342866 0.465146 0.127208 0.240395
O57   O     O_R   0.405774 0.480569 0.124028 -0.218870
O58   O     O_R   0.307293 0.435146 0.013526 -0.355640
N6    N     N_R   0.339840 0.560240 0.634291 0.252010
O59   O     O_R   0.287937 0.564924 0.514576 -0.389031
O60   O     O_R   0.400135 0.581723 0.629778 -0.197462
N7    N     N_R   0.838802 0.948489 0.132705 0.261032
O61   O     O_R   0.904333 0.938860 0.137661 -0.190680
O62   O     O_R   0.792553 0.938138 0.006466 -0.361331
N8    N     N_R   0.840915 0.049587 0.633401 0.262277
O63   O     O_R   0.793837 0.060756 0.508947 -0.358254
O64   O     O_R   0.906219 0.059199 0.636316 -0.179560
Cl5   Cl    Cl    0.798253 0.527416 0.753008 -0.629956
Cl6   Cl    Cl    0.790435 0.473241 0.247930 -0.624417
Cl7   Cl    Cl    0.306886 0.028126 0.759617 -0.633392
Cl8   Cl    Cl    0.277282 0.974445 0.239026 -0.612742
Cl9   Cl    Cl    0.833207 0.571953 0.028879 -0.502926
Cl10  Cl    Cl    0.829000 0.429018 0.526548 -0.511897
Cl11  Cl    Cl    0.337008 0.071764 0.034327 -0.500739
Cl12  Cl    Cl    0.320331 0.929136 0.521419 -0.532855
N9    N     N_R   0.654571 0.538021 0.972008 0.305726
O65   O     O_R   0.639676 0.484454 0.983476 -0.225933
O66   O     O_R   0.612685 0.576011 0.005182 -0.267431
N10   N     N_R   0.651067 0.470135 0.477580 0.294785
O67   O     O_R   0.636224 0.524221 0.477177 -0.229805
O68   O     O_R   0.610065 0.434503 0.522298 -0.262215
N11   N     N_R   0.159397 0.052762 0.965615 0.322438
O69   O     O_R   0.142056 0.001688 0.997283 -0.208470
O70   O     O_R   0.119323 0.094925 0.983362 -0.290313
N12   N     N_R   0.146788 0.992428 0.478471 0.284023
O71   O     O_R   0.127456 0.043898 0.434414 -0.203704
O72   O     O_R   0.121603 0.969645 0.582823 -0.221331
Cl13  Cl    Cl    0.094281 0.166683 0.611749 -0.484268
Cl14  Cl    Cl    0.083445 0.841353 0.083279 -0.458216
Cl15  Cl    Cl    0.598325 0.668881 0.641105 -0.517259
Cl16  Cl    Cl    0.602226 0.331799 0.131416 -0.507266
N13   N     N_R   0.735951 0.367770 0.780364 0.254546
O73   O     O_R   0.693226 0.408344 0.792611 -0.256771
O74   O     O_R   0.741888 0.356673 0.644057 -0.375102
N14   N     N_R   0.736737 0.632611 0.277927 0.255875
O75   O     O_R   0.744135 0.643766 0.142973 -0.368057
O76   O     O_R   0.692693 0.592704 0.286623 -0.256520
N15   N     N_R   0.219235 0.878021 0.819577 0.256488
O77   O     O_R   0.170312 0.908933 0.851665 -0.222258
O78   O     O_R   0.228483 0.881052 0.683714 -0.324530
N16   N     N_R   0.242792 0.137270 0.268201 0.261742
O79   O     O_R   0.248992 0.152481 0.134797 -0.370587
O80   O     O_R   0.202699 0.093952 0.270144 -0.257661
N17   N     N_R   0.821561 0.211600 0.527819 0.274091
O81   O     O_R   0.785341 0.224576 0.624162 -0.313352
O82   O     O_R   0.865863 0.169677 0.561467 -0.220469
N18   N     N_R   0.822427 0.789058 0.026627 0.272551
O83   O     O_R   0.785453 0.776917 0.121892 -0.311914
O84   O     O_R   0.867843 0.830088 0.061528 -0.219705
N19   N     N_R   0.297314 0.728134 0.539556 0.265922
O85   O     O_R   0.253388 0.757812 0.592684 -0.377752
O86   O     O_R   0.333120 0.688150 0.623739 -0.235859
N20   N     N_R   0.327236 0.292357 0.024282 0.274579
O87   O     O_R   0.294509 0.282252 0.128758 -0.298873
O88   O     O_R   0.373015 0.333403 0.047778 -0.206077
Cl17  Cl    Cl    0.949085 0.397547 0.330820 -0.548813
Cl18  Cl    Cl    0.953329 0.605777 0.825436 -0.563397
Cl19  Cl    Cl    0.444678 0.901454 0.337818 -0.534195
Cl20  Cl    Cl    0.452159 0.105253 0.826814 -0.543049
Cl21  Cl    Cl    0.920635 0.266765 0.987445 -0.631842
Cl22  Cl    Cl    0.921126 0.729366 0.480460 -0.616427
Cl23  Cl    Cl    0.418012 0.767072 0.001841 -0.645096
Cl24  Cl    Cl    0.420572 0.234865 0.490919 -0.637530
Cl25  Cl    Cl    0.992745 0.254586 0.311265 -0.668186
Cl26  Cl    Cl    0.993340 0.757018 0.796489 -0.666617
Cl27  Cl    Cl    0.493522 0.763135 0.326402 -0.683242
Cl28  Cl    Cl    0.494001 0.243323 0.815316 -0.658743
N21   N     N_R   0.017686 0.136708 0.235304 0.315071
O89   O     O_R   0.991393 0.106092 0.326119 -0.150138
O90   O     O_R   0.084960 0.141426 0.260677 -0.258399
N22   N     N_R   0.031554 0.866797 0.638932 0.295674
O91   O     O_R   0.025253 0.905265 0.738177 -0.135090
O92   O     O_R   0.086205 0.866419 0.584605 -0.335702
N23   N     N_R   0.513929 0.643403 0.276893 0.314010
O93   O     O_R   0.485470 0.619003 0.374454 -0.161396
O94   O     O_R   0.581448 0.644340 0.302410 -0.263223
N24   N     N_R   0.510051 0.361522 0.761674 0.315182
O95   O     O_R   0.478521 0.377131 0.864524 -0.159305
O96   O     O_R   0.577702 0.363294 0.793344 -0.245739
N25   N     N_R   0.233120 0.462532 0.415902 0.191385
O97   O     O_R   0.260565 0.418247 0.494095 -0.392459
O98   O     O_R   0.174209 0.481597 0.432925 -0.363335
N26   N     N_R   0.236418 0.532034 0.927149 0.185899
O99   O     O_R   0.176005 0.514256 0.937156 -0.382642
O100  O     O_R   0.261761 0.575863 0.010580 -0.379564
N27   N     N_R   0.727644 0.962095 0.416456 0.178827
O101  O     O_R   0.769574 0.933054 0.523766 -0.393576
O102  O     O_R   0.669099 0.981347 0.434179 -0.375131
N28   N     N_R   0.729784 0.037916 0.918008 0.180367
O103  O     O_R   0.670729 0.019355 0.934260 -0.381271
O104  O     O_R   0.771191 0.067558 0.025178 -0.391028
N29   N     N_R   0.200737 0.432697 0.163833 0.222896
O105  O     O_R   0.226345 0.383614 0.140646 -0.336750
O106  O     O_R   0.133778 0.434921 0.148658 -0.325048
N30   N     N_R   0.206138 0.570721 0.686810 0.220141
O107  O     O_R   0.138647 0.565254 0.648455 -0.319073
O108  O     O_R   0.231399 0.622196 0.705650 -0.353861
N31   N     N_R   0.690998 0.931657 0.164861 0.217033
O109  O     O_R   0.713492 0.883546 0.125856 -0.350247
O110  O     O_R   0.624917 0.934960 0.158081 -0.335962
N32   N     N_R   0.694834 0.068636 0.667091 0.216852
O111  O     O_R   0.628219 0.065064 0.654068 -0.330898
O112  O     O_R   0.718377 0.117339 0.635557 -0.348580

loop_
_geom_bond_atom_site_label_1
_geom_bond_atom_site_label_2
_geom_bond_distance
_ccdc_geom_bond_type
C23   C27   1.549480 S    
C33   C37   1.427927 A    
C12   H32   1.112496 S    
C15   C19   1.620547 S    
C94   H42   1.076276 S    
C42   C46   1.432461 A    
C2    H10   1.105984 S    
O22   P13   1.760677 S    
C36   C40   1.423184 A    
O38   C13   1.432840 S    
N23   O94   1.294071 A    
C38   C70   1.407445 A    
C35   C39   1.422208 A    
N20   O87   1.300172 A    
C66   C74   1.377527 A    
C18   N6    1.467739 S    
C4    C32   1.526144 S    
C35   C95   1.416935 A    
C24   C28   1.556176 S    
O11   P16   1.747932 S    
C19   N3    1.460800 S    
C16   N32   1.457105 S    
P4    Ba4   3.548048 S    
H2    C30   1.109466 S    
N30   O107  1.295065 A    
O2    Ba2   2.895642 S    
O42   C6    1.408461 S    
C33   C93   1.415368 A    
P4    O8    1.611103 S    
C50   H34   1.074129 S    
C40   C52   1.383670 A    
C41   C85   1.459423 A    
C41   C45   1.430528 A    
C96   H44   1.076972 S    
P9    O41   1.766500 S    
N9    O65   1.300225 A    
N8    O64   1.303380 A    
N6    O59   1.293731 A    
C76   C78   1.390314 A    
C61   C65   1.450245 A    
P7    O48   1.617933 S    
O23   C31   1.409045 S    
N32   O111  1.293443 A    
C20   Cl4   1.815678 S    
C14   C18   1.643956 S    
C63   C67   1.445216 A    
C22   C26   1.553033 S    
C69   C87   1.463013 A    
C53   C57   1.435347 A    
C82   C86   1.434942 A    
N3    O53   1.301968 A    
C62   C94   1.413060 A    
C37   C69   1.411462 A    
P12   O44   1.770322 S    
C48   N16   1.426203 S    
O17   C21   1.384667 S    
C10   H14   1.108245 S    
N23   O93   1.298964 A    
C40   C72   1.407243 A    
N24   O95   1.299810 A    
C9    H29   1.111690 S    
C13   N29   1.457337 S    
O13   P14   1.543366 D    
C58   Cl18  1.753969 S    
C6    Cl26  1.780316 S    
C7    Cl23  1.774723 S    
O15   P16   1.545641 D    
C43   C47   1.410576 A    
N16   O80   1.291311 A    
C4    H12   1.109777 S    
C54   C58   1.435186 A    
N22   O91   1.300894 A    
C28   H24   1.109007 S    
C66   C70   1.430720 A    
C15   N27   1.432976 S    
P8    Ba4   3.552263 S    
O20   C24   1.388113 S    
P11   O43   1.758221 S    
C79   N19   1.418403 S    
C21   Cl5   1.642376 S    
C27   N11   1.458624 S    
P10   O42   1.755073 S    
P2    O18   1.778787 S    
Ba1   O46   3.147993 S    
N19   O86   1.299117 A    
C36   C96   1.414942 A    
P3    O7    1.610027 S    
N2    O51   1.298326 A    
C47   N15   1.409211 S    
P1    Ba1   3.550572 S    
N29   O105  1.294041 A    
C1    Cl13  1.776850 S    
C5    C9    1.532055 S    
Ba4   O48   2.934454 S    
C27   H19   1.100676 S    
O21   C29   1.406905 S    
C11   H15   1.108383 S    
O18   C22   1.386519 S    
P6    C61   1.951769 S    
P8    O28   1.650956 D    
P5    Ba1   3.549666 S    
C77   N17   1.418785 S    
O9    P14   1.741007 S    
C48   C50   1.389772 A    
C17   Cl1   1.806256 S    
N13   O73   1.293753 A    
P9    O29   1.752473 S    
N26   O99   1.289674 A    
P14   C89   1.934674 S    
N28   O104  1.299118 A    
P12   O32   1.760388 S    
C31   H27   1.112462 S    
P5    O46   1.617933 S    
N14   O75   1.298230 A    
N12   O72   1.294661 A    
O8    Ba3   2.935902 S    
C3    H11   1.110509 S    
P5    C62   1.948054 S    
C24   Cl12  1.736538 S    
C15   N31   1.456863 S    
C10   N22   1.446066 S    
P5    O25   1.653792 D    
C2    C30   1.526137 S    
C16   N28   1.432659 S    
N21   O90   1.294025 A    
C67   C75   1.375252 A    
C65   C73   1.385552 A    
Ba2   O45   3.146168 S    
N5    O57   1.302090 A    
N25   O98   1.291530 A    
O12   Ba4   2.930745 S    
C22   Cl10  1.732405 S    
P2    Ba2   3.548048 S    
N31   O110  1.293129 A    
C17   N1    1.463819 S    
C55   C59   1.432008 A    
C60   C92   1.435912 A    
C19   N7    1.456304 S    
C51   H35   1.074048 S    
C44   C56   1.469594 A    
C29   H25   1.110590 S    
P11   C36   1.900250 S    
C43   C55   1.465933 A    
P6    Ba2   3.552263 S    
Ba3   O48   3.147993 S    
O10   P13   1.742451 S    
C11   H31   1.112894 S    
N1    O49   1.302285 A    
C57   C89   1.435063 A    
C42   C54   1.467236 A    
C46   N14   1.422743 S    
C75   H39   1.068321 S    
C62   C66   1.447564 A    
C45   N13   1.422418 S    
C73   H37   1.067229 S    
C78   N18   1.416923 S    
C43   C87   1.449926 A    
P6    O45   1.616834 S    
C82   C90   1.442651 A    
C8    C12   1.536837 S    
C12   N24   1.454607 S    
P3    Ba3   3.550572 S    
N15   O77   1.297939 A    
O24   C32   1.405837 S    
C81   C85   1.435088 A    
N20   O88   1.300260 A    
C84   C88   1.438672 A    
C3    C31   1.528140 S    
C10   H30   1.112694 S    
P5    O37   1.806863 S    
P7    C64   1.952486 S    
C41   C53   1.466544 A    
P8    C63   1.960044 S    
C7    C11   1.526309 S    
C39   C51   1.383735 A    
N5    O58   1.295547 A    
C24   Cl8   1.673294 S    
C4    Cl16  1.775684 S    
C8    Cl24  1.769327 S    
N18   O83   1.299583 A    
N30   O108  1.299943 A    
O40   C15   1.434531 S    
C65   C69   1.431722 A    
C5    Cl21  1.771291 S    
C14   N30   1.455170 S    
O5    Ba2   2.930507 S    
C68   C72   1.430371 A    
C70   C88   1.464028 A    
O7    Ba4   2.930507 S    
C93   H41   1.076235 S    
C12   H16   1.109510 S    
C25   N9    1.458905 S    
O21   P14   1.759531 S    
N6    O60   1.304057 A    
O37   C14   1.435293 S    
O23   P16   1.761639 S    
O39   C16   1.437022 S    
N32   O112  1.293301 A    
P1    O1    1.651095 D    
C47   C49   1.394010 A    
P6    O38   1.809774 S    
P3    O3    1.651095 D    
O11   Ba3   2.922450 S    
P4    O20   1.774219 S    
C25   H21   1.111735 S    
C42   C86   1.457489 A    
C2    Cl14  1.779744 S    
C27   H23   1.113441 S    
C78   C82   1.433965 A    
C7    Cl27  1.775430 S    
C39   C71   1.408078 A    
N10   O68   1.300305 A    
H1    C29   1.107740 S    
N24   O96   1.293538 A    
N19   O85   1.296196 A    
O41   C5    1.408122 S    
C44   C48   1.438644 A    
C32   H28   1.110700 S    
C23   Cl7   1.631148 S    
C68   C76   1.374687 A    
N27   O101  1.298922 A    
N22   O92   1.296907 A    
C59   Cl19  1.757226 S    
P16   C91   1.929846 S    
P9    O33   1.545643 D    
C60   Cl20  1.756574 S    
P10   O30   1.749400 S    
P11   O35   1.547733 D    
N11   O69   1.298557 A    
P12   O36   1.545916 D    
C13   C17   1.618784 S    
C13   N25   1.438012 S    
C44   C88   1.462453 A    
O6    Ba1   2.935902 S    
C73   C79   1.397239 A    
C1    H5    1.110509 S    
O9    Ba1   2.922450 S    
C3    H7    1.108076 S    
C71   C85   1.462879 A    
N12   O71   1.297623 A    
C61   C93   1.415135 A    
C72   C86   1.462781 A    
C9    H13   1.109014 S    
P6    O26   1.650956 D    
P3    C55   1.998918 S    
P1    O5    1.610027 S    
N7    O62   1.292007 A    
Ba1   O45   2.929073 S    
P8    O40   1.822624 S    
C20   N4    1.464240 S    
O14   P13   1.542716 D    
O32   Ba4   2.923214 S    
P4    C56   1.989146 S    
N2    O52   1.303220 A    
N9    O66   1.300723 A    
C26   H22   1.111275 S    
N8    O63   1.293284 A    
C19   Cl3   1.812178 S    
C11   N23   1.454590 S    
C28   H20   1.111202 S    
N10   O67   1.300259 A    
O28   Ba4   2.900756 S    
C64   C96   1.411678 A    
C17   N5    1.463406 S    
C76   H40   1.065911 S    
P10   C33   1.912725 S    
C18   Cl2   1.789767 S    
C22   Cl6   1.651725 S    
N4    O56   1.302938 A    
C1    H9    1.108612 S    
N31   O109  1.292541 A    
C18   N2    1.476148 S    
N15   O78   1.294849 A    
P2    C54   1.983629 S    
N26   O100  1.296715 A    
C23   Cl11  1.718071 S    
C21   Cl9   1.728706 S    
C64   C68   1.444853 A    
N14   O76   1.294494 A    
C6    C10   1.520362 S    
N16   O79   1.299391 A    
O22   C30   1.407681 S    
C9    N21   1.453106 S    
C49   H33   1.068698 S    
O10   Ba2   2.930745 S    
O16   P15   1.540106 D    
O19   C23   1.386832 S    
P9    C34   1.901805 S    
C52   H36   1.075159 S    
P1    O17   1.775926 S    
Ba1   Ba2   4.964215 S    
N21   O89   1.299604 A    
H4    C32   1.106787 S    
P3    O19   1.786043 S    
Ba3   Ba4   4.964215 S    
O4    Ba4   2.895642 S    
P4    O4    1.653936 D    
Ba2   O46   2.934454 S    
N25   O97   1.296327 A    
C38   C50   1.380114 A    
C14   N26   1.446097 S    
C8    Cl28  1.771854 S    
C79   C83   1.429072 A    
N3    O54   1.302229 A    
N11   O70   1.300352 A    
C28   N12   1.461998 S    
C5    Cl25  1.776114 S    
P15   C92   1.943559 S    
C6    Cl22  1.766288 S    
P13   C90   1.933937 S    
N17   O82   1.298656 A    
C16   C20   1.627113 S    
Ba3   O47   2.929073 S    
N29   O106  1.295192 A    
Ba4   O47   3.146168 S    
C59   C91   1.437211 A    
C83   C87   1.425104 A    
O29   Ba1   2.931520 S    
C1    C29   1.523202 S    
C37   C49   1.387448 A    
P2    O2    1.653936 D    
O31   Ba3   2.931520 S    
P7    O39   1.826220 S    
C57   Cl17  1.755486 S    
C25   H17   1.107229 S    
N27   O102  1.288557 A    
O25   Ba1   2.898352 S    
C3    Cl15  1.775982 S    
C4    H8    1.109558 S    
C26   N10   1.459006 S    
O27   Ba3   2.898352 S    
O12   P15   1.742575 S    
N13   O74   1.298352 A    
C77   C81   1.436499 A    
C67   C71   1.432141 A    
C80   C84   1.436609 A    
C30   H26   1.109038 S    
P1    C53   1.989107 S    
N28   O103  1.289178 A    
C58   C90   1.431453 A    
C95   H43   1.074294 S    
N17   O81   1.299399 A    
O44   C8    1.404375 S    
C56   C60   1.437072 A    
C45   C51   1.390737 A    
P8    O47   1.616834 S    
C46   C52   1.392048 A    
N18   O84   1.297858 A    
C74   H38   1.068297 S    
P10   O34   1.544544 D    
P11   O31   1.756704 S    
P2    O6    1.611103 S    
P7    O27   1.653792 D    
C34   C94   1.412661 A    
C63   C95   1.414370 A    
C83   C91   1.442613 A    
C2    H6    1.110975 S    
C81   C89   1.442315 A    
O24   P15   1.760156 S    
C34   C38   1.422487 A    
O1    Ba1   2.898013 S    
O3    Ba3   2.898013 S    
O30   Ba2   2.923214 S    
H3    C31   1.106417 S    
O43   C7    1.403106 S    
N4    O55   1.303027 A    
C20   N8    1.456812 S    
N1    O50   1.302953 A    
C26   H18   1.108810 S    
C21   C25   1.549868 S    
O26   Ba2   2.900756 S    
C84   C92   1.442983 A    
C80   N20   1.420735 S    
N7    O61   1.303044 A    
P12   C35   1.906952 S    
P7    Ba3   3.549666 S    
C74   C80   1.391729 A    
C75   C77   1.390928 A    
