data_mof_unit_24727.cif
_audit_creation_date              2012-12-11T14:46:09-0500
_audit_creation_method            fapswitch 2.2
_symmetry_space_group_name_H-M    P1
_symmetry_Int_Tables_number       1
_space_group_crystal_system       triclinic
_cell_length_a                    10.986979
_cell_length_b                    11.034656
_cell_length_c                    18.771975
_cell_angle_alpha                 90.4766
_cell_angle_beta                  89.674631
_cell_angle_gamma                 120.334185
_cell_volume                      1964.21799215

loop_
_atom_site_label
_atom_site_type_symbol
_atom_type_description
_atom_site_fract_x
_atom_site_fract_y
_atom_site_fract_z
_atom_type_partial_charge
C1    C     C_R   0.864912 0.638848 0.603396 0.560281
C2    C     C_R   0.958655 0.157700 0.707506 0.027506
C3    C     C_R   0.964161 0.174628 0.783682 0.024559
C4    C     C_R   0.259845 0.626756 0.606244 0.557539
C5    C     C_R   0.721012 0.128221 0.711551 0.015079
C6    C     C_R   0.747774 0.177531 0.782387 0.020971
C7    C     C_R   0.584722 0.085482 0.682613 0.050367
C8    C     C_R   0.497618 0.123502 0.719708 -0.115231
C9    C     C_R   0.545910 0.208042 0.780450 -0.115241
C10   C     C_R   0.674191 0.240814 0.811333 0.062102
C11   C     C_R   0.838936 0.147811 0.670896 -0.037545
C12   C     C_R   0.373086 0.589866 0.782927 -0.156806
C13   C     C_R   0.699120 0.566538 0.706903 -0.173721
C14   C     C_R   0.679790 0.588397 0.778349 -0.207791
C15   C     C_R   0.780480 0.710678 0.813975 0.016361
C16   C     C_R   0.861145 0.224198 0.602456 0.538501
C17   C     C_R   0.895230 0.814433 0.776088 0.360129
C18   C     C_R   0.913293 0.793432 0.705946 -0.060100
C19   C     C_R   0.819364 0.667942 0.671151 -0.038296
C20   C     C_R   0.411122 0.624931 0.296578 0.361540
C21   C     C_R   0.431885 0.634248 0.223973 -0.093407
C22   C     C_R   0.379521 0.702444 0.181784 -0.041239
C23   C     C_R   0.359320 0.585898 0.710905 -0.193503
C24   C     C_R   0.317380 0.772620 0.213290 -0.160716
C25   C     C_R   0.295099 0.762408 0.286338 -0.131047
C26   C     C_R   0.335746 0.682427 0.327607 0.063245
C27   C     C_R   0.711197 0.094901 0.295408 0.367645
C28   C     C_R   0.864864 0.638218 0.397840 0.547297
C29   C     C_R   0.700242 0.077689 0.222565 -0.063545
C30   C     C_R   0.821822 0.126482 0.180241 -0.018267
C31   C     C_R   0.954182 0.182595 0.211747 -0.174257
C32   C     C_R   0.965900 0.202122 0.285028 -0.198768
C33   C     C_R   0.844828 0.164615 0.326601 0.027561
C34   C     C_R   0.303558 0.660395 0.679397 0.028427
C35   C     C_R   0.885885 0.786615 0.297143 -0.152951
C36   C     C_R   0.878550 0.798557 0.224573 -0.194577
C37   C     C_R   0.804167 0.677979 0.181689 0.023014
C38   C     C_R   0.728539 0.545380 0.212760 0.352729
C39   C     C_R   0.736846 0.533287 0.285897 -0.035463
C40   C     C_R   0.273324 0.635772 0.397391 0.577192
C41   C     C_R   0.820484 0.653741 0.327735 0.002687
C42   C     C_R   0.809143 0.105105 0.894792 0.525954
C43   C     C_R   0.394622 0.699668 0.897269 0.540670
C44   C     C_R   0.773032 0.731343 0.890411 0.578841
C45   C     C_R   0.849831 0.166582 0.821441 -0.045826
C46   C     C_R   0.802419 0.098546 0.104709 0.549536
C47   C     C_R   0.405091 0.708135 0.106124 0.543919
C48   C     C_R   0.795183 0.698939 0.106423 0.583938
C49   C     C_R   0.861627 0.226714 0.396732 0.561410
C50   C     C_R   0.266768 0.744280 0.721501 0.344496
C51   C     C_R   0.294256 0.758352 0.794099 -0.090704
C52   C     C_R   0.346329 0.679357 0.824798 -0.030134
C53   C     C_3   0.524333 0.000337 0.614108 -0.250160
C54   C     C_3   0.582513 0.905471 0.592526 -0.421155
C55   C     C_3   0.085702 0.107421 0.598107 -0.250203
C56   C     C_R   0.090096 0.217370 0.820415 -0.008694
C57   C     C_3   0.947272 0.998440 0.562871 -0.418599
C58   C     C_3   0.738832 0.355075 0.868680 -0.262296
C59   C     C_3   0.884748 0.474963 0.846748 -0.422326
C60   C     C_R   0.209377 0.240196 0.784314 -0.072909
C61   C     C_R   0.204020 0.212623 0.711867 -0.083446
C62   C     C_R   0.078412 0.161402 0.672880 0.070818
Cr1   Cr    Cr6+3 0.791660 0.390250 0.499930 1.049293
Cr2   Cr    Cr6+3 0.098520 0.708290 0.500540 1.035980
Cr3   Cr    Cr6+3 0.109770 0.401430 0.499480 1.016906
Cr4   Cr    Cr6+3 0.874790 0.925890 0.000070 1.051816
Cr5   Cr    Cr6+3 0.574120 0.948670 0.999300 1.034930
Cr6   Cr    Cr6+3 0.551420 0.625320 0.000920 1.037250
F1    F     F_    0.201055 0.808837 0.693460 -0.661520
F2    F     F_    0.998482 0.931345 0.808149 -0.625665
F3    F     F_    0.457626 0.553312 0.335637 -0.627001
F4    F     F_    0.592039 0.050672 0.334686 -0.627557
F5    F     F_    0.652038 0.428306 0.172415 -0.619423
H1    H     H_    0.394253 0.092986 0.699321 0.149997
H2    H     H_    0.595878 0.026022 0.199239 0.170528
H3    H     H_    0.047835 0.214881 0.179710 0.151459
H4    H     H_    0.070404 0.255254 0.308241 0.174032
H5    H     H_    0.949233 0.880560 0.328668 0.148948
H6    H     H_    0.932083 0.902914 0.201957 0.159502
H7    H     H_    0.685541 0.429207 0.308829 0.186359
H8    H     H_    0.408871 0.524634 0.805692 0.143125
H9    H     H_    0.386003 0.518581 0.680480 0.145153
H10   H     H_    0.306326 0.279587 0.813410 0.084499
H11   H     H_    0.299436 0.230210 0.685688 0.075908
H12   H     H_    0.483302 0.247527 0.803822 0.095612
H13   H     H_    0.099442 0.241991 0.876801 0.121208
H14   H     H_    0.598641 0.855047 0.639656 0.146053
H15   H     H_    0.509045 0.823049 0.555073 0.158834
H16   H     H_    0.681402 0.965884 0.562635 0.148723
H17   H     H_    0.409792 0.932490 0.620801 0.196719
H18   H     H_    0.532588 0.068450 0.569087 0.175280
H19   H     H_    0.966728 0.928691 0.527784 0.169020
H20   H     H_    0.866350 0.933452 0.602815 0.132383
H21   H     H_    0.907068 0.048496 0.526572 0.156312
H22   H     H_    0.147063 0.197057 0.561662 0.168955
H23   H     H_    0.625874 0.467806 0.681442 0.142367
H24   H     H_    0.150044 0.055673 0.601945 0.134651
H25   H     H_    0.964752 0.442188 0.850442 0.138912
H26   H     H_    0.883762 0.508466 0.791306 0.181913
H27   H     H_    0.917796 0.565926 0.883198 0.176211
H28   H     H_    0.669133 0.398321 0.879551 0.154255
H29   H     H_    0.749402 0.315971 0.920820 0.185392
H30   H     H_    0.592559 0.505394 0.806743 0.119820
H31   H     H_    0.008871 0.872616 0.680928 0.212870
H32   H     H_    0.487722 0.586202 0.200555 0.181483
H33   H     H_    0.281744 0.830065 0.181379 0.147953
H34   H     H_    0.272526 0.827440 0.826106 0.164846
H35   H     H_    0.237397 0.808797 0.309470 0.167535
O1    O     O_R   0.766500 0.250040 0.579790 -0.518752
O2    O     O_R   0.413330 0.603360 0.920440 -0.536564
O3    O     O_R   0.676110 0.626250 0.926750 -0.532861
O4    O     O_R   0.798570 0.516780 0.574780 -0.498986
O5    O     O_R   0.895350 0.809870 0.080950 -0.534784
O6    O     O_R   0.872490 0.049760 0.073800 -0.514355
O7    O     O_R   0.691680 0.088070 0.079070 -0.501294
O8    O     O_R   0.451720 0.825250 0.074050 -0.502409
O9    O     O_R   0.413580 0.606370 0.080960 -0.511598
O10   O     O_R   0.676340 0.629040 0.075550 -0.451972
O11   O     O_3   0.666780 0.833290 0.000090 -0.294644
O12   O     O_R   0.218690 0.701900 0.425960 -0.518539
O13   O     O_R   0.984000 0.732950 0.581090 -0.500711
O14   O     O_R   0.218600 0.700890 0.574760 -0.457524
O15   O     O_R   0.249390 0.515350 0.579940 -0.538123
O16   O     O_R   0.982790 0.280900 0.573700 -0.509064
O17   O     O_R   0.766600 0.251130 0.419260 -0.450665
O18   O     O_R   0.798660 0.517790 0.425980 -0.498355
O19   O     O_R   0.984100 0.734040 0.420570 -0.536575
O20   O     O_R   0.249490 0.516440 0.419420 -0.454895
O21   O     O_R   0.982880 0.281910 0.424890 -0.534431
O22   O     O_3   0.999980 0.499990 0.499980 -0.264790
O23   O     O_R   0.895110 0.806860 0.920430 -0.439521
O24   O     O_R   0.872260 0.046970 0.925000 -0.484042
O25   O     O_R   0.691430 0.085060 0.918550 -0.517566
O26   O     O_R   0.451490 0.822460 0.925250 -0.494201

loop_
_geom_bond_atom_site_label_1
_geom_bond_atom_site_label_2
_ccdc_geom_bond_type
C23   H9    S    
C27   C29   A    
C59   H26   S    
C35   C36   A    
Cr3   O22   S    
C31   H3    S    
C7    C8    A    
C39   C41   A    
C53   C54   S    
C27   C33   A    
C44   O23   A    
C12   C23   A    
C29   C30   A    
C46   O7    A    
C42   O25   A    
C36   C37   A    
Cr5   O25   S    
C50   F1    S    
C15   C44   S    
C5    C11   A    
Cr6   O11   S    
C30   C31   A    
C60   H10   S    
C43   C52   S    
Cr3   O16   S    
C33   C49   S    
Cr2   O13   S    
C40   O20   A    
C55   C62   S    
C28   C41   S    
C18   C19   A    
C3    C56   A    
Cr1   O22   S    
Cr1   O4    S    
Cr5   O7    S    
Cr6   O10   S    
C32   H4    S    
C8    C9    A    
C53   H18   S    
C20   F3    S    
C58   H29   S    
C43   O2    A    
C9    C10   A    
C28   O19   A    
C9    H12   S    
Cr2   O19   S    
C22   C47   S    
C17   F2    S    
C57   H20   S    
C13   C14   A    
C59   H27   S    
C2    C11   A    
C12   C52   A    
C28   O18   A    
C16   O1    A    
C50   C51   A    
Cr4   O24   S    
C47   O8    A    
C4    C34   S    
C34   C50   A    
C1    C19   S    
C46   O6    A    
C13   H23   S    
C51   C52   A    
Cr3   O20   S    
Cr5   O26   S    
C38   C39   A    
C24   C25   A    
C54   H16   S    
C55   H22   S    
C5    C7    A    
C13   C19   A    
C48   O10   A    
C25   C26   A    
C49   O21   A    
C3    C45   A    
C56   C60   A    
C4    O15   A    
C60   C61   A    
C42   C45   S    
Cr1   O1    S    
C43   O26   A    
Cr5   O8    S    
C37   C38   A    
Cr6   O9    S    
C11   C16   S    
C56   H13   S    
C31   C32   A    
C23   C34   A    
C55   H24   S    
C8    H1    S    
C17   C18   A    
C18   H31   S    
C4    O14   A    
C58   H28   S    
Cr6   O2    S    
C37   C48   S    
Cr1   O17   S    
C36   H6    S    
C54   H14   S    
C40   O12   A    
Cr2   O22   S    
Cr4   O5    S    
C57   H21   S    
C55   C57   S    
C22   C24   A    
C24   H33   S    
C7    C53   S    
Cr4   O23   S    
C15   C17   A    
Cr4   O6    S    
C10   C58   S    
C30   C46   S    
C61   H11   S    
C6    C10   A    
Cr3   O21   S    
C6    C45   A    
C29   H2    S    
C49   O17   A    
C35   H5    S    
Cr2   O12   S    
Cr4   O11   S    
C32   C33   A    
C2    C3    A    
C58   C59   S    
C1    O4    A    
C39   H7    S    
C54   H15   S    
C26   C40   S    
C14   H30   S    
C5    C6    A    
C20   C26   A    
Cr2   O14   S    
C12   H8    S    
C57   H19   S    
Cr3   O15   S    
C16   O16   A    
C61   C62   A    
C35   C41   A    
C1    O13   A    
Cr1   O18   S    
C44   O3    A    
C47   O9    A    
C20   C21   A    
C51   H34   S    
C53   H17   S    
C59   H25   S    
C14   C15   A    
C42   O24   A    
C21   C22   A    
Cr5   O11   S    
Cr6   O3    S    
C21   H32   S    
C27   F4    S    
C2    C62   A    
C25   H35   S    
C48   O5    A    
C38   F5    S    
