data_mof_unit_30971.cif
_audit_creation_date              2012-12-10T17:17:25-0500
_audit_creation_method            fapswitch 2.2
_symmetry_space_group_name_H-M    P1
_symmetry_Int_Tables_number       1
_space_group_crystal_system       triclinic
_cell_length_a                    10.240144
_cell_length_b                    10.796594
_cell_length_c                    11.981477
_cell_angle_alpha                 90.927205
_cell_angle_beta                  109.08769
_cell_angle_gamma                 96.309727
_cell_volume                      1242.32529456

loop_
_atom_site_label
_atom_site_type_symbol
_atom_type_description
_atom_site_fract_x
_atom_site_fract_y
_atom_site_fract_z
_atom_type_partial_charge
C1    C     C_R   0.055002 0.733455 0.497912 0.833363
C2    C     C_R   0.201262 0.506143 0.845638 -0.189679
C3    C     C_2   0.086079 0.868895 0.499283 -0.288164
C4    C     C_R   0.132811 0.509176 0.716468 0.847772
C5    C     C_2   0.005186 0.938315 0.538381 -0.000834
C6    C     C_2   0.933785 0.142837 0.542099 -0.359567
C7    C     C_2   0.953893 0.049893 0.477221 0.014343
C8    C     C_2   0.432161 0.517446 0.503371 -0.018335
C9    C     C_2   0.565661 0.498940 0.479859 -0.116953
C10   C     C_R   0.948418 0.268415 0.508796 0.862630
C11   C     C_R   0.866395 0.486910 0.283923 0.844370
C12   C     C_R   0.418388 0.479051 0.997568 0.137723
C13   C     C_R   0.718474 0.322015 0.983066 -0.085625
C14   C     C_R   0.791348 0.464697 0.156608 -0.216610
C15   C     C_R   0.158660 0.570990 0.930358 -0.035676
C16   C     C_R   0.243209 0.578215 0.049577 -0.111774
C17   C     C_R   0.373506 0.536829 0.082311 -0.172575
C18   C     C_2   0.962731 0.331488 0.115930 0.407362
C19   C     C_2   0.959464 0.896931 0.640079 0.461187
C20   C     C_2   0.186311 0.922087 0.441571 0.509103
C21   C     C_2   0.433616 0.627918 0.577666 0.525199
C22   C     C_2   0.306716 0.329729 0.394248 0.553916
C23   C     C_R   0.321379 0.444040 0.885903 0.121523
C24   C     C_2   0.483795 0.187822 0.781728 0.424781
C25   C     C_2   0.669373 0.652600 0.145568 0.484062
C26   C     C_2   0.030683 0.634427 0.899665 0.437331
C27   C     C_2   0.919650 0.057534 0.346280 0.543728
C28   C     C_R   0.555807 0.450913 0.021975 0.062591
C29   C     C_R   0.582389 0.354336 0.953034 0.075520
C30   C     C_R   0.472948 0.297316 0.853440 -0.046296
C31   C     C_R   0.346283 0.346847 0.818363 -0.227530
C32   C     C_R   0.668219 0.518559 0.111161 -0.090769
C33   C     C_R   0.822390 0.372521 0.086788 -0.013856
H1    H     H_    0.054916 0.394219 0.163823 0.074607
H2    H     H_    0.745506 0.257386 0.926850 0.222338
H3    H     H_    0.743210 0.695365 0.227769 0.100395
H4    H     H_    0.985509 0.668990 0.813187 0.097288
H5    H     H_    0.438688 0.549775 0.174269 0.122883
H6    H     H_    0.212824 0.623766 0.116899 0.173771
H7    H     H_    0.263844 0.303898 0.741053 0.153108
H8    H     H_    0.899882 0.145338 0.304822 0.051395
H9    H     H_    0.025833 0.844977 0.708035 0.037149
H10   H     H_    0.944182 0.134329 0.634651 0.186785
H11   H     H_    0.224817 0.861478 0.389477 0.074654
H12   H     H_    0.561724 0.439826 0.404626 0.195630
H13   H     H_    0.401955 0.713539 0.536913 0.047683
H14   H     H_    0.690996 0.608385 0.617626 0.213787
H15   H     H_    0.209952 0.292149 0.327147 0.079827
H16   H     H_    0.421086 0.175709 0.688743 0.129634
N1    N     N_2   0.313640 0.446500 0.454900 -0.211122
N2    N     N_2   0.686360 0.553430 0.545150 -0.192931
O1    O     O_R   0.936910 0.692950 0.509080 -0.586519
O2    O     O_2   0.846559 0.916469 0.645899 -0.529116
O3    O     O_2   0.230046 0.033034 0.454766 -0.542680
O4    O     O_2   0.473638 0.624495 0.685234 -0.533472
O5    O     O_2   0.402376 0.265644 0.423203 -0.553322
O6    O     O_2   0.554928 0.106413 0.826267 -0.509557
O7    O     O_2   0.594335 0.719266 0.078433 -0.495078
O8    O     O_2   0.974584 0.651467 0.973339 -0.549439
O9    O     O_2   0.907442 0.964453 0.282729 -0.544126
O10   O     O_R   0.138320 0.658600 0.480130 -0.636616
O11   O     O_R   0.002900 0.525670 0.675280 -0.634937
O12   O     O_R   0.204310 0.491320 0.646330 -0.560570
O13   O     O_R   0.861680 0.341400 0.519870 -0.559435
O14   O     O_R   0.063090 0.307050 0.490920 -0.622440
O15   O     O_R   0.795690 0.508680 0.353670 -0.613871
O16   O     O_R   0.997100 0.474330 0.324720 -0.638123
O17   O     O_2   0.977298 0.227767 0.083120 -0.537345
Zn1   Zn    Zn3+2 0.865520 0.522940 0.519330 0.974698
Zn2   Zn    Zn3+2 0.134480 0.477060 0.480670 0.942808

loop_
_geom_bond_atom_site_label_1
_geom_bond_atom_site_label_2
_ccdc_geom_bond_type
O10   Zn2   S    
C6    C10   S    
C1    O10   A    
C22   H15   S    
C11   O15   A    
C26   H4    S    
C13   C33   A    
C29   C30   A    
C5    C19   S    
C8    N1    D    
C8    C9    S    
C26   O8    D    
C27   H8    S    
C2    C4    S    
C9    N2    D    
O12   Zn2   S    
C22   N1    S    
C6    H10   S    
O16   Zn2   S    
C10   O13   A    
C19   O2    D    
C14   C33   A    
C8    C21   S    
N1    Zn2   S    
C3    C20   S    
C11   C14   S    
O13   Zn1   S    
C12   C17   A    
C9    H12   S    
C2    C15   A    
C18   H1    S    
C12   C23   A    
C6    C7    D    
C12   C28   A    
C15   C16   A    
C4    O12   A    
C28   C29   A    
C20   H11   S    
C11   O16   A    
C13   H2    S    
C27   O9    D    
C30   C31   A    
C18   C33   S    
C24   C30   S    
C23   C31   A    
O15   Zn1   S    
C25   O7    D    
C16   H6    S    
C18   O17   D    
O14   Zn2   S    
C4    O11   A    
C28   C32   A    
C7    C27   S    
C31   H7    S    
C2    C23   A    
C21   O4    D    
C21   H13   S    
C10   O14   A    
C13   C29   A    
C24   H16   S    
C5    C7    S    
C16   C17   A    
C15   C26   S    
C22   O5    D    
O1    Zn1   S    
N2    Zn1   S    
C3    C5    D    
C25   H3    S    
C1    O1    A    
H14   N2    S    
C17   H5    S    
C19   H9    S    
O11   Zn1   S    
C14   C32   A    
C24   O6    D    
C1    C3    S    
C25   C32   S    
C20   O3    D    
