data_mof_unit_46007.cif
_audit_creation_date              2013-03-05T16:10:28-0500
_audit_creation_method            fapswitch 2.2
_symmetry_space_group_name_H-M    P1
_symmetry_Int_Tables_number       1
_space_group_crystal_system       triclinic
_cell_length_a                    10.718326
_cell_length_b                    9.824543
_cell_length_c                    15.000318
_cell_angle_alpha                 89.884421
_cell_angle_beta                  90.146345
_cell_angle_gamma                 90.051324
_cell_volume                      1579.56431356

loop_
_atom_site_label
_atom_site_type_symbol
_atom_site_description
_atom_site_fract_x
_atom_site_fract_y
_atom_site_fract_z
_atom_type_partial_charge
O1    O     O_R   0.316770 0.614620 0.499990 -0.626563
O2    O     O_R   0.683230 0.385380 0.500010 -0.626562
O3    O     O_R   0.683230 0.614620 0.500010 -0.627116
O4    O     O_R   0.316770 0.385380 0.499990 -0.627116
C1    C     C_R   0.259823 0.499962 0.499918 0.876556
C2    C     C_R   0.740176 0.500038 0.500082 0.876557
O5    O     O_R   0.499980 0.614680 0.367850 -0.622077
O6    O     O_R   0.500020 0.385320 0.632150 -0.622076
O7    O     O_R   0.500020 0.614680 0.632150 -0.622946
O8    O     O_R   0.499980 0.385320 0.367850 -0.622947
C3    C     C_R   0.500342 0.500138 0.326591 0.894845
C4    C     C_R   0.499658 0.499862 0.673409 0.894843
Zn1   Zn    Zn3+2 0.500000 0.653120 0.500000 0.967794
Zn2   Zn    Zn3+2 0.500000 0.346880 0.500000 0.967795
C5    C     C_R   0.534121 0.382508 0.815020 -0.188267
C6    C     C_R   0.465885 0.617495 0.184980 -0.188274
C7    C     C_R   0.497749 0.499470 0.769179 -0.094800
C8    C     C_R   0.502254 0.500531 0.230821 -0.094803
C9    C     C_R   0.459800 0.616235 0.814442 -0.180722
C10   C     C_R   0.540206 0.383769 0.185558 -0.180708
C11   C     C_R   0.456152 0.617314 0.907081 -0.006448
C12   C     C_R   0.543860 0.382694 0.092919 -0.006455
C13   C     C_R   0.497917 0.499957 0.953597 0.028622
C14   C     C_R   0.502093 0.500050 0.046403 0.028616
C15   C     C_R   0.535954 0.382375 0.907138 0.072323
C16   C     C_R   0.464056 0.617631 0.092862 0.072338
C17   C     C_R   0.415493 0.733483 0.954374 0.312563
C18   C     C_R   0.584528 0.266531 0.045626 0.312582
C19   C     C_R   0.422163 0.732933 0.047141 -0.214686
C20   C     C_R   0.577854 0.267078 0.952858 -0.214661
H1    H     H_    0.564176 0.292684 0.778966 0.159423
H2    H     H_    0.435829 0.707318 0.221034 0.159420
H3    H     H_    0.434357 0.705997 0.776729 0.205705
H4    H     H_    0.565646 0.294004 0.223271 0.205706
H5    H     H_    0.391039 0.821610 0.083846 0.195624
H6    H     H_    0.608982 0.178405 0.916153 0.195643
C21   C     C_R   0.063863 0.378503 0.517184 -0.174462
C22   C     C_R   0.936137 0.621497 0.482816 -0.174463
C23   C     C_R   0.936053 0.378569 0.517319 -0.174168
C24   C     C_R   0.063947 0.621431 0.482681 -0.174170
H7    H     H_    0.112512 0.284114 0.531137 0.164550
H8    H     H_    0.887488 0.715885 0.468863 0.164550
H9    H     H_    0.887340 0.284213 0.531378 0.158645
H10   H     H_    0.112660 0.715787 0.468622 0.158645
C25   C     C_R   0.872592 0.500060 0.500109 -0.018515
C26   C     C_R   0.127408 0.499939 0.499891 -0.018515
C27   C     C_R   0.576320 0.071917 0.556431 -0.055593
C28   C     C_R   0.423679 0.928083 0.443569 -0.055598
C29   C     C_R   0.423680 0.072101 0.443571 -0.054340
C30   C     C_R   0.576320 0.927899 0.556429 -0.054337
H11   H     H_    0.637283 0.126546 0.601500 0.124759
H12   H     H_    0.362717 0.873454 0.398500 0.124759
H13   H     H_    0.362714 0.126874 0.398505 0.134002
H14   H     H_    0.637286 0.873126 0.601495 0.134003
N1    N     N_R   0.500000 0.857200 0.500000 -0.085266
N2    N     N_R   0.500000 0.142800 0.500000 -0.085266
N3    N     N_R   0.363757 0.850499 0.910023 0.201933
O9    O     O_R   0.273554 0.835304 0.852660 -0.390121
O10   O     O_R   0.388694 0.972140 0.939365 -0.361292
N4    N     N_R   0.636284 0.149533 0.089977 0.201941
O11   O     O_R   0.726469 0.164746 0.147348 -0.390128
O12   O     O_R   0.611392 0.027900 0.060624 -0.361282

loop_
_geom_bond_atom_site_label_1
_geom_bond_atom_site_label_2
_geom_bond_distance
_ccdc_geom_bond_type
C4    C7    1.436770 S    
Zn1   N1    2.004993 S    
C28   N1    1.365929 A    
Zn2   N2    2.004993 S    
C13   C14   1.392716 A    
C3    C8    1.436769 S    
C5    H1    1.085522 S    
C23   C25   1.397609 A    
C2    C25   1.419272 S    
C17   C19   1.393199 A    
C29   N2    1.365978 A    
C1    C26   1.419272 S    
C19   H5    1.084817 S    
O5    C3    1.285390 A    
C30   N1    1.365976 A    
O3    Zn1   2.000343 S    
C20   H6    1.084803 S    
O6    C4    1.285390 A    
O3    C2    1.281018 A    
C10   H4    1.081546 S    
C18   C20   1.393204 A    
C11   C17   1.414745 A    
C21   C23   1.369915 A    
O4    Zn2   2.000345 S    
C12   C18   1.414723 A    
C9    H3    1.081538 S    
C21   H7    1.084050 S    
C14   C16   1.411343 A    
N3    O9    1.301325 A    
C30   H14   1.081880 S    
N4    O11   1.301280 A    
C29   H13   1.081880 S    
C12   C14   1.418701 A    
N4    O12   1.301535 A    
C28   C29   1.414917 A    
C22   C24   1.369915 A    
C10   C12   1.390326 A    
C22   H8    1.084050 S    
C27   C30   1.414917 A    
C8    C10   1.395628 A    
C18   N4    1.437963 S    
C11   C13   1.418705 A    
C6    C16   1.381876 A    
O2    Zn2   1.999678 S    
O7    C4    1.285576 A    
O1    C1    1.280723 A    
C5    C15   1.381876 A    
N3    O10   1.301659 A    
O8    C3    1.285576 A    
C24   C26   1.397609 A    
C24   H10   1.084123 S    
C13   C15   1.411344 A    
O1    Zn1   1.999680 S    
C23   H9    1.084123 S    
C16   C19   1.396926 A    
C6    C8    1.393385 A    
C17   N3    1.438018 S    
C15   C20   1.396909 A    
C5    C7    1.393376 A    
O7    Zn1   2.017195 S    
C6    H2    1.085520 S    
C27   N2    1.365928 A    
C22   C25   1.397412 A    
C27   H11   1.081957 S    
O5    Zn1   2.018693 S    
O6    Zn2   2.018692 S    
C7    C9    1.395637 A    
C21   C26   1.397412 A    
C28   H12   1.081957 S    
O2    C2    1.280722 A    
O8    Zn2   2.017197 S    
O4    C1    1.281017 A    
C9    C11   1.390325 A    
