data_mof_unit_50426.cif
_audit_creation_date              2012-10-26T21:27:13-0400
_audit_creation_method            fapswitch 2.2
_symmetry_space_group_name_H-M    P1
_symmetry_Int_Tables_number       1
_space_group_crystal_system       triclinic
_cell_length_a                    12.182498
_cell_length_b                    12.182528
_cell_length_c                    23.403437
_cell_angle_alpha                 89.999851
_cell_angle_beta                  89.999084
_cell_angle_gamma                 89.999896
_cell_volume                      3473.38887524

loop_
_atom_site_label
_atom_site_type_symbol
_atom_type_description
_atom_site_fract_x
_atom_site_fract_y
_atom_site_fract_z
_atom_type_partial_charge
C1    C     C_3   0.000006 0.999999 0.250000 0.010001
C2    C     C_R   0.900757 0.000029 0.290777 -0.029534
C3    C     C_R   0.999532 0.650713 0.921558 0.582246
C4    C     C_R   0.000684 0.350496 0.079229 0.575756
C5    C     C_R   0.350499 0.999315 0.420770 0.575787
C6    C     C_R   0.650715 0.000469 0.578441 0.582236
C7    C     C_R   0.000471 0.349281 0.921560 0.582220
C8    C     C_R   0.999314 0.649501 0.079231 0.575801
C9    C     C_R   0.649502 0.000685 0.420770 0.575781
C10   C     C_R   0.349284 0.999531 0.578441 0.582241
C11   C     C_R   0.089723 0.111994 0.172370 -0.112517
C12   C     C_3   0.999990 0.999997 0.750000 0.014868
C13   C     C_R   0.917088 0.897363 0.833562 -0.118017
C14   C     C_R   0.897358 0.082911 0.666443 -0.118018
C15   C     C_R   0.112003 0.910277 0.327625 -0.112518
C16   C     C_R   0.910280 0.888000 0.172376 -0.112521
C17   C     C_R   0.082911 0.102633 0.833553 -0.118019
C18   C     C_R   0.102626 0.917091 0.666439 -0.118018
C19   C     C_R   0.888007 0.089721 0.327627 -0.112516
C20   C     C_R   0.077062 0.815736 0.790173 -0.123594
C21   C     C_R   0.910274 0.170950 0.202967 -0.124738
C22   C     C_R   0.829057 0.910268 0.297036 -0.124740
C23   C     C_R   0.000035 0.099248 0.209224 -0.029529
C24   C     C_R   0.184245 0.077075 0.709819 -0.123609
C25   C     C_R   0.922913 0.184245 0.790185 -0.123607
C26   C     C_R   0.089733 0.829047 0.202964 -0.124741
C27   C     C_R   0.170959 0.089726 0.297031 -0.124736
C28   C     C_R   0.815730 0.922930 0.709825 -0.123601
C29   C     C_R   0.094258 0.196187 0.132386 0.041614
C30   C     C_R   0.916952 0.817522 0.875971 0.030454
C31   C     C_R   0.817520 0.083055 0.624034 0.030412
C32   C     C_R   0.196199 0.905737 0.367607 0.041640
C33   C     C_R   0.905735 0.803800 0.132397 0.041648
C34   C     C_R   0.996925 0.899229 0.790261 -0.029626
C35   C     C_R   0.083076 0.182485 0.875957 0.030390
C36   C     C_R   0.182475 0.916944 0.624033 0.030434
C37   C     C_R   0.803807 0.094263 0.367607 0.041638
C38   C     C_R   0.075543 0.730820 0.830588 0.034091
C39   C     C_R   0.912923 0.258006 0.164007 0.036421
C40   C     C_R   0.741998 0.912920 0.335996 0.036417
C41   C     C_R   0.269163 0.075550 0.669405 0.034092
C42   C     C_R   0.924443 0.269160 0.830600 0.034096
C43   C     C_R   0.087079 0.741989 0.164005 0.036415
C44   C     C_R   0.258014 0.087076 0.335992 0.036415
C45   C     C_R   0.899223 0.003066 0.709739 -0.029634
C46   C     C_R   0.730816 0.924455 0.669409 0.034087
C47   C     C_R   0.003469 0.268875 0.126208 -0.008082
C48   C     C_R   0.996961 0.733100 0.875290 -0.013171
C49   C     C_R   0.733098 0.003043 0.624710 -0.013179
C50   C     C_R   0.268883 0.996529 0.373788 -0.008070
C51   C     C_R   0.996528 0.731117 0.126212 -0.008065
C52   C     C_R   0.003049 0.266897 0.875290 -0.013185
C53   C     C_R   0.266894 0.996958 0.624709 -0.013178
C54   C     C_R   0.731123 0.003471 0.373790 -0.008070
C55   C     C_2   0.197285 0.203928 0.099146 0.604290
C56   C     C_R   0.099256 0.999967 0.290774 -0.029534
C57   C     C_2   0.835840 0.831013 0.922279 0.598483
C58   C     C_2   0.831017 0.164191 0.577733 0.598469
C59   C     C_2   0.203951 0.802700 0.400836 0.604324
C60   C     C_2   0.802690 0.796042 0.099173 0.604334
C61   C     C_2   0.164276 0.169027 0.922228 0.598482
C62   C     C_2   0.169002 0.835797 0.577740 0.598484
C63   C     C_2   0.796049 0.197305 0.400834 0.604309
C64   C     C_2   0.154849 0.639163 0.823255 0.610801
C65   C     C_2   0.822746 0.339833 0.166960 0.609293
C66   C     C_2   0.660172 0.822741 0.333044 0.609291
C67   C     C_R   0.999974 0.900749 0.209224 -0.029539
C68   C     C_2   0.360815 0.154862 0.676735 0.610798
C69   C     C_2   0.845123 0.360806 0.823276 0.610804
C70   C     C_2   0.177258 0.660163 0.166955 0.609296
C71   C     C_2   0.339843 0.177251 0.333039 0.609296
C72   C     C_2   0.639158 0.845150 0.676741 0.610800
C73   C     C_R   0.003057 0.100761 0.790263 -0.029642
C74   C     C_R   0.100757 0.996934 0.709736 -0.029637
Cu1   Cu    Cu3+1 0.889520 0.500000 0.000000 1.133615
Cu2   Cu    Cu3+1 0.110480 0.500000 0.000000 1.133662
Cu3   Cu    Cu3+1 0.500000 0.889520 0.500000 1.133634
Cu4   Cu    Cu3+1 0.500000 0.110480 0.500000 1.133642
H1    H     H_    0.158490 0.055746 0.175722 0.154978
H2    H     H_    0.837058 0.160725 0.228406 0.162809
H3    H     H_    0.839285 0.837048 0.271600 0.162809
H4    H     H_    0.185195 0.141878 0.741181 0.164470
H5    H     H_    0.858105 0.185195 0.758825 0.164474
H6    H     H_    0.162952 0.839274 0.228401 0.162811
H7    H     H_    0.160735 0.162942 0.271592 0.162816
H8    H     H_    0.814771 0.858133 0.741192 0.164484
H9    H     H_    0.334978 0.289572 0.081777 0.346694
H10   H     H_    0.695165 0.779442 0.958852 0.358689
H11   H     H_    0.779399 0.304845 0.541149 0.358669
H12   H     H_    0.855617 0.961744 0.835159 0.151650
H13   H     H_    0.289618 0.665019 0.418198 0.346696
H14   H     H_    0.665016 0.710362 0.081815 0.346698
H15   H     H_    0.304907 0.220762 0.958786 0.358625
H16   H     H_    0.220636 0.695136 0.541177 0.358664
H17   H     H_    0.710374 0.334987 0.418191 0.346694
H18   H     H_    0.182813 0.475898 0.826189 0.360864
H19   H     H_    0.778768 0.499574 0.167676 0.373876
H20   H     H_    0.500431 0.778762 0.332327 0.373870
H21   H     H_    0.524080 0.182830 0.673808 0.360847
H22   H     H_    0.817148 0.524069 0.826197 0.360849
H23   H     H_    0.961738 0.144383 0.664851 0.151679
H24   H     H_    0.221236 0.500422 0.167669 0.373863
H25   H     H_    0.499585 0.221225 0.332327 0.373876
H26   H     H_    0.475892 0.817191 0.673809 0.360851
H27   H     H_    0.055756 0.841510 0.324271 0.154987
H28   H     H_    0.841512 0.944247 0.175732 0.154993
H29   H     H_    0.144390 0.038259 0.835138 0.151712
H30   H     H_    0.038247 0.855618 0.664846 0.151671
H31   H     H_    0.944254 0.158489 0.324271 0.154989
H32   H     H_    0.141857 0.814779 0.758805 0.164479
O1    O     O_R   0.907020 0.615090 0.941240 -0.468433
O2    O     O_R   0.092980 0.615090 0.941240 -0.489932
O3    O     O_R   0.384910 0.092980 0.558760 -0.489945
O4    O     O_R   0.615090 0.907020 0.441240 -0.489116
O5    O     O_R   0.092980 0.615090 0.058760 -0.489113
O6    O     O_R   0.907020 0.384910 0.941240 -0.489963
O7    O     O_R   0.615090 0.907020 0.558760 -0.489950
O8    O     O_R   0.384910 0.092980 0.441240 -0.489115
O9    O     O_2   0.226174 0.126776 0.069356 -0.458468
O10   O     O_R   0.265862 0.295071 0.105736 -0.660175
O11   O     O_2   0.845411 0.907553 0.955655 -0.449090
O12   O     O_R   0.092980 0.384910 0.058760 -0.470623
O13   O     O_R   0.745446 0.760696 0.925744 -0.649366
O14   O     O_2   0.907632 0.154697 0.544389 -0.449043
O15   O     O_R   0.760633 0.254537 0.574246 -0.649342
O16   O     O_2   0.126789 0.773777 0.430612 -0.458503
O17   O     O_R   0.295113 0.734147 0.394249 -0.660193
O18   O     O_2   0.773750 0.873207 0.069405 -0.458534
O19   O     O_R   0.734150 0.704870 0.105760 -0.660197
O20   O     O_2   0.154934 0.092337 0.955534 -0.449006
O21   O     O_R   0.254535 0.239519 0.925717 -0.649338
O22   O     O_2   0.092416 0.845287 0.544385 -0.449046
O23   O     O_R   0.384910 0.907020 0.441240 -0.470614
O24   O     O_R   0.239380 0.745451 0.574271 -0.649360
O25   O     O_2   0.873206 0.226233 0.430611 -0.458532
O26   O     O_R   0.704884 0.265856 0.394242 -0.660189
O27   O     O_2   0.248051 0.657951 0.806442 -0.476386
O28   O     O_R   0.121880 0.530926 0.833276 -0.643435
O29   O     O_2   0.727977 0.309387 0.173819 -0.477411
O30   O     O_R   0.846776 0.452017 0.164478 -0.645653
O31   O     O_2   0.690620 0.727971 0.326189 -0.477413
O32   O     O_R   0.547987 0.846770 0.335524 -0.645656
O33   O     O_2   0.342019 0.248070 0.693534 -0.476401
O34   O     O_R   0.615090 0.092980 0.558760 -0.468388
O35   O     O_R   0.469057 0.121893 0.666725 -0.643433
O36   O     O_2   0.751907 0.342002 0.806493 -0.476413
O37   O     O_R   0.878091 0.469051 0.833274 -0.643438
O38   O     O_2   0.272027 0.690610 0.173810 -0.477412
O39   O     O_R   0.153228 0.547979 0.164475 -0.645659
O40   O     O_2   0.309400 0.272019 0.326177 -0.477412
O41   O     O_R   0.452026 0.153220 0.335525 -0.645658
O42   O     O_2   0.657945 0.751943 0.693547 -0.476396
O43   O     O_R   0.530920 0.878124 0.666724 -0.643432
O44   O     O_R   0.092980 0.384910 0.941240 -0.468333
O45   O     O_R   0.907020 0.615090 0.058760 -0.470608
O46   O     O_R   0.615090 0.092980 0.441240 -0.470616
O47   O     O_R   0.384910 0.907020 0.558760 -0.468398
O48   O     O_R   0.907020 0.384910 0.058760 -0.489121

loop_
_geom_bond_atom_site_label_1
_geom_bond_atom_site_label_2
_ccdc_geom_bond_type
C24   C41   A    
C12   C74   S    
C13   H12   S    
C14   C31   A    
Cu4   O46   S    
C15   C32   A    
C66   O31   D    
H11   O15   S    
Cu3   Cu4   S    
C59   O16   D    
C5    O23   A    
C46   C49   A    
C28   C46   A    
H13   O17   S    
C68   O33   D    
C26   C67   A    
C31   C58   S    
C30   C48   A    
Cu4   O8    S    
C1    C56   S    
C7    C52   S    
Cu3   O7    S    
C17   H29   S    
H18   O28   S    
C71   O40   D    
H22   O37   S    
C59   O17   S    
C30   C57   S    
C3    C48   S    
Cu2   O5    S    
C44   C71   S    
C1    C2    S    
C10   O47   A    
C27   H7    S    
C10   C53   S    
C24   H4    S    
C36   C53   A    
C19   C37   A    
C8    O5    A    
C1    C67   S    
C65   O30   S    
C27   C44   A    
C4    O48   A    
C9    O46   A    
C3    O1    A    
C72   O42   D    
C2    C22   A    
H26   O43   S    
C41   C68   S    
C6    O7    A    
C46   C72   S    
H25   O41   S    
C64   O27   D    
C20   C34   A    
H21   O35   S    
C18   C74   A    
C40   C66   S    
C12   C73   S    
H20   O32   S    
C17   C73   A    
C69   O36   D    
C39   C65   S    
C70   O39   S    
Cu3   O23   S    
C31   C49   A    
H10   O13   S    
C36   C62   S    
C37   C63   S    
C26   C43   A    
C14   C45   A    
C38   C64   S    
C55   O10   S    
C19   H31   S    
C71   O41   S    
C28   C45   A    
C22   H3    S    
C62   O22   D    
C13   C30   A    
C60   O18   D    
C27   C56   A    
C14   H23   S    
C64   O28   S    
C29   C55   S    
C42   C69   S    
C33   C51   A    
C63   O25   D    
C7    O6    A    
C60   O19   S    
Cu1   Cu2   S    
Cu4   O34   S    
C16   C33   A    
C57   O13   S    
C20   C38   A    
C21   C39   A    
C3    O2    A    
Cu2   O2    S    
C6    O34   A    
C22   C40   A    
C4    O12   A    
C35   C61   S    
C16   C67   A    
Cu1   O1    S    
C8    C51   S    
C41   C53   A    
C10   O3    A    
C11   H1    S    
C61   O20   D    
C20   H32   S    
C37   C54   A    
Cu1   O48   S    
C9    C54   S    
C29   C47   A    
C1    C23   S    
C43   C70   S    
C40   C54   A    
C21   C23   A    
C28   H8    S    
C69   O37   S    
C5    C50   S    
Cu4   O3    S    
C70   O38   D    
C9    O4    A    
C12   C34   S    
Cu3   O4    S    
C39   C47   A    
C44   C50   A    
C62   O24   S    
C26   H6    S    
C72   O43   S    
H19   O30   S    
C2    C19   A    
C38   C48   A    
C12   C45   S    
C25   C42   A    
C24   C74   A    
C55   O9    D    
C66   O32   S    
C16   H28   S    
C33   C60   S    
C58   O14   D    
C5    O8    A    
Cu2   O12   S    
C63   O26   S    
C15   H27   S    
H14   O19   S    
H9    O10   S    
C15   C56   A    
C11   C29   A    
C43   C51   A    
C7    O44   A    
C21   H2    S    
C11   C23   A    
H17   O26   S    
H16   O24   S    
Cu2   O44   S    
C32   C50   A    
C25   C73   A    
C6    C49   S    
C18   H30   S    
C61   O21   S    
H24   O39   S    
C57   O11   D    
C65   O29   D    
Cu1   O45   S    
C13   C34   A    
C8    O45   A    
C58   O15   S    
C42   C52   A    
C35   C52   A    
C25   H5    S    
Cu1   O6    S    
C17   C35   A    
C32   C59   S    
H15   O21   S    
C18   C36   A    
C68   O35   S    
Cu3   O47   S    
C4    C47   S    
