data_mof_unit_11950.cif
_audit_creation_date              2013-03-05T15:58:07-0500
_audit_creation_method            fapswitch 2.2
_symmetry_space_group_name_H-M    P1
_symmetry_Int_Tables_number       1
_space_group_crystal_system       triclinic
_cell_length_a                    15.116216
_cell_length_b                    13.69147
_cell_length_c                    10.928242
_cell_angle_alpha                 89.830918
_cell_angle_beta                  89.578309
_cell_angle_gamma                 90.512255
_cell_volume                      2261.58218892

loop_
_atom_site_label
_atom_site_type_symbol
_atom_site_description
_atom_site_fract_x
_atom_site_fract_y
_atom_site_fract_z
_atom_type_partial_charge
O1    O     O_R   0.370250 0.582280 0.500040 -0.588368
O2    O     O_R   0.370250 0.417720 0.500040 -0.593334
C1    C     C_R   0.329237 0.499264 0.502968 0.819371
O3    O     O_R   0.499970 0.582270 0.317700 -0.581382
O4    O     O_R   0.499970 0.417730 0.317700 -0.596965
C2    C     C_R   0.496474 0.500383 0.259731 0.783083
Cu1   Cu    Cu3+1 0.499990 0.597420 0.500010 0.925816
Cu2   Cu    Cu3+1 0.499990 0.402580 0.500010 0.922131
O5    O     O_R   0.629730 0.582260 0.499980 -0.582651
O6    O     O_R   0.629730 0.417740 0.499980 -0.589367
O7    O     O_R   0.500000 0.582270 0.682320 -0.580484
O8    O     O_R   0.500000 0.417730 0.682320 -0.593489
C3    C     C_R   0.672034 0.500577 0.501661 0.796309
C4    C     C_R   0.492680 0.499017 0.739885 0.809472
C5    C     C_3   0.420790 0.572856 0.071590 0.101021
C6    C     C_3   0.472135 0.393826 0.073972 0.071685
H1    H     H_    0.448114 0.647788 0.082716 0.196156
H2    H     H_    0.522459 0.345040 0.115271 0.180876
C7    C     C_3   0.407116 0.554500 0.931479 -0.097337
C8    C     C_3   0.479955 0.389127 0.931415 -0.023315
H3    H     H_    0.347484 0.507388 0.918712 0.160864
H4    H     H_    0.417499 0.357872 0.894073 0.170464
H5    H     H_    0.578961 0.617727 0.886317 0.181544
H6    H     H_    0.629622 0.505433 0.879119 0.175416
C9    C     C_3   0.585704 0.536689 0.065703 0.432565
C10   C     C_3   0.492858 0.501090 0.121249 -0.136946
C11   C     C_3   0.488718 0.496445 0.878021 -0.031593
C12   C     C_3   0.575244 0.542978 0.923669 -0.359963
C13   C     C_R   0.820244 0.517728 0.396428 0.145138
C14   C     C_R   0.770472 0.501624 0.504196 -0.173341
C15   C     C_R   0.815671 0.494034 0.616199 0.188346
C16   C     C_R   0.908865 0.489825 0.618366 0.027925
C17   C     C_R   0.956635 0.491751 0.507460 -0.055877
C18   C     C_R   0.911881 0.502509 0.395661 0.103303
C19   C     C_R   0.955040 0.485589 0.729679 -0.182600
C20   C     C_R   0.047793 0.486947 0.732323 0.162040
C21   C     C_R   0.095826 0.489928 0.620712 0.109438
C22   C     C_R   0.049652 0.489627 0.508253 0.047915
C23   C     C_R   0.096662 0.489931 0.395859 0.134365
C24   C     C_R   0.051351 0.493522 0.285023 -0.239415
C25   C     C_R   0.959864 0.501707 0.284874 -0.190431
C26   C     C_R   0.188747 0.494967 0.617587 -0.262522
C27   C     C_R   0.233858 0.496244 0.505639 -0.049410
C28   C     C_R   0.188521 0.489209 0.395876 -0.259696
H7    H     H_    0.918884 0.482771 0.815609 0.181369
H8    H     H_    0.226970 0.497512 0.700974 0.133681
H9    H     H_    0.225018 0.484792 0.310562 0.144817
H10   H     H_    0.086918 0.493576 0.198498 0.145047
H11   H     H_    0.926802 0.507587 0.197629 0.170176
C29   C     C_R   0.432383 0.792050 0.556823 0.039679
C30   C     C_R   0.432859 0.206865 0.557682 0.016993
N1    N     N_R   0.499930 0.743810 0.499950 -0.197037
N2    N     N_R   0.499930 0.256190 0.499950 -0.188457
C31   C     C_R   0.565997 0.794599 0.441753 -0.000802
C32   C     C_R   0.565750 0.207023 0.441096 0.003783
C33   C     C_R   0.567030 0.897522 0.441071 0.034708
C34   C     C_R   0.566776 0.104205 0.440486 0.028010
C35   C     C_R   0.498398 0.948357 0.500803 0.026509
C36   C     C_R   0.498214 0.051959 0.500518 0.039346
C37   C     C_R   0.429481 0.895455 0.558607 -0.100142
C38   C     C_R   0.429680 0.103431 0.559488 -0.108314
C39   C     C_R   0.634733 0.950410 0.381365 -0.207904
C40   C     C_R   0.634586 0.052827 0.381037 -0.204564
C41   C     C_R   0.360099 0.050313 0.617622 0.190977
C42   C     C_R   0.359006 0.946754 0.614411 0.221006
H12   H     H_    0.380732 0.749633 0.601136 0.171090
H13   H     H_    0.381927 0.249181 0.601609 0.144015
H14   H     H_    0.617739 0.754877 0.395325 0.121989
H15   H     H_    0.617457 0.247974 0.394293 0.126650
H16   H     H_    0.687774 0.912522 0.334759 0.130805
H17   H     H_    0.687592 0.091898 0.334291 0.134993
C43   C     C_3   0.093583 0.485526 0.854679 -0.907109
H18   H     H_    0.045614 0.482132 0.932127 0.227767
H19   H     H_    0.136738 0.420515 0.860942 0.234316
H20   H     H_    0.134234 0.552871 0.865527 0.234568
N3    N     N_2   0.289739 0.099234 0.678657 -0.427185
H21   H     H_    0.259435 0.152002 0.626583 0.244575
C44   C     C_3   0.310043 0.131693 0.801383 -0.707676
H22   H     H_    0.357073 0.194409 0.798950 0.209771
H23   H     H_    0.339846 0.071846 0.855671 0.238056
H24   H     H_    0.248250 0.155130 0.847914 0.231309
N4    N     N_2   0.283509 0.894351 0.658947 -0.426824
H25   H     H_    0.223720 0.923496 0.633319 0.272424
C45   C     C_3   0.285640 0.867707 0.786926 -0.710457
H26   H     H_    0.244351 0.801189 0.801247 0.229395
H27   H     H_    0.257459 0.926977 0.843738 0.241005
H28   H     H_    0.354276 0.852736 0.817004 0.230123
N5    N     N_2   0.337501 0.566936 0.140232 -0.446886
H29   H     H_    0.288526 0.523120 0.103937 0.257696
C46   C     C_3   0.305140 0.657734 0.191126 -0.700068
H30   H     H_    0.242521 0.644726 0.242165 0.228040
H31   H     H_    0.291808 0.711241 0.117334 0.216357
H32   H     H_    0.354365 0.689081 0.255297 0.262752
N6    N     N_2   0.385054 0.357988 0.114134 -0.435165
H33   H     H_    0.361702 0.387014 0.194846 0.283192
C47   C     C_3   0.373092 0.252880 0.113573 -0.729404
H34   H     H_    0.302674 0.234625 0.133134 0.232200
H35   H     H_    0.414766 0.218953 0.185204 0.236503
H36   H     H_    0.390675 0.221824 0.023168 0.235352
C48   C     C_3   0.385044 0.650617 0.866049 -0.903549
H37   H     H_    0.443686 0.699613 0.859134 0.247475
H38   H     H_    0.358217 0.635831 0.773639 0.246305
H39   H     H_    0.332283 0.688882 0.917070 0.237343
C49   C     C_3   0.553085 0.315240 0.894500 -0.868873
H40   H     H_    0.620566 0.344799 0.907278 0.255952
H41   H     H_    0.547052 0.247993 0.951146 0.220513
H42   H     H_    0.546421 0.288744 0.799539 0.262807
N7    N     N_2   0.612977 0.631698 0.118519 -0.431915
H43   H     H_    0.619859 0.637906 0.211102 0.270752
C50   C     C_3   0.620641 0.724322 0.053898 -0.765963
H44   H     H_    0.638268 0.783186 0.119397 0.223208
H45   H     H_    0.557174 0.744965 0.011411 0.226208
H46   H     H_    0.674261 0.721436 0.984534 0.234193
N8    N     N_2   0.652715 0.463135 0.095619 -0.449189
H47   H     H_    0.648531 0.432514 0.181730 0.225993
C51   C     C_3   0.743080 0.474078 0.051166 -0.673326
H48   H     H_    0.788299 0.431529 0.110146 0.223287
H49   H     H_    0.764683 0.551608 0.051887 0.264866
H50   H     H_    0.749943 0.443287 0.958199 0.232998
N9    N     N_2   0.781219 0.563510 0.294281 -0.434807
H51   H     H_    0.715216 0.548751 0.287997 0.256283
C52   C     C_3   0.801395 0.667000 0.284460 -0.707150
H52   H     H_    0.775459 0.696153 0.197344 0.238099
H53   H     H_    0.873950 0.680388 0.284191 0.241080
H54   H     H_    0.770998 0.707124 0.362071 0.222755
N10   N     N_2   0.768928 0.507151 0.727205 -0.453212
H55   H     H_    0.710351 0.468534 0.730187 0.242950
C53   C     C_3   0.761339 0.609202 0.760624 -0.730193
H56   H     H_    0.707588 0.644342 0.708118 0.247296
H57   H     H_    0.824482 0.649533 0.743796 0.242777
H58   H     H_    0.746798 0.615250 0.859112 0.225226

loop_
_geom_bond_atom_site_label_1
_geom_bond_atom_site_label_2
_geom_bond_distance
_ccdc_geom_bond_type
N10   H55   1.027498 S    
C19   C20   1.402549 A    
C30   C38   1.416629 A    
C45   H28   1.111272 S    
C53   H56   1.110467 S    
C49   H41   1.110646 S    
N8    H47   1.030362 S    
C46   H30   1.107890 S    
Cu1   Cu2   2.667645 S    
C2    C10   1.514760 S    
C51   H48   1.110600 S    
C9    C12   1.563575 S    
C5    C7    1.567282 S    
C1    C27   1.442063 S    
C39   C40   1.402250 A    
C20   C21   1.415161 A    
C7    H3    1.113577 S    
C21   C22   1.417806 A    
N3    C44   1.448308 S    
Cu1   N1    2.004301 S    
C43   H20   1.110598 S    
O4    C2    1.296944 A    
O7    C4    1.303744 A    
C44   H23   1.110857 S    
C34   C36   1.410722 A    
C31   H14   1.080904 S    
C35   C37   1.408212 A    
C47   H36   1.108226 S    
N7    H43   1.021586 S    
C39   H16   1.083671 S    
C24   H10   1.084281 S    
C26   H8    1.083079 S    
C21   C26   1.405847 A    
O5    C3    1.293383 A    
C50   H44   1.111420 S    
N9    C52   1.450205 S    
C47   H35   1.111643 S    
C29   N1    1.367564 A    
C4    C11   1.510629 S    
C7    C11   1.582505 S    
C28   H9    1.081956 S    
C6    C8    1.563067 S    
C18   C25   1.406879 A    
O3    Cu1   2.003707 S    
C25   H11   1.082852 S    
C49   H40   1.104015 S    
N1    C31   1.364193 A    
C34   C40   1.404772 A    
N2    C32   1.364501 A    
C6    C10   1.587609 S    
C22   C23   1.414454 A    
C13   N9    1.413921 S    
C31   C33   1.409117 A    
C36   C38   1.411064 A    
C16   C19   1.408236 A    
C3    C14   1.488412 S    
N3    H21   1.031011 S    
C43   H19   1.110494 S    
C23   C24   1.396823 A    
C44   H22   1.110006 S    
C5    C10   1.572083 S    
C35   C36   1.418484 A    
C13   C18   1.402600 A    
C48   H39   1.106381 S    
O1    C1    1.290017 A    
C38   C41   1.418641 A    
Cu1   O7    2.002489 S    
C27   C28   1.389023 A    
C13   C14   1.408592 A    
C46   H31   1.108670 S    
C15   C16   1.410799 A    
O8    C4    1.285276 A    
Cu2   O8    2.003706 S    
C47   H34   1.110318 S    
C48   H38   1.109532 S    
C17   C18   1.408892 A    
C41   N3    1.424660 S    
C30   H13   1.078432 S    
H5    C12   1.101516 S    
C45   H26   1.109519 S    
N6    C47   1.448827 S    
C29   H12   1.079836 S    
C50   H46   1.106727 S    
C32   H15   1.082343 S    
C51   H49   1.107855 S    
O3    C2    1.290239 A    
C24   C25   1.388477 A    
N5    C46   1.450869 S    
C37   C42   1.416493 A    
N4    C45   1.444994 S    
C32   C34   1.407993 A    
C33   C39   1.404130 A    
C26   C27   1.396202 A    
C52   H53   1.110333 S    
C19   H7    1.083453 S    
C53   H58   1.100437 S    
N9    H51   1.019062 S    
C46   H32   1.110597 S    
C5    H1    1.109869 S    
N10   C53   1.450530 S    
O1    Cu1   1.970256 S    
Cu2   O6    1.970284 S    
O2    Cu2   1.973942 S    
H6    C12   1.086314 S    
C8    H4    1.113750 S    
C43   H18   1.111039 S    
O6    C3    1.297270 A    
C53   H57   1.112277 S    
Cu2   N2    2.004288 S    
O4    Cu2   2.002490 S    
N8    C51   1.452761 S    
C7    C48   1.536300 S    
N7    C50   1.453009 S    
C23   C28   1.388696 A    
C8    C49   1.556919 S    
C8    C11   1.583453 S    
C6    N6    1.464517 S    
C17   C22   1.406723 A    
C51   H50   1.105637 S    
C29   C37   1.417012 A    
C16   C17   1.406301 A    
C52   H54   1.110777 S    
O2    C1    1.282247 A    
C9    C10   1.596639 S    
C9    N8    1.472511 S    
C41   C42   1.418371 A    
C44   H24   1.110571 S    
C42   N4    1.424491 S    
C14   C15   1.410179 A    
C48   H37   1.108876 S    
C33   C35   1.411547 A    
N6    H33   1.029821 S    
C50   H45   1.107479 S    
Cu1   O5    1.973975 S    
N5    H29   1.031046 S    
C6    H2    1.113942 S    
N4    H25   1.031504 S    
C11   C12   1.536896 S    
C45   H27   1.109379 S    
C15   N10   1.412107 S    
C30   N2    1.363037 A    
C52   H52   1.106993 S    
C40   H17   1.083440 S    
C49   H42   1.105339 S    
C20   C43   1.510336 S    
C9    N7    1.481057 S    
C5    N5    1.462304 S    
