data_mof_unit_21021.cif
_audit_creation_date              2012-10-26T21:18:00-0400
_audit_creation_method            fapswitch 2.2
_symmetry_space_group_name_H-M    P1
_symmetry_Int_Tables_number       1
_space_group_crystal_system       triclinic
_cell_length_a                    14.678403
_cell_length_b                    14.704723
_cell_length_c                    27.80185
_cell_angle_alpha                 76.929205
_cell_angle_beta                  102.787205
_cell_angle_gamma                 114.746965
_cell_volume                      5253.83295278

loop_
_atom_site_label
_atom_site_type_symbol
_atom_type_description
_atom_site_fract_x
_atom_site_fract_y
_atom_site_fract_z
_atom_type_partial_charge
C1    C     C_R   0.880329 0.312287 0.507940 0.550124
C2    C     C_R   0.938067 0.414572 0.130906 0.022767
C3    C     C_R   0.998141 0.498721 0.645473 -0.012928
C4    C     C_R   0.001926 0.501430 0.354541 -0.012313
C5    C     C_R   0.935219 0.412042 0.028801 0.017456
C6    C     C_R   0.060548 0.588085 0.970767 0.017244
C7    C     C_R   0.065423 0.586611 0.022570 0.017219
C8    C     C_R   0.935971 0.410889 0.977880 0.017383
C9    C     C_R   0.001244 0.499311 0.051045 0.032931
C10   C     C_R   0.997364 0.499529 0.948964 0.032915
C11   C     C_R   0.870057 0.328832 0.058483 -0.142123
C12   C     C_R   0.119686 0.687724 0.491247 0.551033
C13   C     C_R   0.116333 0.675672 0.939623 -0.142231
C14   C     C_R   0.871792 0.330210 0.108452 -0.116073
C15   C     C_R   0.113311 0.675027 0.889430 -0.115817
C16   C     C_R   0.999358 0.499704 0.592496 0.553183
C17   C     C_R   0.000669 0.500343 0.407509 0.552499
C18   C     C_R   0.877667 0.323631 0.954665 -0.142327
C19   C     C_R   0.133100 0.669489 0.047248 -0.142455
C20   C     C_R   0.812803 0.205099 0.508793 -0.000727
C21   C     C_R   0.187146 0.795275 0.484445 -0.000930
C22   C     C_R   0.783513 0.030663 0.508633 -0.130536
C23   C     C_R   0.995701 0.499569 0.897612 -0.027460
C24   C     C_R   0.215239 0.972948 0.467495 -0.130649
C25   C     C_R   0.850407 0.130371 0.512153 -0.134534
C26   C     C_R   0.148991 0.871612 0.472739 -0.135164
C27   C     C_R   0.708221 0.178910 0.502785 -0.128169
C28   C     C_R   0.291640 0.821227 0.489587 -0.131929
C29   C     C_R   0.639093 0.080092 0.496722 0.034747
C30   C     C_R   0.359824 0.922729 0.482845 0.033578
C31   C     C_R   0.678423 0.005044 0.500805 0.051556
C32   C     C_R   0.320156 0.999021 0.473113 0.052077
C33   C     C_R   0.532360 0.053797 0.487294 0.033511
C34   C     C_R   0.002996 0.499355 0.102397 -0.027432
C35   C     C_R   0.466269 0.950260 0.487151 0.034220
C36   C     C_R   0.508630 0.878048 0.490371 -0.134493
C37   C     C_R   0.489546 0.127695 0.476881 -0.135942
C38   C     C_R   0.612675 0.905368 0.496735 -0.132296
C39   C     C_R   0.385453 0.100522 0.469421 -0.130894
C40   C     C_R   0.936081 0.413017 0.825061 0.385631
C41   C     C_R   0.069266 0.583156 0.175949 0.386128
C42   C     C_R   0.718458 0.672950 0.417196 -0.015627
C43   C     C_R   0.282536 0.328554 0.583581 -0.014986
C44   C     C_R   0.798833 0.639713 0.430655 0.061822
C45   C     C_R   0.935630 0.411720 0.875649 0.022760
C46   C     C_R   0.201791 0.361236 0.569834 0.061508
C47   C     C_R   0.714365 0.509462 0.492301 0.025052
C48   C     C_R   0.285392 0.490204 0.507507 0.025497
C49   C     C_R   0.628975 0.536435 0.480897 -0.008285
C50   C     C_R   0.371090 0.463712 0.519151 -0.008265
C51   C     C_R   0.632723 0.620671 0.443040 0.037670
C52   C     C_R   0.367804 0.380160 0.557377 0.038207
C53   C     C_R   0.541244 0.483589 0.506176 0.024130
C54   C     C_R   0.458785 0.516512 0.493847 0.025466
C55   C     C_R   0.467020 0.601642 0.456831 -0.144216
C56   C     C_R   0.069556 0.584255 0.125366 0.022782
C57   C     C_R   0.533123 0.398635 0.543301 -0.143396
C58   C     C_R   0.551044 0.651652 0.432057 -0.136300
C59   C     C_R   0.449485 0.349192 0.568377 -0.131842
C60   C     C_R   0.052400 0.585487 0.817640 0.386754
C61   C     C_R   0.940160 0.416650 0.181369 0.386139
C62   C     C_R   0.926905 0.524848 0.709342 -0.067419
C63   C     C_R   0.069282 0.469987 0.290809 -0.067678
C64   C     C_R   0.927409 0.525367 0.659314 -0.152599
C65   C     C_R   0.069063 0.469723 0.340842 -0.152881
C66   C     C_R   0.068031 0.470810 0.682568 -0.118778
C67   C     C_R   0.877489 0.324344 0.904619 -0.116249
C68   C     C_R   0.935625 0.534471 0.317317 -0.118073
C69   C     C_R   0.068311 0.469728 0.733368 0.061918
C70   C     C_R   0.935319 0.535646 0.266506 0.062194
C71   C     C_R   0.996679 0.497553 0.746276 0.248538
C72   C     C_R   0.002941 0.502244 0.253737 0.248515
C73   C     C_3   0.723023 0.763158 0.376259 -0.298120
C74   C     C_3   0.818093 0.812690 0.350562 -0.450684
C75   C     C_3   0.278972 0.239813 0.625298 -0.298414
C76   C     C_3   0.184834 0.191640 0.651678 -0.449780
C77   C     C_3   0.142755 0.440043 0.774653 -0.259172
C78   C     C_R   0.134753 0.668221 0.097517 -0.116091
C79   C     C_3   0.216821 0.409261 0.757798 -0.456966
C80   C     C_3   0.865088 0.571348 0.225067 -0.258815
C81   C     C_3   0.796669 0.609691 0.241747 -0.457561
C82   C     C_R   0.054260 0.587408 0.868098 0.022780
Cu1   Cu    Cu3+1 0.081740 0.475690 0.513040 0.929299
Cu2   Cu    Cu3+1 0.918260 0.524310 0.486960 0.930090
H1    H     H_    0.121819 0.449991 0.671413 0.132958
H2    H     H_    0.450028 0.285223 0.596551 0.110366
H3    H     H_    0.279565 0.549841 0.478041 0.122259
H4    H     H_    0.719767 0.449161 0.521430 0.121635
H5    H     H_    0.134849 0.324527 0.587980 0.136228
H6    H     H_    0.866034 0.676805 0.412713 0.135139
H7    H     H_    0.409661 0.632790 0.445960 0.091462
H8    H     H_    0.590434 0.367425 0.554177 0.093836
H9    H     H_    0.831546 0.255456 0.888749 0.163946
H10   H     H_    0.187684 0.733873 0.114488 0.163937
H11   H     H_    0.121010 0.444074 0.368778 0.132973
H12   H     H_    0.884765 0.559343 0.328387 0.132098
H13   H     H_    0.872637 0.546988 0.631501 0.133501
H14   H     H_    0.121033 0.444739 0.280663 0.125990
H15   H     H_    0.872194 0.545967 0.719593 0.126324
H16   H     H_    0.820272 0.264514 0.129430 0.163538
H17   H     H_    0.157890 0.743996 0.867352 0.163520
H18   H     H_    0.815045 0.261465 0.044197 0.109145
H19   H     H_    0.162279 0.747128 0.952530 0.109396
H20   H     H_    0.832205 0.252306 0.974213 0.109355
H21   H     H_    0.187446 0.736517 0.029083 0.109355
H22   H     H_    0.641841 0.847707 0.498809 0.114169
H23   H     H_    0.068298 0.853120 0.468376 0.125725
H24   H     H_    0.355938 0.159568 0.461439 0.113575
H25   H     H_    0.318393 0.760673 0.500404 0.121110
H26   H     H_    0.682659 0.237242 0.503478 0.115524
H27   H     H_    0.886676 0.844074 0.377878 0.144981
H28   H     H_    0.825880 0.757192 0.332158 0.141290
H29   H     H_    0.811721 0.876139 0.321422 0.157021
H30   H     H_    0.656776 0.737912 0.346837 0.153524
H31   H     H_    0.717406 0.822668 0.392601 0.148466
H32   H     H_    0.177488 0.248395 0.669348 0.141392
H33   H     H_    0.115644 0.158765 0.624965 0.147797
H34   H     H_    0.931188 0.149128 0.516830 0.127807
H35   H     H_    0.192085 0.129473 0.681476 0.157284
H36   H     H_    0.284053 0.179257 0.609578 0.150749
H37   H     H_    0.345894 0.266302 0.654237 0.152524
H38   H     H_    0.175001 0.342102 0.738293 0.147886
H39   H     H_    0.265688 0.473180 0.733023 0.157888
H40   H     H_    0.266521 0.388865 0.790975 0.149552
H41   H     H_    0.187921 0.504797 0.795546 0.170914
H42   H     H_    0.099133 0.375406 0.801043 0.170883
H43   H     H_    0.744404 0.548290 0.266047 0.157339
H44   H     H_    0.842986 0.675572 0.261713 0.148121
H45   H     H_    0.813913 0.973715 0.511387 0.107681
H46   H     H_    0.750175 0.634609 0.208454 0.149611
H47   H     H_    0.911909 0.633776 0.198909 0.169289
H48   H     H_    0.815783 0.507835 0.203957 0.172660
H49   H     H_    0.184505 0.031046 0.459433 0.107565
H50   H     H_    0.463359 0.799847 0.486512 0.101617
H51   H     H_    0.534187 0.207942 0.472688 0.107600
H52   H     H_    0.550758 0.716021 0.404115 0.110244
N1    N     N_R   0.994631 0.498826 0.797427 -0.403772
N2    N     N_R   0.004485 0.500496 0.202583 -0.403794
N3    N     N_R   0.795430 0.560780 0.467350 -0.249362
N4    N     N_R   0.204570 0.439220 0.532650 -0.249865
O1    O     O_R   0.977900 0.338120 0.517190 -0.508471
O2    O     O_2   0.132526 0.664193 0.198304 -0.504776
O3    O     O_2   0.878100 0.335902 0.209008 -0.504559
O4    O     O_2   0.108362 0.669176 0.789039 -0.504142
O5    O     O_R   0.022100 0.661880 0.482810 -0.508351
O6    O     O_R   0.839850 0.379180 0.495160 -0.507841
O7    O     O_R   0.160150 0.620820 0.504840 -0.508170
O8    O     O_R   0.069030 0.479490 0.580750 -0.507066
O9    O     O_R   0.930970 0.520510 0.419250 -0.506884
O10   O     O_R   0.930970 0.520550 0.558720 -0.501540
O11   O     O_R   0.069030 0.479450 0.441280 -0.502577
O12   O     O_2   0.879098 0.329164 0.803673 -0.505283

loop_
_geom_bond_atom_site_label_1
_geom_bond_atom_site_label_2
_ccdc_geom_bond_type
C24   H49   S    
C21   C26   A    
C63   C65   A    
C34   C56   A    
C23   C45   A    
C57   H8    S    
C27   C29   A    
C73   C74   S    
C69   C77   S    
C35   C36   A    
C25   H34   S    
C66   H1    S    
C77   H41   S    
C47   C49   A    
C46   H5    S    
C3    C64   A    
C68   H12   S    
Cu1   O1    S    
C30   C35   A    
C80   H48   S    
C12   O7    A    
C72   N2    S    
C23   C82   A    
C24   C26   A    
C5    C11   A    
C63   H14   S    
C74   H28   S    
C4    C65   A    
C11   C14   A    
C61   N2    A    
C57   C59   A    
C66   C69   A    
C20   C25   A    
C29   C33   A    
C56   C78   A    
C40   O12   S    
C55   H7    S    
C32   C39   A    
C69   C71   A    
C62   C64   A    
C76   H32   S    
C60   C82   A    
C61   O3    S    
C27   H26   S    
C49   C51   A    
C22   C25   A    
C45   C67   A    
C50   C52   A    
C37   H51   S    
C13   H19   S    
C2    C61   A    
C60   N1    A    
Cu2   O9    S    
C2    C34   A    
C48   C50   A    
C80   H47   S    
C81   H43   S    
C1    O6    A    
C17   O11   A    
C42   C44   A    
C2    C14   A    
Cu1   N4    S    
C15   C82   A    
Cu1   O11   S    
C77   C79   S    
C43   C75   S    
C39   H24   S    
C37   C39   A    
C79   H38   S    
C76   H35   S    
C22   C31   A    
C48   N4    A    
C70   C80   S    
Cu2   N3    S    
C71   N1    S    
C74   H27   S    
C4    C68   A    
C53   C57   A    
C58   H52   S    
C18   C67   A    
Cu2   O5    S    
C74   H29   S    
C79   H39   S    
C12   C21   S    
C33   C37   A    
C73   H30   S    
C62   H15   S    
C12   O5    A    
C38   H22   S    
C19   C78   A    
C75   C76   S    
C24   C32   A    
C41   C56   A    
C5    C9    A    
C52   C59   A    
Cu1   Cu2   S    
C40   N1    A    
C48   H3    S    
C51   C58   A    
C18   H20   S    
C15   H17   S    
C14   H16   S    
C41   N2    A    
Cu1   O7    S    
C4    C17   S    
C19   H21   S    
C8    C10   A    
C64   H13   S    
C21   C28   A    
C44   N3    A    
C7    C19   A    
C13   C15   A    
C81   H44   S    
C9    C34   A    
C28   H25   S    
C3    C66   A    
C50   C54   A    
C44   H6    S    
C46   N4    A    
C7    C9    A    
C54   C55   A    
C42   C73   S    
C75   H37   S    
C17   O9    A    
C75   H36   S    
C80   C81   S    
C1    C20   S    
C36   H50   S    
C26   H23   S    
C6    C10   A    
C5    C8    A    
C16   O10   A    
C53   C54   A    
C6    C7    A    
C20   C27   A    
Cu2   O6    S    
C10   C23   A    
C79   H40   S    
C42   C51   A    
C76   H33   S    
C73   H31   S    
C31   C38   A    
C16   O8    A    
C47   H4    S    
C36   C38   A    
C59   H2    S    
C41   O2    S    
C29   C31   A    
C60   O4    S    
C6    C13   A    
C30   C32   A    
C81   H46   S    
C78   H10   S    
C49   C53   A    
C28   C30   A    
C63   C72   A    
C33   C35   A    
C62   C71   A    
C11   H18   S    
C43   C52   A    
C43   C46   A    
C8    C18   A    
C1    O1    A    
C3    C16   S    
Cu1   O8    S    
C65   H11   S    
C40   C45   A    
C68   C70   A    
C55   C58   A    
C47   N3    A    
C22   H45   S    
C67   H9    S    
C70   C72   A    
C77   H42   S    
Cu2   O10   S    
