data_mof_unit_16651.cif
_audit_creation_date              2012-12-10T18:44:28-0500
_audit_creation_method            fapswitch 2.2
_symmetry_space_group_name_H-M    P1
_symmetry_Int_Tables_number       1
_space_group_crystal_system       triclinic
_cell_length_a                    12.813101
_cell_length_b                    10.69971
_cell_length_c                    9.898266
_cell_angle_alpha                 89.39037
_cell_angle_beta                  96.659074
_cell_angle_gamma                 91.140084
_cell_volume                      1347.54820951

loop_
_atom_site_label
_atom_site_type_symbol
_atom_type_description
_atom_site_fract_x
_atom_site_fract_y
_atom_site_fract_z
_atom_type_partial_charge
C1    C     C_R   0.499571 0.260071 0.500330 0.887974
C2    C     C_R   0.701389 0.495941 0.526573 0.913005
C3    C     C_R   0.813034 0.485985 0.542891 -0.101620
C4    C     C_R   0.186966 0.514015 0.457109 -0.101621
C5    C     C_R   0.028502 0.618791 0.369983 -0.191669
C6    C     C_R   0.971498 0.381209 0.630017 -0.191669
C7    C     C_R   0.135724 0.604022 0.369712 0.146748
C8    C     C_R   0.864276 0.395979 0.630289 0.146748
C9    C     C_R   0.132079 0.438586 0.540826 -0.259110
C10   C     C_R   0.867921 0.561414 0.459173 -0.259110
C11   C     C_R   0.026020 0.454480 0.542884 0.136709
C12   C     C_R   0.500429 0.739929 0.499670 0.887973
C13   C     C_R   0.973980 0.545520 0.457116 0.136709
C14   C     C_R   0.472943 0.064595 0.377856 -0.167720
C15   C     C_R   0.527057 0.935405 0.622144 -0.167720
C16   C     C_R   0.473841 0.936620 0.377316 -0.131828
C17   C     C_R   0.526159 0.063380 0.622684 -0.131828
C18   C     C_R   0.500768 0.872473 0.499459 -0.025139
C19   C     C_R   0.499232 0.127527 0.500541 -0.025139
C20   C     C_R   0.561096 0.583997 0.077783 0.232845
C21   C     C_R   0.438904 0.416003 0.922217 0.232845
C22   C     C_R   0.560723 0.583346 0.934867 -0.114549
C23   C     C_R   0.439277 0.416654 0.065133 -0.114549
C24   C     C_R   0.298610 0.504059 0.473427 0.913006
H1    H     H_    0.827456 0.631290 0.393989 0.185111
H2    H     H_    0.390818 0.350173 0.114045 0.162549
H3    H     H_    0.172544 0.368709 0.606011 0.185111
H4    H     H_    0.988338 0.688777 0.304338 0.178711
H5    H     H_    0.011662 0.311223 0.695662 0.178710
H6    H     H_    0.451146 0.113883 0.282866 0.168777
H7    H     H_    0.548854 0.886117 0.717134 0.168777
H8    H     H_    0.452605 0.888267 0.282167 0.191673
H9    H     H_    0.547395 0.111732 0.717833 0.191673
H10   H     H_    0.609182 0.649827 0.885955 0.162549
I1    I     I_    0.785391 0.271838 0.755392 -0.328914
I2    I     I_    0.214609 0.728163 0.244608 -0.328915
I3    I     I_    0.660347 0.721103 0.180407 -0.359596
I4    I     I_    0.339653 0.278897 0.819593 -0.359596
N1    N     N_R   0.499970 0.499970 0.857200 -0.108978
N2    N     N_R   0.500030 0.500030 0.142800 -0.108978
O1    O     O_R   0.499990 0.316750 0.614620 -0.594122
O2    O     O_R   0.500010 0.683250 0.385380 -0.594122
O3    O     O_R   0.499990 0.316780 0.385290 -0.632732
O4    O     O_R   0.500010 0.683220 0.614710 -0.632731
O5    O     O_R   0.346360 0.499970 0.595710 -0.593740
O6    O     O_R   0.653640 0.500030 0.404290 -0.593740
O7    O     O_R   0.346360 0.499990 0.366380 -0.599349
O8    O     O_R   0.653640 0.500010 0.633620 -0.599349
Zn1   Zn    Zn3+2 0.500000 0.499980 0.653120 1.004965
Zn2   Zn    Zn3+2 0.500000 0.500020 0.346880 1.004965

loop_
_geom_bond_atom_site_label_1
_geom_bond_atom_site_label_2
_ccdc_geom_bond_type
O4    Zn1   S    
C15   C18   A    
C6    C8    A    
N1    Zn1   S    
O3    Zn2   S    
C15   H7    S    
C16   H8    S    
C5    H4    S    
C11   C13   A    
C7    I2    S    
O6    Zn2   S    
C5    C13   A    
C21   N1    A    
O5    Zn1   S    
C4    C24   S    
C2    C3    S    
C12   O4    A    
C3    C10   A    
C10   C13   A    
C2    O6    A    
C20   I3    S    
C9    C11   A    
C17   H9    S    
O2    Zn2   S    
C4    C7    A    
C22   H10   S    
C24   O5    A    
C10   H1    S    
O1    Zn1   S    
O8    Zn1   S    
C17   C19   A    
C20   C22   A    
O7    Zn2   S    
C5    C7    A    
C21   C23   A    
C20   N2    A    
C14   C16   A    
C1    C19   S    
C22   N1    A    
C23   N2    A    
N2    Zn2   S    
C6    H5    S    
C9    H3    S    
C16   C18   A    
C3    C8    A    
C23   H2    S    
C12   C18   S    
C6    C11   A    
C15   C17   A    
C12   O2    A    
C2    O8    A    
C4    C9    A    
C14   H6    S    
C24   O7    A    
C14   C19   A    
C1    O3    A    
C21   I4    S    
C1    O1    A    
C8    I1    S    
