data_mof_unit_16709.cif
_audit_creation_date              2013-03-05T15:44:37-0500
_audit_creation_method            fapswitch 2.2
_symmetry_space_group_name_H-M    P1
_symmetry_Int_Tables_number       1
_space_group_crystal_system       triclinic
_cell_length_a                    19.228537
_cell_length_b                    11.130297
_cell_length_c                    18.510335
_cell_angle_alpha                 90.337769
_cell_angle_beta                  90.158567
_cell_angle_gamma                 89.87325
_cell_volume                      3961.47589135

loop_
_atom_site_label
_atom_site_type_symbol
_atom_site_description
_atom_site_fract_x
_atom_site_fract_y
_atom_site_fract_z
_atom_type_partial_charge
O1    O     O_R   0.787540 0.042690 0.170470 -0.457991
O2    O     O_R   0.212460 0.042690 0.829530 -0.419472
O3    O     O_R   0.287540 0.542690 0.170470 -0.458006
O4    O     O_R   0.712460 0.542690 0.829530 -0.419619
O5    O     O_R   0.765660 0.292160 0.175050 -0.466918
O6    O     O_R   0.234340 0.292160 0.824950 -0.445474
O7    O     O_R   0.265660 0.792160 0.175050 -0.466896
O8    O     O_R   0.734340 0.792160 0.824950 -0.445468
C1    C     C_R   0.731288 0.380882 0.148249 0.622986
C2    C     C_R   0.266873 0.384827 0.849588 0.605749
C3    C     C_R   0.231286 0.880876 0.148247 0.622974
C4    C     C_R   0.766873 0.884828 0.849588 0.605780
O9    O     O_R   0.670190 0.408980 0.168550 -0.464705
O10   O     O_R   0.329810 0.408980 0.831450 -0.484989
O11   O     O_R   0.170190 0.908980 0.168550 -0.464755
O12   O     O_R   0.829810 0.908980 0.831450 -0.484965
O13   O     O_R   0.556580 0.251450 0.175160 -0.526311
O14   O     O_R   0.443420 0.251450 0.824840 -0.520467
O15   O     O_R   0.056580 0.751450 0.175160 -0.526346
O16   O     O_R   0.943420 0.751450 0.824840 -0.520478
C5    C     C_R   0.535070 0.155584 0.144734 0.564743
C6    C     C_R   0.470669 0.156311 0.850633 0.526850
C7    C     C_R   0.035079 0.655584 0.144730 0.564743
C8    C     C_R   0.970670 0.656312 0.850632 0.526824
O17   O     O_R   0.545920 0.049510 0.170320 -0.479295
O18   O     O_R   0.454080 0.049510 0.829680 -0.507652
O19   O     O_R   0.045920 0.549510 0.170320 -0.479272
O20   O     O_R   0.954080 0.549510 0.829680 -0.507669
O21   O     O_R   0.681390 0.957840 0.176710 -0.524373
O22   O     O_R   0.318610 0.957840 0.823290 -0.487212
O23   O     O_R   0.181390 0.457840 0.176710 -0.524375
O24   O     O_R   0.818610 0.457840 0.823290 -0.487100
C9    C     C_R   0.727566 0.018297 0.139248 0.551215
C10   C     C_R   0.272580 0.018760 0.860308 0.577190
C11   C     C_R   0.227567 0.518293 0.139247 0.551210
C12   C     C_R   0.772584 0.518771 0.860307 0.577324
O25   O     O_R   0.787500 0.044280 0.330990 -0.493916
O26   O     O_R   0.212500 0.044280 0.669010 -0.483925
O27   O     O_R   0.287500 0.544280 0.330990 -0.493917
O28   O     O_R   0.712500 0.544280 0.669010 -0.483942
O29   O     O_R   0.765610 0.293630 0.323860 -0.414825
O30   O     O_R   0.234390 0.293630 0.676140 -0.422550
O31   O     O_R   0.265610 0.793630 0.323860 -0.414822
O32   O     O_R   0.734390 0.793630 0.676140 -0.422551
C13   C     C_R   0.712242 0.330984 0.360311 0.560899
C14   C     C_R   0.287668 0.331748 0.639476 0.555497
C15   C     C_R   0.212242 0.830984 0.360311 0.560902
C16   C     C_R   0.787668 0.831748 0.639476 0.555499
O33   O     O_R   0.670140 0.410570 0.329080 -0.439308
O34   O     O_R   0.329860 0.410570 0.670920 -0.444732
O35   O     O_R   0.170140 0.910570 0.329080 -0.439301
O36   O     O_R   0.829860 0.910570 0.670920 -0.444726
O37   O     O_R   0.556540 0.252920 0.323970 -0.533761
O38   O     O_R   0.443460 0.252920 0.676030 -0.534891
O39   O     O_R   0.056540 0.752920 0.323970 -0.533751
O40   O     O_R   0.943460 0.752920 0.676030 -0.534884
C17   C     C_R   0.530491 0.158126 0.352340 0.559279
C18   C     C_R   0.468609 0.157066 0.646845 0.560279
C19   C     C_R   0.030491 0.658126 0.352340 0.559285
C20   C     C_R   0.968609 0.657066 0.646845 0.560280
O41   O     O_R   0.545870 0.051100 0.330840 -0.429391
O42   O     O_R   0.454130 0.051100 0.669160 -0.425434
O43   O     O_R   0.045870 0.551100 0.330840 -0.429390
O44   O     O_R   0.954130 0.551100 0.669160 -0.425439
O45   O     O_R   0.681340 0.959300 0.325510 -0.456199
O46   O     O_R   0.318660 0.959300 0.674490 -0.464513
O47   O     O_R   0.181340 0.459300 0.325510 -0.456199
O48   O     O_R   0.818660 0.459300 0.674490 -0.464505
C21   C     C_R   0.744147 0.963987 0.350411 0.560294
C22   C     C_R   0.256010 0.963277 0.649614 0.558055
C23   C     C_R   0.244147 0.463987 0.350411 0.560293
C24   C     C_R   0.756010 0.463277 0.649614 0.558079
Cr1   Cr    Cr6+3 0.772000 0.169640 0.250110 1.164362
Cr2   Cr    Cr6+3 0.228000 0.169640 0.749890 1.203456
Cr3   Cr    Cr6+3 0.272000 0.669640 0.250110 1.164360
Cr4   Cr    Cr6+3 0.728000 0.669640 0.749890 1.203411
Cr5   Cr    Cr6+3 0.614960 0.323350 0.249260 1.108154
Cr6   Cr    Cr6+3 0.385040 0.323350 0.750740 1.081899
Cr7   Cr    Cr6+3 0.114960 0.823350 0.249260 1.108133
Cr8   Cr    Cr6+3 0.885040 0.823350 0.750740 1.081904
Cr9   Cr    Cr6+3 0.616670 0.010620 0.250840 1.143101
Cr10  Cr    Cr6+3 0.383330 0.010620 0.749160 1.136693
Cr11  Cr    Cr6+3 0.116670 0.510620 0.250840 1.143093
Cr12  Cr    Cr6+3 0.883330 0.510620 0.749160 1.136703
O49   O     O_3   0.667880 0.167870 0.250070 -0.363937
O50   O     O_3   0.332120 0.167870 0.749930 -0.364061
O51   O     O_3   0.167880 0.667870 0.250070 -0.363941
O52   O     O_3   0.832120 0.667870 0.749930 -0.364076
H1    H     H_    0.543138 0.979852 0.051336 0.181850
H2    H     H_    0.524217 0.978445 0.926578 0.201133
H3    H     H_    0.043159 0.479857 0.051328 0.181844
H4    H     H_    0.024235 0.478454 0.926569 0.201125
C25   C     C_R   0.507954 0.169647 0.918343 -0.001188
C26   C     C_R   0.517722 0.166733 0.068127 0.042617
C27   C     C_R   0.007966 0.669655 0.918338 -0.001219
C28   C     C_R   0.017750 0.666739 0.068118 0.042570
C29   C     C_R   0.510291 0.280815 0.956109 0.026507
C30   C     C_R   0.510309 0.279188 0.032114 0.024451
C31   C     C_R   0.010310 0.780827 0.956102 0.026385
C32   C     C_R   0.010343 0.779197 0.032107 0.024281
C33   C     C_R   0.529428 0.063633 0.027045 -0.094307
C34   C     C_R   0.523388 0.063989 0.954002 -0.134285
C35   C     C_R   0.029454 0.563640 0.027036 -0.094304
C36   C     C_R   0.023408 0.563998 0.953993 -0.134216
C37   C     C_R   0.513240 0.392278 0.920155 -0.096413
C38   C     C_R   0.507039 0.389744 0.069038 -0.050891
C39   C     C_R   0.013230 0.892296 0.920150 -0.096320
C40   C     C_R   0.007061 0.889752 0.069032 -0.051042
C41   C     C_R   0.012645 0.002159 0.957645 0.028368
C42   C     C_R   0.014908 0.000336 0.034162 0.059674
C43   C     C_R   0.512655 0.502142 0.957647 0.028322
C44   C     C_R   0.514904 0.500324 0.034165 0.059751
H5    H     H_    0.519305 0.395027 0.862209 0.188205
H6    H     H_    0.494127 0.393129 0.125475 0.200216
H7    H     H_    0.019279 0.895054 0.862203 0.188379
H8    H     H_    0.994147 0.893134 0.125469 0.200277
C45   C     C_R   0.677365 0.928992 0.024643 -0.112547
C46   C     C_R   0.330343 0.980032 0.981673 -0.083403
C47   C     C_R   0.177370 0.428967 0.024646 -0.112542
C48   C     C_R   0.830354 0.480053 0.981677 -0.083420
H9    H     H_    0.640079 0.882288 0.056683 0.153503
H10   H     H_    0.381505 0.994435 0.959362 0.153564
H11   H     H_    0.140089 0.382255 0.056688 0.153525
H12   H     H_    0.881516 0.494452 0.959365 0.153564
C49   C     C_R   0.681052 0.904503 0.950349 0.200845
C50   C     C_R   0.322056 0.948666 0.055622 0.239491
C51   C     C_R   0.181054 0.404483 0.950351 0.200857
C52   C     C_R   0.822067 0.448685 0.055628 0.239441
C53   C     C_R   0.735553 0.953951 0.909941 -0.006990
C54   C     C_R   0.253735 0.939059 0.082076 0.001956
C55   C     C_R   0.235549 0.453944 0.909941 -0.006945
C56   C     C_R   0.753745 0.439087 0.082084 0.001885
C57   C     C_R   0.772008 0.051455 0.939236 -0.018911
C58   C     C_R   0.202534 0.996280 0.042570 -0.001904
C59   C     C_R   0.271997 0.551454 0.939235 -0.018735
C60   C     C_R   0.702548 0.496312 0.042575 -0.001766
C61   C     C_R   0.775698 0.060820 0.014682 0.042129
C62   C     C_R   0.205570 0.967913 0.969178 0.058568
C63   C     C_R   0.275692 0.560820 0.014680 0.042283
C64   C     C_R   0.705585 0.467916 0.969186 0.058499
C65   C     C_R   0.727381 0.000907 0.058769 -0.033924
C66   C     C_R   0.270009 0.989692 0.937321 -0.006045
C67   C     C_R   0.227381 0.500896 0.058769 -0.033904
C68   C     C_R   0.770020 0.489715 0.937325 -0.005971
C69   C     C_R   0.487379 0.062795 0.460528 0.195006
C70   C     C_R   0.502969 0.058549 0.533750 0.175497
C71   C     C_R   0.987381 0.562795 0.460529 0.195009
C72   C     C_R   0.002970 0.558549 0.533751 0.175497
C73   C     C_R   0.497755 0.165595 0.574002 -0.015246
C74   C     C_R   0.498469 0.169508 0.423586 -0.009624
C75   C     C_R   0.997756 0.665595 0.574002 -0.015246
C76   C     C_R   0.998469 0.669508 0.423586 -0.009627
C77   C     C_R   0.497985 0.276157 0.537712 -0.202715
C78   C     C_R   0.501439 0.277919 0.462440 -0.202121
C79   C     C_R   0.997985 0.776157 0.537712 -0.202714
C80   C     C_R   0.001439 0.777919 0.462440 -0.202121
H13   H     H_    0.495561 0.360195 0.567336 0.169968
H14   H     H_    0.506275 0.362831 0.434756 0.170539
H15   H     H_    0.995562 0.860195 0.567336 0.169971
H16   H     H_    0.006275 0.862831 0.434756 0.170540
C81   C     C_R   0.826588 0.909414 0.447569 -0.120045
C82   C     C_R   0.173353 0.900358 0.553925 -0.118312
C83   C     C_R   0.326588 0.409413 0.447569 -0.120046
C84   C     C_R   0.673353 0.400358 0.553924 -0.118316
H17   H     H_    0.869324 0.950994 0.419243 0.207339
H18   H     H_    0.130082 0.940130 0.582861 0.201556
H19   H     H_    0.369324 0.450993 0.419243 0.207338
H20   H     H_    0.630082 0.440130 0.582861 0.201550
C85   C     C_R   0.832450 0.889289 0.521017 -0.135320
C86   C     C_R   0.167396 0.881021 0.480163 -0.138179
C87   C     C_R   0.332450 0.389288 0.521017 -0.135321
C88   C     C_R   0.667396 0.381021 0.480162 -0.138178
H21   H     H_    0.879655 0.917502 0.547895 0.190924
H22   H     H_    0.119786 0.907836 0.453848 0.184268
H23   H     H_    0.379655 0.417501 0.547894 0.190923
H24   H     H_    0.619786 0.407836 0.453848 0.184268
C89   C     C_R   0.777109 0.840685 0.560152 -0.044882
C90   C     C_R   0.223497 0.837468 0.439728 -0.036399
C91   C     C_R   0.277109 0.340685 0.560152 -0.044883
C92   C     C_R   0.723496 0.337467 0.439728 -0.036396
C93   C     C_R   0.718917 0.792021 0.520415 0.185999
C94   C     C_R   0.283548 0.792075 0.478357 0.196420
C95   C     C_R   0.218917 0.292021 0.520415 0.185998
C96   C     C_R   0.783548 0.292074 0.478357 0.196423
C97   C     C_R   0.714964 0.813762 0.444982 0.197849
C98   C     C_R   0.288108 0.815759 0.553512 0.198851
C99   C     C_R   0.214963 0.313763 0.444982 0.197848
C100  C     C_R   0.788108 0.315759 0.553512 0.198855
C101  C     C_R   0.763375 0.889808 0.412970 -0.019220
C102  C     C_R   0.237708 0.886913 0.587185 -0.018697
C103  C     C_R   0.263375 0.389808 0.412970 -0.019220
C104  C     C_R   0.737708 0.386913 0.587185 -0.018692
N1    N     N_R   0.666667 0.716613 0.552736 0.106682
O53   O     O_R   0.641400 0.627922 0.515597 -0.307047
O54   O     O_R   0.630902 0.752521 0.608110 -0.185283
N2    N     N_R   0.338078 0.719723 0.445809 0.103175
O55   O     O_R   0.369343 0.638945 0.484393 -0.305615
O56   O     O_R   0.369766 0.752923 0.387593 -0.183161
N3    N     N_R   0.166667 0.216613 0.552736 0.106680
O57   O     O_R   0.141400 0.127922 0.515597 -0.307046
O58   O     O_R   0.130902 0.252520 0.608110 -0.185280
N4    N     N_R   0.838078 0.219722 0.445810 0.103175
O59   O     O_R   0.869344 0.138945 0.484393 -0.305615
O60   O     O_R   0.869766 0.252922 0.387593 -0.183159
N5    N     N_R   0.665290 0.753962 0.399307 0.120837
O61   O     O_R   0.599148 0.765253 0.410960 -0.178872
O62   O     O_R   0.686131 0.698850 0.341029 -0.274878
N6    N     N_R   0.342717 0.765681 0.596707 0.122804
O63   O     O_R   0.405980 0.804103 0.589997 -0.202642
O64   O     O_R   0.327632 0.692737 0.648969 -0.298700
N7    N     N_R   0.165289 0.253965 0.399307 0.120837
O65   O     O_R   0.099146 0.265259 0.410961 -0.178874
O66   O     O_R   0.186129 0.198851 0.341030 -0.274881
N8    N     N_R   0.842716 0.265680 0.596707 0.122802
O67   O     O_R   0.905979 0.304103 0.590000 -0.202645
O68   O     O_R   0.827630 0.192733 0.648967 -0.298688
C105  C     C_2   0.002334 0.113110 0.914220 0.668987
O69   O     O_2   0.019759 0.114568 0.850675 -0.453632
O70   O     O_R   0.970151 0.214282 0.944012 -0.578502
H25   H     H_    0.966739 0.283281 0.908664 0.368889
C106  C     C_2   0.022647 0.108715 0.081460 0.650401
O71   O     O_2   0.010163 0.101883 0.146174 -0.486306
O72   O     O_R   0.047479 0.216689 0.054585 -0.611462
H26   H     H_    0.050207 0.280074 0.093924 0.354887
C107  C     C_2   0.502355 0.613091 0.914218 0.668974
O73   O     O_2   0.519801 0.614550 0.850680 -0.453666
O74   O     O_R   0.470154 0.714254 0.943997 -0.578502
H27   H     H_    0.466746 0.783250 0.908646 0.368901
C108  C     C_2   0.522652 0.608705 0.081458 0.650368
O75   O     O_2   0.510173 0.601882 0.146173 -0.486312
O76   O     O_R   0.547482 0.716675 0.054575 -0.611478
H28   H     H_    0.550210 0.780067 0.093910 0.354889
N9    N     N_R   0.632663 0.823528 0.917369 0.088970
O77   O     O_R   0.602759 0.852866 0.856784 -0.311927
O78   O     O_R   0.634018 0.711343 0.935665 -0.287375
N10   N     N_R   0.380262 0.940068 0.103424 0.091104
O79   O     O_R   0.375232 0.973385 0.170719 -0.283469
O80   O     O_R   0.438016 0.894157 0.080491 -0.343568
N11   N     N_R   0.132664 0.323509 0.917370 0.088967
O81   O     O_R   0.102766 0.352841 0.856781 -0.311898
O82   O     O_R   0.133998 0.211330 0.935683 -0.287369
N12   N     N_R   0.880273 0.440073 0.103428 0.091118
O83   O     O_R   0.875243 0.473360 0.170728 -0.283452
O84   O     O_R   0.938029 0.394181 0.080486 -0.343570
C109  C     C_2   0.803141 0.144415 0.891651 0.610275
O85   O     O_2   0.833596 0.230083 0.918050 -0.477465
O86   O     O_R   0.792127 0.140431 0.816970 -0.632595
H29   H     H_    0.813921 0.211082 0.791298 0.381120
C110  C     C_2   0.200785 0.123137 0.066185 0.607236
O87   O     O_2   0.236030 0.197539 0.034834 -0.521230
O88   O     O_R   0.168920 0.152596 0.131652 -0.625428
H30   H     H_    0.177801 0.238449 0.147050 0.359457
C111  C     C_2   0.303111 0.644425 0.891645 0.610240
O89   O     O_2   0.333591 0.730072 0.918035 -0.477511
O90   O     O_R   0.292055 0.640466 0.816970 -0.632707
H31   H     H_    0.313838 0.711122 0.791293 0.381084
C112  C     C_2   0.700799 0.623171 0.066182 0.607238
O91   O     O_2   0.736042 0.697570 0.034827 -0.521227
O92   O     O_R   0.668934 0.652635 0.131648 -0.625437
H32   H     H_    0.677815 0.738487 0.147043 0.359465
C113  C     C_2   0.843005 0.085298 0.045974 0.631432
O93   O     O_2   0.878543 0.999603 0.063113 -0.530452
O94   O     O_R   0.859372 0.199598 0.069660 -0.601935
H33   H     H_    0.895641 0.197310 0.109245 0.390755
C114  C     C_2   0.173726 0.852345 0.945885 0.568924
O95   O     O_2   0.159470 0.776197 0.990846 -0.570590
O96   O     O_R   0.164289 0.826565 0.872469 -0.650966
H34   H     H_    0.145281 0.742848 0.863665 0.341592
C115  C     C_2   0.343000 0.585292 0.045967 0.631426
O97   O     O_2   0.378538 0.499594 0.063097 -0.530523
O98   O     O_R   0.359368 0.699585 0.069664 -0.601904
H35   H     H_    0.395639 0.697286 0.109245 0.390746
C116  C     C_2   0.673764 0.352309 0.945926 0.568926
O99   O     O_2   0.659292 0.276379 0.990928 -0.570655
O100  O     O_R   0.664617 0.326213 0.872525 -0.650864
H36   H     H_    0.645529 0.242540 0.863768 0.341622
N13   N     N_R   0.449193 0.968791 0.425944 0.122600
O101  O     O_R   0.386921 0.993154 0.402473 -0.297196
O102  O     O_R   0.481968 0.877023 0.398960 -0.152371
N14   N     N_R   0.530475 0.951319 0.565985 0.120068
O103  O     O_R   0.571411 0.960988 0.621864 -0.266405
O104  O     O_R   0.527604 0.849044 0.532004 -0.151300
N15   N     N_R   0.949192 0.468792 0.425946 0.122604
O105  O     O_R   0.886918 0.493151 0.402486 -0.297204
O106  O     O_R   0.981966 0.377026 0.398957 -0.152372
N16   N     N_R   0.030475 0.451319 0.565986 0.120067
O107  O     O_R   0.071411 0.460986 0.621865 -0.266404
O108  O     O_R   0.027603 0.349044 0.532004 -0.151299

loop_
_geom_bond_atom_site_label_1
_geom_bond_atom_site_label_2
_geom_bond_distance
_ccdc_geom_bond_type
C18   O42   1.283362 A    
Cr11  O51   2.010264 S    
O4    C12   1.314825 A    
C57   C61   1.401409 A    
C33   C34   1.356748 A    
N6    O64   1.300388 A    
O39   C19   1.284592 A    
N15   O106  1.297240 A    
C47   C67   1.399552 A    
O29   C13   1.296074 A    
O76   H28   1.012229 S    
O15   C7    1.272911 A    
O100  H36   1.013766 S    
C48   C68   1.423620 A    
C72   C75   1.405045 A    
C82   C102  1.388805 A    
C60   C64   1.394284 A    
C73   C77   1.405489 A    
O26   C22   1.279145 A    
C29   C30   1.407115 A    
C24   C104  1.472808 S    
O1    C9    1.316609 A    
O94   H33   1.010540 S    
C38   C44   1.401823 A    
C19   C76   1.461701 S    
N10   O79   1.301369 A    
O7    C3    1.288067 A    
C63   C115  1.442286 S    
C100  N8    1.431969 S    
C110  O87   1.221536 D    
C108  O75   1.225178 D    
N4    O60   1.295524 A    
C28   C32   1.428242 A    
C38   H6    1.074872 S    
C76   C80   1.402268 A    
C51   N11   1.429966 S    
O24   C12   1.306867 A    
C37   H5    1.079848 S    
H1    C33   1.069783 S    
C98   N6    1.431970 S    
N11   O81   1.301854 A    
N14   O104  1.298529 A    
C78   H14   1.082034 S    
C15   C90   1.486639 S    
O25   C21   1.277324 A    
C94   C98   1.416888 A    
N16   O107  1.302152 A    
C23   C103  1.472024 S    
C27   C31   1.418332 A    
C56   C60   1.381450 A    
O47   C23   1.292516 A    
O20   Cr12  2.059934 S    
C5    C26   1.461757 S    
C26   C30   1.428237 A    
O98   H35   1.010543 S    
O21   C9    1.316651 A    
C35   C36   1.356754 A    
O8    Cr4   1.944827 S    
O23   Cr11  1.942520 S    
C7    C28   1.461750 S    
C112  O91   1.221536 D    
O30   C14   1.303559 A    
O32   Cr4   1.951183 S    
C89   C93   1.442172 A    
C1    O9    1.272272 A    
C2    C55   1.481275 S    
H2    C34   1.076460 S    
C45   H9    1.069402 S    
C108  O76   1.389475 S    
C71   C72   1.388356 A    
C116  O100  1.398412 S    
C82   H18   1.083137 S    
C3    O11   1.272261 A    
O6    C2    1.287961 A    
O11   Cr7   2.073210 S    
O74   H27   1.013746 S    
C26   C33   1.391132 A    
O33   Cr5   2.056736 S    
N6    O63   1.296859 A    
N1    O54   1.296583 A    
N12   O84   1.293117 A    
O6    Cr2   1.944827 S    
C111  O89   1.219123 D    
C7    O19   1.291010 A    
C50   N10   1.428206 S    
N9    O77   1.301853 A    
Cr4   O52   2.002127 S    
C99   C103  1.395179 A    
C69   C74   1.391155 A    
O2    Cr2   2.070712 S    
C18   C73   1.465290 S    
O14   Cr6   1.944824 S    
O92   H32   1.010306 S    
C81   C85   1.383443 A    
C88   C92   1.398832 A    
C64   C68   1.395994 A    
C37   C43   1.402503 A    
Cr5   O49   2.005713 S    
N3    O57   1.294363 A    
O18   Cr10  2.059934 S    
C72   N16   1.436680 S    
C115  O97   1.215236 D    
C77   H13   1.082440 S    
C39   C41   1.402513 A    
C87   C91   1.400426 A    
C54   C58   1.381446 A    
C63   C67   1.409668 A    
C70   N14   1.436682 S    
C52   C56   1.407800 A    
C85   C89   1.400427 A    
C16   C89   1.485627 S    
C40   C42   1.401809 A    
Cr9   O49   2.010264 S    
C69   C70   1.388357 A    
C79   C80   1.395324 A    
C91   C95   1.442170 A    
N5    O62   1.301551 A    
O31   Cr3   1.939381 S    
C4    O12   1.286185 A    
O24   Cr12  1.949067 S    
O16   Cr8   1.944824 S    
O9    Cr5   2.073210 S    
C32   C40   1.405442 A    
C62   C114  1.486905 S    
C110  O88   1.396412 S    
N4    O59   1.297171 A    
O22   C10   1.306856 A    
C79   H15   1.082442 S    
O48   Cr12  1.940953 S    
C97   N5    1.435909 S    
C80   H16   1.082035 S    
C96   N4    1.450833 S    
N14   O103  1.302151 A    
C6    O18   1.288714 A    
O72   H26   1.012232 S    
C81   C101  1.389396 A    
C5    O17   1.291006 A    
C4    C53   1.481281 S    
C8    C27   1.449241 S    
C21   C101  1.472023 S    
O70   H25   1.013748 S    
C113  O94   1.379929 S    
C115  O98   1.379920 S    
C93   C97   1.420307 A    
N8    O67   1.296859 A    
O7    Cr3   1.955902 S    
C6    C25   1.449223 S    
O26   Cr2   2.061981 S    
C9    C65   1.501082 S    
C105  O69   1.224134 D    
N5    O61   1.296284 A    
C87   H23   1.080237 S    
C95   N3    1.443876 S    
C44   C108  1.493781 S    
O28   Cr4   2.061981 S    
C83   C103  1.389396 A    
O43   Cr11  2.061500 S    
O48   C24   1.289242 A    
O12   Cr8   2.062924 S    
C20   C75   1.465291 S    
C43   C107  1.490023 S    
C64   C116  1.486932 S    
C98   C102  1.396082 A    
C83   H19   1.082257 S    
N7    O65   1.296284 A    
O5    C1    1.288084 A    
C106  O71   1.225181 D    
C95   C99   1.420307 A    
O46   Cr10  1.940953 S    
C70   C73   1.405046 A    
O39   Cr7   1.952970 S    
C99   N7    1.435908 S    
O45   Cr9   1.944128 S    
C31   C32   1.407100 A    
C82   C86   1.385433 A    
O3    C11   1.316612 A    
O8    C4    1.287977 A    
Cr1   O49   2.002214 S    
C17   C74   1.461702 S    
C52   N12   1.428203 S    
O13   Cr5   1.940209 S    
C116  O99   1.223182 D    
O88   H30   1.010314 S    
C84   C104  1.388805 A    
N11   O82   1.295899 A    
C90   C94   1.448099 A    
O47   Cr11  1.944128 S    
C59   C111  1.490346 S    
O15   Cr7   1.940209 S    
O32   C16   1.303559 A    
N9    O78   1.295870 A    
O35   Cr7   2.056736 S    
C39   H7    1.079846 S    
C71   N15   1.427088 S    
Cr7   O51   2.005713 S    
O30   Cr2   1.951183 S    
C97   C101  1.395181 A    
C53   C57   1.399112 A    
C84   H20   1.083138 S    
N2    O56   1.295524 A    
N7    O66   1.301552 A    
C86   C90   1.398833 A    
O21   Cr9   1.942520 S    
N1    O53   1.294363 A    
N15   O105  1.301169 A    
O27   Cr3   2.073004 S    
C61   C65   1.409674 A    
C109  O86   1.398386 S    
C49   C53   1.404390 A    
C2    O10   1.286198 A    
O37   Cr5   1.952970 S    
O38   C18   1.286975 A    
N13   O101  1.301180 A    
O23   C11   1.316642 A    
C19   O43   1.287780 A    
C13   C92   1.486637 S    
C94   N2    1.450832 S    
O90   H31   1.013293 S    
C3    C54   1.455848 S    
C25   C29   1.418297 A    
O34   Cr6   2.062735 S    
C92   C96   1.448101 A    
C83   C87   1.383445 A    
O3    Cr3   2.057911 S    
C22   C102  1.472808 S    
C111  O90   1.398379 S    
C114  O95   1.223396 D    
C1    C56   1.455902 S    
Cr3   O51   2.002214 S    
O45   C21   1.292518 A    
C84   C88   1.385432 A    
O25   Cr1   2.073004 S    
C10   C66   1.464653 S    
O37   C17   1.284592 A    
O22   Cr10  1.949067 S    
O28   C24   1.279144 A    
C43   C44   1.417165 A    
C107  O73   1.224123 D    
O14   C6    1.275115 A    
O36   Cr8   2.062735 S    
C14   C91   1.485627 S    
O5    Cr1   1.955902 S    
C69   N13   1.427092 S    
C8    O20   1.288733 A    
H3    C35   1.069784 S    
N2    O55   1.297171 A    
C46   C66   1.423605 A    
O17   Cr9   2.062359 S    
O40   Cr8   1.944413 S    
C25   C34   1.383195 A    
C58   C62   1.394260 A    
C15   O35   1.332115 A    
O96   H34   1.013784 S    
C48   C52   1.424120 A    
C17   O41   1.287780 A    
C86   H22   1.078165 S    
C47   H11   1.069400 S    
Cr2   O50   2.002127 S    
C31   C39   1.412649 A    
C100  C104  1.396081 A    
C14   O34   1.327078 A    
C55   C59   1.399091 A    
C75   C79   1.405489 A    
C30   C38   1.405434 A    
O44   Cr12  2.066625 S    
C20   O44   1.283363 A    
C59   C63   1.401406 A    
O1    Cr1   2.057911 S    
C40   H8    1.074861 S    
C51   C55   1.404382 A    
N13   O102  1.297242 A    
C71   C76   1.391155 A    
C12   C68   1.464692 S    
C29   C37   1.412621 A    
C106  O72   1.389473 S    
C114  O96   1.398690 S    
Cr10  O50   2.006321 S    
C41   C42   1.417166 A    
C27   C36   1.383201 A    
N16   O108  1.298531 A    
C85   H21   1.080237 S    
O2    C10   1.314792 A    
C113  O93   1.215246 D    
Cr12  O52   2.006321 S    
O31   C15   1.296075 A    
C46   H10   1.080649 S    
N12   O83   1.301369 A    
C62   C66   1.396013 A    
C107  O74   1.395180 S    
N10   O80   1.293118 A    
C13   O33   1.332117 A    
N8    O68   1.300387 A    
O10   Cr6   2.062924 S    
O42   Cr10  2.066625 S    
C105  O70   1.395192 S    
O13   C5    1.272930 A    
O4    Cr4   2.070712 S    
C41   C105  1.490035 S    
C48   H12   1.080648 S    
H4    C36   1.076458 S    
O29   Cr1   1.939381 S    
O19   Cr11  2.062359 S    
C96   C100  1.416887 A    
C16   O36   1.327078 A    
O40   C20   1.286973 A    
O46   C22   1.289240 A    
Cr8   O52   2.009441 S    
Cr6   O50   2.009441 S    
C74   C78   1.402268 A    
C28   C35   1.391121 A    
C11   C67   1.501081 S    
C60   C112  1.475915 S    
N3    O58   1.296585 A    
C61   C113  1.442306 S    
C50   C54   1.407778 A    
C45   C65   1.399551 A    
O41   Cr9   2.061500 S    
C93   N1    1.443877 S    
C46   C50   1.424080 A    
C58   C110  1.475941 S    
C112  O92   1.396404 S    
C77   C78   1.395324 A    
C109  O85   1.219125 D    
C42   C106  1.493790 S    
C45   C49   1.402342 A    
C49   N9    1.429960 S    
O16   C8    1.275106 A    
C81   H17   1.082256 S    
C88   H24   1.078166 S    
O86   H29   1.013296 S    
C57   C109  1.490365 S    
O38   Cr6   1.944413 S    
O27   C23   1.277326 A    
C47   C51   1.402345 A    
