data_mof_unit_31316.cif
_audit_creation_date              2013-03-05T15:54:01-0500
_audit_creation_method            fapswitch 2.2
_symmetry_space_group_name_H-M    P1
_symmetry_Int_Tables_number       1
_space_group_crystal_system       triclinic
_cell_length_a                    15.757785
_cell_length_b                    10.567734
_cell_length_c                    9.933745
_cell_angle_alpha                 92.121564
_cell_angle_beta                  90.030638
_cell_angle_gamma                 92.837811
_cell_volume                      1651.04200489

loop_
_atom_site_label
_atom_site_type_symbol
_atom_site_description
_atom_site_fract_x
_atom_site_fract_y
_atom_site_fract_z
_atom_type_partial_charge
O1    O     O_R   0.500000 0.316780 0.614690 -0.652961
O2    O     O_R   0.499990 0.316750 0.385360 -0.566927
C1    C     C_R   0.514530 0.263449 0.498647 0.920226
O3    O     O_R   0.377150 0.500020 0.614720 -0.623317
O4    O     O_R   0.377140 0.499990 0.385380 -0.593744
C2    C     C_R   0.338434 0.501580 0.500357 0.953925
Zn1   Zn    Zn3+2 0.500010 0.500020 0.653130 0.981090
Zn2   Zn    Zn3+2 0.499990 0.499980 0.346870 1.032039
O5    O     O_R   0.500010 0.683250 0.614640 -0.616693
O6    O     O_R   0.500000 0.683220 0.385310 -0.616951
O7    O     O_R   0.622860 0.500010 0.614620 -0.620611
O8    O     O_R   0.622850 0.499980 0.385280 -0.620528
C3    C     C_R   0.510236 0.740671 0.502347 0.882255
C4    C     C_R   0.661495 0.501819 0.500301 0.852322
C5    C     C_3   0.047739 0.456193 0.649345 0.038772
C6    C     C_3   0.045533 0.443161 0.396839 -0.414036
C7    C     C_3   0.948419 0.447699 0.394792 -0.455813
H1    H     H_    0.061771 0.354684 0.631765 0.165292
H2    H     H_    0.918365 0.350847 0.383639 0.277224
H3    H     H_    0.929325 0.494056 0.301215 0.226419
C8    C     C_1   0.750239 0.510036 0.503099 -0.044813
C9    C     C_3   0.083460 0.521939 0.519829 -0.073715
C10   C     C_3   0.947284 0.463500 0.656729 0.377727
C11   C     C_3   0.916841 0.523679 0.520907 -0.078032
C12   C     C_3   0.955576 0.663638 0.505271 0.027349
C13   C     C_3   0.055265 0.660878 0.505519 0.071863
C14   C     C_1   0.825369 0.517811 0.510687 0.108660
C15   C     C_1   0.174877 0.515861 0.509909 0.117943
C16   C     C_1   0.249792 0.508962 0.502921 -0.040291
H4    H     H_    0.937295 0.691858 0.402491 0.135778
C17   C     C_R   0.611197 0.152706 0.720738 -0.259412
C18   C     C_R   0.637329 0.097549 0.838510 0.277259
C19   C     C_R   0.631077 0.964813 0.845484 0.286256
C20   C     C_R   0.597785 0.890306 0.736230 -0.259686
H5    H     H_    0.601757 0.789356 0.742728 0.192365
C21   C     C_R   0.567047 0.946022 0.619411 0.072184
C22   C     C_R   0.572797 0.079207 0.613470 0.052760
C23   C     C_R   0.542340 0.135033 0.496704 -0.129169
C24   C     C_R   0.533769 0.063695 0.377391 -0.071235
C25   C     C_R   0.526743 0.934743 0.381342 -0.124965
C26   C     C_R   0.533745 0.875287 0.504407 -0.107724
C27   C     C_R   0.362545 0.371145 0.129295 0.245409
C28   C     C_R   0.286920 0.346979 0.054000 0.266479
C29   C     C_R   0.292913 0.338315 0.914340 -0.209832
C30   C     C_R   0.369001 0.371002 0.852675 -0.169762
H6    H     H_    0.375940 0.339262 0.750197 0.226181
C31   C     C_R   0.434035 0.438682 0.924426 0.146630
C32   C     C_R   0.432404 0.439495 0.068663 0.000487
N1    N     N_R   0.499210 0.498800 0.142780 -0.129866
C33   C     C_R   0.564984 0.554846 0.073804 0.037232
H7    H     H_    0.617891 0.600455 0.879413 0.178343
C34   C     C_R   0.564787 0.555288 0.930921 -0.003964
N2    N     N_R   0.499180 0.498720 0.857170 -0.130226
N3    N     N_R   0.910435 0.331851 0.669448 0.197311
O9    O     O_R   0.873407 0.298000 0.780555 -0.224445
O10   O     O_R   0.927011 0.242222 0.581430 -0.361595
N4    N     N_R   0.092330 0.489356 0.777308 0.248411
O11   O     O_R   0.161270 0.562359 0.782788 -0.326314
O12   O     O_R   0.072006 0.424841 0.882657 -0.281052
N5    N     N_R   0.916815 0.541471 0.773334 0.254363
O13   O     O_R   0.966009 0.621832 0.842638 -0.233194
O14   O     O_R   0.836349 0.535676 0.804036 -0.287031
H8    H     H_    0.526625 0.107102 0.282263 0.245710
H9    H     H_    0.623284 0.253618 0.712973 0.217123
N6    N     N_R   0.668666 0.177379 0.950308 0.243460
O15   O     O_R   0.701104 0.290795 0.930126 -0.322151
O16   O     O_R   0.654914 0.144241 0.073638 -0.331600
N7    N     N_R   0.662701 0.903756 0.960010 0.232722
O17   O     O_R   0.741644 0.923090 0.997093 -0.249832
O18   O     O_R   0.611295 0.834065 0.031846 -0.433953
H10   H     H_    0.510989 0.882795 0.287862 0.215620
H11   H     H_    0.618151 0.599619 0.129183 0.184372
N8    N     N_R   0.380903 0.269566 0.213482 0.236033
O19   O     O_R   0.337681 0.251758 0.323323 -0.338274
O20   O     O_R   0.414142 0.171865 0.154787 -0.403783
N9    N     N_R   0.210110 0.301508 0.117989 0.262473
O21   O     O_R   0.193845 0.338137 0.241049 -0.392741
O22   O     O_R   0.153009 0.231506 0.051189 -0.269473
H12   H     H_    0.240544 0.298244 0.853402 0.229774
H13   H     H_    0.071133 0.480937 0.301017 0.255775
H14   H     H_    0.062973 0.342503 0.400039 0.276026
N10   N     N_R   0.099562 0.753393 0.598850 0.273458
O23   O     O_R   0.078563 0.765360 0.724898 -0.200227
O24   O     O_R   0.158516 0.830689 0.552682 -0.320900
H15   H     H_    0.075531 0.688406 0.402472 0.139671
N11   N     N_R   0.922115 0.763239 0.595839 0.278552
O25   O     O_R   0.848833 0.746726 0.654392 -0.310087
O26   O     O_R   0.950874 0.879663 0.582118 -0.240398

loop_
_geom_bond_atom_site_label_1
_geom_bond_atom_site_label_2
_geom_bond_distance
_ccdc_geom_bond_type
C5    H1    1.113457 S    
C25   H10   1.083429 S    
N8    O20   1.299845 A    
N8    O19   1.301213 A    
C11   C14   1.443017 S    
C3    C26   1.451579 S    
C30   H6    1.067345 S    
C29   C30   1.381141 A    
Zn1   O7    1.973485 S    
C15   C16   1.188249 T    
C4    C8    1.397007 S    
C21   C22   1.409319 A    
N9    O22   1.301656 A    
O4    C2    1.295037 A    
O7    C4    1.289118 A    
N11   O26   1.301904 A    
N4    O12   1.301594 A    
C12   H4    1.115829 S    
C7    H3    1.114731 S    
N5    O14   1.303296 A    
C20   H5    1.076053 S    
O5    C3    1.295809 A    
C6    H14   1.113326 S    
C33   H11   1.081378 S    
C5    C9    1.575781 S    
C31   C32   1.432775 A    
C1    C23   1.446035 S    
N7    O17   1.301411 A    
N6    O16   1.301940 A    
C33   C34   1.419550 A    
C10   C11   1.596244 S    
C31   N2    1.367590 A    
C5    C10   1.590233 S    
C8    C14   1.184829 T    
C13   N10   1.472168 S    
C9    C15   1.448381 S    
C5    N4    1.474466 S    
C21   C26   1.427080 A    
O3    Zn1   1.973044 S    
C30   C31   1.399528 A    
C10   N5    1.490059 S    
N3    O10   1.301259 A    
C7    C11   1.558065 S    
H7    C34   1.081131 S    
C11   C12   1.584930 S    
O3    C2    1.290239 A    
C24   C25   1.363765 A    
N11   O25   1.300205 A    
C6    C7    1.533572 S    
C12   C13   1.572603 S    
C17   C22   1.412923 A    
N5    O13   1.298862 A    
O1    C1    1.289894 A    
C28   C29   1.390553 A    
C22   C23   1.414894 A    
C17   C18   1.397059 A    
Zn2   O8    1.973042 S    
C19   C20   1.402945 A    
C27   C32   1.431953 A    
N9    O21   1.298089 A    
N7    O18   1.299332 A    
C25   C26   1.401792 A    
O8    C4    1.293506 A    
N10   O23   1.298529 A    
N10   O24   1.301393 A    
C27   C28   1.414056 A    
Zn1   N2    2.027482 S    
C34   N2    1.366919 A    
C10   N3    1.490563 S    
C28   N9    1.437278 S    
Zn1   O5    1.987551 S    
N3    O9    1.302247 A    
C32   N1    1.393827 A    
C27   N8    1.425605 S    
C6    C9    1.554842 S    
O1    Zn1   1.959796 S    
C17   H9    1.079559 S    
C29   H12   1.082882 S    
O2    Zn2   1.987553 S    
O6    C3    1.297743 A    
O4    Zn2   1.973485 S    
C24   H8    1.073864 S    
C18   C19   1.405574 A    
O2    C1    1.302167 A    
N4    O11   1.300815 A    
C23   C24   1.383803 A    
C13   H15   1.116978 S    
C12   N11   1.476703 S    
C7    H2    1.108012 S    
C20   C21   1.416385 A    
N6    O15   1.302012 A    
C2    C16   1.403031 S    
Zn2   O6    1.959796 S    
N1    C33   1.365485 A    
C9    C13   1.566332 S    
C6    H13   1.113890 S    
Zn2   N1    2.026982 S    
C19   N7    1.429873 S    
C18   N6    1.441428 S    
