data_mof_unit_18279.cif
_audit_creation_date              2012-10-26T20:00:15-0400
_audit_creation_method            fapswitch 2.2
_symmetry_space_group_name_H-M    P1
_symmetry_Int_Tables_number       1
_space_group_crystal_system       triclinic
_cell_length_a                    23.594658
_cell_length_b                    10.985923
_cell_length_c                    9.760668
_cell_angle_alpha                 89.910602
_cell_angle_beta                  91.133341
_cell_angle_gamma                 91.399971
_cell_volume                      2528.80244224

loop_
_atom_site_label
_atom_site_type_symbol
_atom_type_description
_atom_site_fract_x
_atom_site_fract_y
_atom_site_fract_z
_atom_type_partial_charge
C1    C     C_R   0.503256 0.265488 0.499611 0.557360
C2    C     C_R   0.122351 0.602755 0.523227 0.459072
C3    C     C_R   0.240363 0.575937 0.395937 0.186119
C4    C     C_R   0.391324 0.499907 0.498499 0.594609
C5    C     C_R   0.300323 0.579394 0.403231 0.107133
C6    C     C_R   0.328970 0.499554 0.493393 0.051414
C7    C     C_R   0.297807 0.416629 0.574583 0.074543
C8    C     C_R   0.238760 0.420144 0.573215 -0.086863
C9    C     C_R   0.209827 0.498266 0.484643 0.201326
C10   C     C_R   0.760154 0.443476 0.389498 0.291146
C11   C     C_R   0.700738 0.440003 0.392073 0.192889
C12   C     C_R   0.968488 0.279061 0.463504 -0.046696
C13   C     C_R   0.672108 0.496787 0.500411 -0.029547
C14   C     C_R   0.704378 0.553795 0.607055 0.079011
C15   C     C_R   0.763866 0.542611 0.612567 0.138513
C16   C     C_R   0.501282 0.734357 0.499343 0.518365
C17   C     C_R   0.791798 0.491035 0.501486 0.191820
C18   C     C_2   0.518190 0.932914 0.387887 0.154645
C19   C     C_2   0.500164 0.866305 0.496115 -0.115415
C20   C     C_2   0.509437 0.065226 0.384248 0.157417
C21   C     C_2   0.516501 0.135126 0.498975 0.101465
C22   C     C_2   0.468880 0.425576 0.921578 0.304548
C23   C     C_R   0.026986 0.279134 0.449235 0.255936
C24   C     C_2   0.461459 0.443576 0.074386 0.329724
C25   C     C_R   0.609078 0.499164 0.500579 0.584430
C26   C     C_R   0.881828 0.603105 0.502084 0.477179
C27   C     C_R   0.881112 0.386293 0.496605 0.445432
C28   C     C_R   0.940170 0.387162 0.486199 -0.002350
C29   C     C_R   0.971050 0.498254 0.497943 -0.091580
C30   C     C_R   0.941839 0.608141 0.512773 -0.005868
C31   C     C_3   0.673903 0.755506 0.656568 -0.301957
C32   C     C_3   0.809483 0.498248 0.829565 -0.249540
C33   C     C_3   0.506335 0.854433 0.153795 -0.254004
C34   C     C_R   0.059323 0.389001 0.466160 0.036062
C35   C     C_3   0.545984 0.157356 0.175403 -0.216562
C36   C     C_3   0.606215 0.085712 0.606075 -0.289886
C37   C     C_3   0.455835 0.208386 0.893575 -0.302070
C38   C     C_3   0.569219 0.651284 0.892573 -0.257925
C39   C     C_3   0.190918 0.591703 0.178003 -0.267999
C40   C     C_3   0.349865 0.773728 0.385119 -0.291789
C41   C     C_3   0.342571 0.221993 0.573877 -0.267338
C42   C     C_R   0.031017 0.498610 0.494739 -0.112864
C43   C     C_R   0.062462 0.607928 0.520507 -0.012381
C44   C     C_R   0.033060 0.717226 0.544112 0.269735
C45   C     C_R   0.973378 0.717773 0.537472 0.265915
C46   C     C_R   0.118831 0.393973 0.455803 0.411415
Cl1   Cl    Cl    0.663705 0.361328 0.258370 -0.581099
Cl2   Cl    Cl    0.399038 0.379533 0.143295 -0.636746
Cl3   Cl    Cl    0.055963 0.136364 0.413399 -0.378138
Cl4   Cl    Cl    0.069047 0.857734 0.579685 -0.344395
Cl5   Cl    Cl    0.939868 0.857520 0.570505 -0.383730
Cl6   Cl    Cl    0.795198 0.392671 0.242263 -0.477853
Cu1   Cu    Cu3+1 0.500010 0.500020 0.638630 0.982737
Cu2   Cu    Cu3+1 0.499990 0.499980 0.361370 1.019752
H1    H     H_    0.944927 0.193544 0.452831 0.226570
H2    H     H_    0.837901 0.539534 0.909713 0.190659
H3    H     H_    0.831445 0.420344 0.783594 0.187855
H4    H     H_    0.769826 0.464879 0.878188 0.178601
H5    H     H_    0.573834 0.814711 0.290838 0.259447
H6    H     H_    0.500574 0.754969 0.138416 0.176783
H7    H     H_    0.525714 0.893901 0.060698 0.130977
H8    H     H_    0.463773 0.893823 0.165978 0.158478
H9    H     H_    0.460377 0.163359 0.240802 0.282391
H10   H     H_    0.547206 0.106168 0.078013 0.126145
H11   H     H_    0.586524 0.142232 0.232275 0.209722
H12   H     H_    0.480482 0.909444 0.582470 0.096025
H13   H     H_    0.543003 0.255757 0.151650 0.182499
H14   H     H_    0.533042 0.123035 0.708068 0.259335
H15   H     H_    0.624821 0.043063 0.699280 0.144554
H16   H     H_    0.623672 0.180259 0.596994 0.173144
H17   H     H_    0.618619 0.031834 0.515731 0.171494
H18   H     H_    0.395000 0.337760 0.860693 0.285544
H19   H     H_    0.439798 0.141710 0.816014 0.136785
H20   H     H_    0.438427 0.181754 0.994216 0.170723
H21   H     H_    0.502718 0.205448 0.899017 0.128877
H22   H     H_    0.482327 0.676341 0.873220 0.264493
H23   H     H_    0.538514 0.515382 0.111924 0.222976
H24   H     H_    0.578586 0.726881 0.965151 0.106350
H25   H     H_    0.576960 0.684636 0.787929 0.209651
H26   H     H_    0.598013 0.575543 0.917772 0.174191
H27   H     H_    0.228523 0.736474 0.285784 0.270126
H28   H     H_    0.165441 0.655408 0.115101 0.174715
H29   H     H_    0.163737 0.510752 0.201744 0.189609
H30   H     H_    0.227759 0.563012 0.117746 0.151162
H31   H     H_    0.315787 0.673252 0.221389 0.263974
H32   H     H_    0.312370 0.828699 0.408528 0.151375
H33   H     H_    0.377926 0.827009 0.316094 0.144211
H34   H     H_    0.214872 0.359005 0.638885 0.158180
H35   H     H_    0.373900 0.755371 0.481620 0.147679
H36   H     H_    0.303546 0.298941 0.739278 0.257423
H37   H     H_    0.304789 0.174565 0.527197 0.171411
H38   H     H_    0.365004 0.156970 0.641590 0.131967
H39   H     H_    0.371872 0.251013 0.491737 0.171540
H40   H     H_    0.692031 0.622347 0.801986 0.257571
H41   H     H_    0.716773 0.794417 0.635460 0.185721
H42   H     H_    0.654793 0.811550 0.737243 0.125624
H43   H     H_    0.646898 0.760774 0.562257 0.154269
H44   H     H_    0.783945 0.669638 0.766395 0.279033
N1    N     N_R   0.852974 0.493345 0.499907 -0.369951
N2    N     N_2   0.438202 0.328912 0.855176 -0.439452
N3    N     N_2   0.510832 0.611565 0.903837 -0.478339
N4    N     N_2   0.210196 0.651838 0.302713 -0.474817
N5    N     N_2   0.332195 0.660932 0.318928 -0.483985
N6    N     N_2   0.325388 0.325543 0.653255 -0.508906
N7    N     N_R   0.148750 0.498726 0.486485 -0.403354
N8    N     N_2   0.499380 0.498660 0.846910 -0.133099
N9    N     N_2   0.499370 0.498630 0.153040 -0.337706
N10   N     N_2   0.677499 0.630257 0.702176 -0.518460
N11   N     N_2   0.796740 0.588400 0.726157 -0.488314
N12   N     N_2   0.543435 0.878755 0.271522 -0.488119
N13   N     N_2   0.497297 0.116047 0.252870 -0.525495
N14   N     N_2   0.545132 0.086916 0.616694 -0.574007
O1    O     O_R   0.500010 0.321960 0.617040 -0.479842
O2    O     O_R   0.582130 0.500060 0.617050 -0.479408
O3    O     O_R   0.582110 0.500020 0.382900 -0.468154
O4    O     O_2   0.852113 0.706017 0.491524 -0.394605
O5    O     O_2   0.851857 0.279284 0.502090 -0.432592
O6    O     O_2   0.147147 0.295853 0.414726 -0.412066
O7    O     O_2   0.154599 0.699539 0.563657 -0.399595
O8    O     O_R   0.499990 0.321920 0.382900 -0.480660
O9    O     O_R   0.417890 0.499980 0.617100 -0.478520
O10   O     O_R   0.417870 0.499940 0.382950 -0.407130
O11   O     O_R   0.500010 0.678080 0.617100 -0.525806
O12   O     O_R   0.499990 0.678040 0.382960 -0.492593

loop_
_geom_bond_atom_site_label_1
_geom_bond_atom_site_label_2
_ccdc_geom_bond_type
C37   H20   S    
C5    N5    S    
C1    C21   S    
Cu2   O8    S    
C29   C42   A    
C31   N10   S    
C15   N11   S    
C30   C45   A    
C11   Cl1   S    
C34   C42   A    
C32   H4    S    
C10   Cl6   S    
C7    C8    A    
Cu1   Cu2   S    
C36   H15   S    
C12   C23   A    
C27   N1    A    
Cu2   N9    S    
C12   C28   A    
C40   H33   S    
C28   C29   A    
C16   O11   A    
C39   H30   S    
C38   N3    S    
C25   O3    A    
C5    C6    A    
C23   Cl3   S    
C38   H25   S    
C35   H11   S    
C10   C17   A    
C9    N7    S    
C31   H42   S    
C46   N7    A    
H22   N3    S    
H5    N12   S    
C46   O6    S    
C19   H12   S    
C18   C19   D    
H14   N14   S    
C40   H32   S    
Cu2   O12   S    
Cu1   N8    S    
C41   H39   S    
Cu1   O1    S    
C33   H8    S    
C36   N14   S    
C35   H10   S    
C34   C46   A    
C40   H35   S    
H31   N5    S    
C36   H17   S    
C26   N1    A    
C14   N10   S    
C37   H21   S    
H44   N11   S    
C13   C14   A    
C13   C25   S    
C1    O1    A    
C32   H3    S    
C36   H16   S    
H27   N4    S    
C27   O5    S    
C22   N2    S    
C32   N11   S    
C24   Cl2   S    
H23   N9    S    
C4    C6    S    
Cu1   O11   S    
C8    C9    A    
C38   H24   S    
C22   N8    D    
C8    H34   S    
C1    O8    A    
C43   C44   A    
C29   C30   A    
C3    C9    A    
C20   N13   S    
C35   H13   S    
C2    C43   A    
C23   C34   A    
H40   N10   S    
Cu2   O3    S    
C4    O10   A    
C24   N9    D    
C17   N1    S    
H36   N6    S    
C3    N4    S    
C41   H37   S    
C26   C30   A    
C33   H6    S    
C7    N6    S    
C22   C24   S    
C42   C43   A    
C21   N14   S    
C35   N13   S    
Cu1   O2    S    
C39   N4    S    
H18   N2    S    
C44   Cl4   S    
N3    N8    S    
C15   C17   A    
C37   H19   S    
C44   C45   A    
C18   N12   S    
C39   H28   S    
C3    C5    A    
C2    O7    S    
C6    C7    A    
C2    N7    A    
C41   N6    S    
C16   O12   A    
C39   H29   S    
Cu1   O9    S    
C25   O2    A    
C40   N5    S    
C11   C13   A    
C38   H26   S    
C16   C19   S    
C31   H41   S    
C4    O9    A    
C18   C20   S    
C31   H43   S    
H9    N13   S    
C26   O4    S    
C12   H1    S    
C10   C11   A    
Cu2   O10   S    
C41   H38   S    
C20   C21   D    
C33   H7    S    
C27   C28   A    
C45   Cl5   S    
C14   C15   A    
C33   N12   S    
C32   H2    S    
C37   N2    S    
