data_mof_unit_36346.cif
_audit_creation_date              2012-10-26T18:50:01-0400
_audit_creation_method            fapswitch 2.2
_symmetry_space_group_name_H-M    P1
_symmetry_Int_Tables_number       1
_space_group_crystal_system       triclinic
_cell_length_a                    10.771132
_cell_length_b                    13.167158
_cell_length_c                    11.758735
_cell_angle_alpha                 98.786564
_cell_angle_beta                  95.893313
_cell_angle_gamma                 89.609939
_cell_volume                      1639.33590868

loop_
_atom_site_label
_atom_site_type_symbol
_atom_type_description
_atom_site_fract_x
_atom_site_fract_y
_atom_site_fract_z
_atom_type_partial_charge
C1    C     C_R   0.503148 0.299685 0.480248 0.557182
C2    C     C_R   0.463370 0.864015 0.432045 -0.013789
C3    C     C_R   0.513656 0.028761 0.556675 0.028903
C4    C     C_R   0.486338 0.971237 0.443324 0.028902
C5    C     C_R   0.402599 0.387952 0.021969 -0.062724
C6    C     C_R   0.597386 0.612052 0.978030 -0.062725
C7    C     C_R   0.401537 0.407062 0.143506 0.123642
C8    C     C_R   0.598460 0.592937 0.856495 0.123637
C9    C     C_R   0.547444 0.543880 0.158571 0.107401
C10   C     C_R   0.452551 0.456121 0.841427 0.107401
C11   C     C_R   0.536565 0.540150 0.034922 -0.007632
C12   C     C_R   0.496850 0.700314 0.519752 0.557178
C13   C     C_R   0.463424 0.459852 0.965076 -0.007634
C14   C     C_R   0.262004 0.512721 0.498954 0.551651
C15   C     C_R   0.737996 0.487280 0.501046 0.551650
C16   C     C_R   0.135484 0.602940 0.702022 -0.083841
C17   C     C_R   0.864519 0.397053 0.297981 -0.083846
C18   C     C_R   0.093805 0.602428 0.810362 -0.000209
C19   C     C_R   0.906211 0.397546 0.189643 -0.000214
C20   C     C_R   0.991251 0.541680 0.819947 -0.093141
C21   C     C_R   0.008765 0.458293 0.180054 -0.093138
C22   C     C_R   0.924567 0.487866 0.720540 0.036980
C23   C     C_R   0.492605 0.813089 0.529149 0.004026
C24   C     C_R   0.075437 0.512123 0.279458 0.036981
C25   C     C_R   0.954128 0.502879 0.608862 0.041659
C26   C     C_R   0.045871 0.497121 0.391137 0.041658
C27   C     C_R   0.071750 0.545823 0.601645 -0.007869
C28   C     C_R   0.928249 0.454178 0.398355 -0.007865
C29   C     C_R   0.875324 0.471832 0.504516 -0.040186
C30   C     C_R   0.124676 0.528171 0.495484 -0.040188
C31   C     C_3   0.347366 0.286582 0.958371 -0.386228
C32   C     C_3   0.652582 0.713435 0.041622 -0.386213
C33   C     C_1   0.164054 0.655694 0.912731 0.183889
C34   C     C_R   0.507389 0.186910 0.470851 0.004027
C35   C     C_1   0.835981 0.344254 0.087277 0.183891
C36   C     C_3   0.846655 0.398295 0.736896 -0.362091
C37   C     C_3   0.153339 0.601697 0.263094 -0.362088
C38   C     C_3   0.388594 0.808323 0.325044 -0.348774
C39   C     C_3   0.611400 0.191674 0.674958 -0.348775
C40   C     C_1   0.485358 0.973306 0.227396 0.192180
C41   C     C_1   0.514623 0.026694 0.772602 0.192177
C42   C     C_1   0.360406 0.391002 0.767647 0.259367
C43   C     C_1   0.639595 0.608997 0.232345 0.259366
C44   C     C_1   0.681106 0.651870 0.801733 0.256440
C45   C     C_R   0.482781 0.023467 0.345567 -0.016559
C46   C     C_1   0.318902 0.348126 0.198275 0.256445
C47   C     C_R   0.517206 0.976532 0.654433 -0.016558
C48   C     C_R   0.484768 0.129572 0.361057 -0.133738
C49   C     C_R   0.515214 0.870427 0.638945 -0.133741
C50   C     C_R   0.536626 0.135983 0.567955 -0.013789
Cu1   Cu    Cu3+1 0.509250 0.507730 0.615930 0.963191
Cu2   Cu    Cu3+1 0.490750 0.492270 0.384070 0.963193
H1    H     H_    0.033208 0.467960 0.095121 0.102443
H2    H     H_    0.656600 0.772645 0.984323 0.156748
H3    H     H_    0.591974 0.747948 0.107507 0.164106
H4    H     H_    0.748985 0.701924 0.080470 0.148804
H5    H     H_    0.899519 0.352148 0.796863 0.139714
H6    H     H_    0.759264 0.424497 0.773899 0.164074
H7    H     H_    0.827088 0.347053 0.653378 0.118436
H8    H     H_    0.100472 0.647831 0.203114 0.139721
H9    H     H_    0.172893 0.652951 0.346606 0.118430
H10   H     H_    0.240738 0.575501 0.226102 0.164084
H11   H     H_    0.330363 0.748483 0.348282 0.129222
H12   H     H_    0.966818 0.531997 0.904878 0.102442
H13   H     H_    0.319683 0.859636 0.286426 0.145384
H14   H     H_    0.450985 0.773246 0.260837 0.163713
H15   H     H_    0.669638 0.251509 0.651717 0.129216
H16   H     H_    0.549009 0.226759 0.739159 0.163716
H17   H     H_    0.680304 0.140360 0.713582 0.145389
H18   H     H_    0.218171 0.647635 0.696374 0.133236
H19   H     H_    0.781831 0.352360 0.303632 0.133235
H20   H     H_    0.526897 0.832263 0.714825 0.154792
H21   H     H_    0.473073 0.167737 0.285177 0.154801
H22   H     H_    0.343310 0.227372 0.015664 0.156740
H23   H     H_    0.250974 0.298122 0.919517 0.148799
H24   H     H_    0.407969 0.252052 0.892490 0.164112
N1    N     N_R   0.523180 0.519350 0.790130 -0.282717
N2    N     N_1   0.252069 0.300298 0.240784 -0.289773
N3    N     N_R   0.476820 0.480650 0.209870 -0.282717
N4    N     N_1   0.220812 0.698243 0.994920 -0.311632
N5    N     N_1   0.779241 0.301683 0.005091 -0.311609
N6    N     N_1   0.487260 0.934604 0.132363 -0.287833
N7    N     N_1   0.512715 0.065398 0.867635 -0.287824
N8    N     N_1   0.286123 0.338617 0.708778 -0.292674
N9    N     N_1   0.713884 0.661380 0.291209 -0.292676
N10   N     N_1   0.747950 0.699695 0.759231 -0.289767
O1    O     O_R   0.506570 0.354460 0.582000 -0.506363
O2    O     O_R   0.493430 0.645540 0.418000 -0.506363
O3    O     O_R   0.490940 0.341410 0.386200 -0.510164
O4    O     O_R   0.509060 0.658590 0.613800 -0.510165
O5    O     O_R   0.327470 0.506520 0.597900 -0.492795
O6    O     O_R   0.672530 0.493480 0.402100 -0.492795
O7    O     O_R   0.311840 0.493460 0.402100 -0.496475
O8    O     O_R   0.688160 0.506540 0.597900 -0.496474

loop_
_geom_bond_atom_site_label_1
_geom_bond_atom_site_label_2
_ccdc_geom_bond_type
C1    O1    A    
C6    C32   S    
C10   C42   S    
C39   H16   S    
C36   H7    S    
C15   O8    A    
C37   H10   S    
C35   N5    T    
C47   C49   A    
C12   C23   S    
C12   O4    A    
C28   C29   A    
C19   C21   A    
C24   C26   A    
C36   H6    S    
Cu1   O4    S    
C23   C49   A    
C41   N7    T    
C9    N3    A    
Cu1   O5    S    
C15   O6    A    
C3    C50   A    
C38   H14   S    
C22   C25   A    
Cu2   N3    S    
C14   O7    A    
C5    C13   A    
C16   C27   A    
C27   C30   A    
Cu2   O3    S    
C14   C30   S    
C44   N10   T    
C32   H2    S    
C41   C47   S    
C10   N1    A    
C1    C34   S    
C15   C29   S    
C5    C7    A    
C4    C45   A    
C25   C29   A    
C40   C45   S    
C9    C43   S    
C34   C50   A    
C12   O2    A    
Cu1   Cu2   S    
C43   N9    T    
C7    C46   S    
C40   N6    T    
Cu2   O2    S    
C16   H18   S    
C36   H5    S    
Cu1   O1    S    
C6    C11   A    
C46   N2    T    
C31   H22   S    
C6    C8    A    
C49   H20   S    
C20   H12   S    
C2    C4    A    
Cu1   N1    S    
C2    C38   S    
C31   H23   S    
C38   H13   S    
C24   C37   S    
C39   H17   S    
C42   N8    T    
Cu2   O7    S    
C9    C11   A    
C20   C22   A    
C17   H19   S    
C8    N1    A    
Cu2   O6    S    
C34   C48   A    
C3    C4    A    
C7    N3    A    
C38   H11   S    
C45   C48   A    
C1    O3    A    
C32   H3    S    
C17   C28   A    
C39   H15   S    
C48   H21   S    
C8    C44   S    
C10   C13   A    
C37   H9    S    
C33   N4    T    
C26   C30   A    
C25   C27   A    
C22   C36   S    
C26   C28   A    
C19   C35   S    
C21   H1    S    
C11   C13   A    
C31   H24   S    
C3    C47   A    
C17   C19   A    
C18   C20   A    
C18   C33   S    
C14   O5    A    
C37   H8    S    
Cu1   O8    S    
C39   C50   S    
C16   C18   A    
C21   C24   A    
C2    C23   A    
C32   H4    S    
C5    C31   S    
