data_mof_unit_17759.cif
_audit_creation_date              2013-03-05T15:43:39-0500
_audit_creation_method            fapswitch 2.2
_symmetry_space_group_name_H-M    P1
_symmetry_Int_Tables_number       1
_space_group_crystal_system       triclinic
_cell_length_a                    15.892448
_cell_length_b                    10.887578
_cell_length_c                    9.755324
_cell_angle_alpha                 90.947665
_cell_angle_beta                  89.966784
_cell_angle_gamma                 90.735981
_cell_volume                      1687.59608598

loop_
_atom_site_label
_atom_site_type_symbol
_atom_site_description
_atom_site_fract_x
_atom_site_fract_y
_atom_site_fract_z
_atom_type_partial_charge
O1    O     O_R   0.500010 0.321960 0.617040 -0.534139
O2    O     O_R   0.499990 0.321920 0.382900 -0.534435
C1    C     C_R   0.502184 0.265475 0.498813 0.912929
O3    O     O_R   0.379450 0.500030 0.617120 -0.548957
O4    O     O_R   0.379420 0.499980 0.382980 -0.613426
C2    C     C_R   0.340492 0.499581 0.500020 0.808277
Cu1   Cu    Cu3+1 0.500020 0.500020 0.638630 1.058509
Cu2   Cu    Cu3+1 0.499980 0.499980 0.361370 1.082491
O5    O     O_R   0.500010 0.678080 0.617100 -0.581764
O6    O     O_R   0.499990 0.678040 0.382960 -0.582052
O7    O     O_R   0.620580 0.500020 0.617020 -0.633501
O8    O     O_R   0.620550 0.499970 0.382880 -0.495893
C3    C     C_R   0.502633 0.734661 0.501236 0.836202
C4    C     C_R   0.659521 0.499777 0.499897 0.810137
C5    C     C_3   0.050035 0.414256 0.619752 -0.006100
C6    C     C_3   0.048268 0.426306 0.348982 0.583707
C7    C     C_3   0.948355 0.420897 0.361780 0.084728
H1    H     H_    0.923582 0.477534 0.277751 0.203829
C8    C     C_1   0.748886 0.495778 0.499653 -0.025902
C9    C     C_3   0.083457 0.484711 0.490042 -0.130096
C10   C     C_3   0.951393 0.419738 0.629011 0.057369
C11   C     C_3   0.916426 0.484529 0.497518 -0.224452
C12   C     C_3   0.952231 0.619966 0.504151 0.026999
C13   C     C_3   0.050801 0.620081 0.507185 0.220585
C14   C     C_1   0.824199 0.490817 0.499139 0.148703
C15   C     C_1   0.175725 0.490822 0.495283 0.109381
C16   C     C_1   0.251090 0.495686 0.499102 -0.096061
H2    H     H_    0.070687 0.652046 0.612210 0.032507
H3    H     H_    0.931988 0.660524 0.604497 0.100233
H4    H     H_    0.073168 0.468176 0.710873 0.114531
H5    H     H_    0.937062 0.482636 0.717134 0.095244
C17   C     C_2   0.527218 0.931283 0.392974 -0.187604
C18   C     C_2   0.512460 0.866914 0.506401 -0.352864
H6    H     H_    0.533594 0.884347 0.294436 0.209349
H7    H     H_    0.513095 0.910358 0.607319 0.176998
C19   C     C_2   0.540738 0.065123 0.398463 0.336498
C20   C     C_2   0.501473 0.132681 0.496103 -0.379846
H8    H     H_    0.462135 0.090183 0.573308 0.163663
C21   C     C_2   0.439384 0.451294 0.922487 0.546700
N1    N     N_2   0.499090 0.498660 0.846910 -0.059416
C22   C     C_2   0.432962 0.482140 0.075461 -0.006151
N2    N     N_2   0.499070 0.498630 0.153040 -0.072666
H9    H     H_    0.370922 0.487131 0.121214 0.110593
N3    N     N_R   0.911069 0.302344 0.667359 0.224666
O9    O     O_R   0.934288 0.251841 0.781075 -0.239714
O10   O     O_R   0.840066 0.265578 0.613403 -0.264873
N4    N     N_R   0.917084 0.699582 0.397944 0.170534
O11   O     O_R   0.940891 0.692069 0.270461 -0.269345
O12   O     O_R   0.864521 0.785045 0.433610 -0.314287
N5    N     N_R   0.596379 0.119729 0.299049 0.182475
O13   O     O_R   0.605054 0.068174 0.178657 -0.287135
O14   O     O_R   0.649883 0.205288 0.336749 -0.260977
N6    N     N_R   0.378463 0.367807 0.864273 0.107734
O15   O     O_R   0.401859 0.259068 0.824121 -0.306534
O16   O     O_R   0.298938 0.386846 0.886259 -0.367929
O17   O     O_3   0.524326 0.609170 0.900287 -0.534377
C23   C     C_3   0.609565 0.632156 0.868798 0.218357
H10   H     H_    0.616416 0.670482 0.765464 0.169688
H11   H     H_    0.648394 0.548325 0.877434 0.188975
C24   C     C_3   0.643589 0.732107 0.965951 -0.695387
H12   H     H_    0.712549 0.743288 0.951298 0.227246
H13   H     H_    0.612903 0.820806 0.944157 0.252912
H14   H     H_    0.630753 0.709309 0.074383 0.279024
N7    N     N_R   0.086319 0.291339 0.635223 0.215472
O18   O     O_R   0.148675 0.277529 0.719762 -0.265645
O19   O     O_R   0.054218 0.194114 0.575367 -0.230786
N8    N     N_R   0.570784 0.438320 0.104799 0.249509
O20   O     O_R   0.644842 0.487161 0.125017 -0.314629
O21   O     O_R   0.566218 0.322713 0.068429 -0.277287
O22   O     O_3   0.065888 0.509603 0.239627 -0.555998
C25   C     C_3   0.141394 0.488734 0.165714 0.199673
H15   H     H_    0.130550 0.416275 0.085969 0.216806
H16   H     H_    0.194370 0.461637 0.231955 0.146423
C26   C     C_3   0.167325 0.605788 0.093152 -0.716079
H17   H     H_    0.182130 0.679331 0.169684 0.260303
H18   H     H_    0.224179 0.588958 0.029719 0.207110
H19   H     H_    0.115626 0.636315 0.025647 0.262206
N9    N     N_R   0.082204 0.302556 0.315029 0.121447
O23   O     O_R   0.152478 0.265618 0.367895 -0.358544
O24   O     O_R   0.054451 0.243815 0.206380 -0.282518
N10   N     N_R   0.909010 0.299162 0.336356 0.183835
O25   O     O_R   0.851051 0.287065 0.242673 -0.227699
O26   O     O_R   0.932589 0.201753 0.400304 -0.189803
O27   O     O_3   0.086662 0.698133 0.406557 -0.503461
C27   C     C_3   0.098956 0.818684 0.459853 0.090354
H20   H     H_    0.151163 0.820219 0.535885 0.134498
H21   H     H_    0.040760 0.853937 0.509659 0.199820
C28   C     C_3   0.122371 0.904330 0.343930 -0.564856
H22   H     H_    0.072428 0.901792 0.264298 0.286689
H23   H     H_    0.129283 0.999804 0.384510 0.262843
H24   H     H_    0.182965 0.876185 0.297109 0.204427

loop_
_geom_bond_atom_site_label_1
_geom_bond_atom_site_label_2
_geom_bond_distance
_ccdc_geom_bond_type
C22   N2    1.303980 D    
N10   O25   1.301883 A    
Cu1   Cu2   2.704753 S    
N4    O12   1.301378 A    
N6    O15   1.299654 A    
Cu1   O7    1.927435 S    
C10   H5    1.115431 S    
C15   C16   1.198801 T    
C26   H18   1.110297 S    
C24   H14   1.108727 S    
C12   H3    1.116127 S    
C19   C20   1.351152 D    
Cu2   N2    2.032196 S    
O4    C2    1.298325 A    
O7    C4    1.299076 A    
N9    O24   1.303008 A    
C23   H11   1.112664 S    
O17   C23   1.409050 S    
C24   H13   1.111151 S    
O5    C3    1.296572 A    
Cu1   N1    2.032182 S    
N4    O11   1.301299 A    
C6    C7    1.593097 S    
N1    O17   1.358963 S    
C26   H19   1.110887 S    
N5    O14   1.301822 A    
C5    N7    1.474069 S    
O22   C25   1.418466 S    
C6    N9    1.489834 S    
C6    C9    1.604222 S    
N6    O16   1.300475 A    
C10   C11   1.578839 S    
C22   H9    1.083676 S    
O3    Cu1   1.927729 S    
N10   O26   1.298741 A    
N3    O10   1.301045 A    
N5    O13   1.301322 A    
C27   H21   1.114091 S    
C5    C9    1.578782 S    
C12   N4    1.476377 S    
C26   H17   1.108819 S    
N8    O20   1.299094 A    
C9    C13   1.575103 S    
C6    O22   1.436688 S    
O27   C27   1.414974 S    
O3    C2    1.299564 A    
C21   N1    1.307315 D    
C25   H16   1.107585 S    
N9    O23   1.301567 A    
C23   C24   1.525202 S    
C27   H20   1.113002 S    
C11   C14   1.468248 S    
C24   H12   1.110549 S    
N8    O21   1.303204 A    
N7    O19   1.299138 A    
C3    C18   1.446420 S    
C20   H8    1.084322 S    
O4    Cu2   1.927436 S    
C10   N3    1.476060 S    
C2    C16   1.420940 S    
C28   H24   1.110087 S    
Cu2   O8    1.927730 S    
C7    H1    1.109303 S    
C1    C20   1.445510 S    
C28   H23   1.110326 S    
N2    N8    1.399984 S    
C17   C19   1.470314 S    
C19   N5    1.442396 S    
N3    O9    1.301913 A    
C5    H4    1.116938 S    
C27   C28   1.520633 S    
Cu1   O5    1.953438 S    
O1    Cu1   1.946581 S    
C4    C8    1.421462 S    
O2    Cu2   1.953440 S    
C13   H2    1.120921 S    
O8    C4    1.299089 A    
O6    C3    1.299603 A    
C25   C26   1.520229 S    
C7    C11   1.571235 S    
N7    O18   1.301415 A    
O2    C1    1.296576 A    
C13   O27   1.423059 S    
C25   H15   1.110686 S    
C17   C18   1.338535 D    
C23   H10   1.102171 S    
C21   N6    1.430754 S    
C9    C15   1.467896 S    
C18   H7    1.085137 S    
C7    N10   1.475527 S    
C8    C14   1.198823 T    
C12   C13   1.566796 S    
C5    C10   1.572044 S    
C28   H22   1.110708 S    
C21   C22   1.527851 S    
Cu2   O6    1.946580 S    
C11   C12   1.574071 S    
O1    C1    1.298704 A    
C17   H6    1.086465 S    
