data_mof_unit_46403.cif
_audit_creation_date              2012-12-10T20:40:58-0500
_audit_creation_method            fapswitch 2.2
_symmetry_space_group_name_H-M    P1
_symmetry_Int_Tables_number       1
_space_group_crystal_system       triclinic
_cell_length_a                    27.638479
_cell_length_b                    10.672851
_cell_length_c                    9.88357
_cell_angle_alpha                 89.768322
_cell_angle_beta                  89.805698
_cell_angle_gamma                 90.113415
_cell_volume                      2915.42261181

loop_
_atom_site_label
_atom_site_type_symbol
_atom_type_description
_atom_site_fract_x
_atom_site_fract_y
_atom_site_fract_z
_atom_type_partial_charge
C1    C     C_R   0.501086 0.260167 0.500339 0.864197
C2    C     C_R   0.274940 0.441261 0.549945 -0.073647
C3    C     C_R   0.254558 0.540274 0.476647 0.252190
C4    C     C_R   0.103124 0.549514 0.440732 -0.052344
C5    C     C_R   0.129392 0.445475 0.393792 -0.023360
C6    C     C_R   0.104851 0.342052 0.341458 -0.132595
C7    C     C_R   0.128053 0.653641 0.492977 -0.025954
C8    C     C_R   0.354451 0.519924 0.497515 -0.096124
C9    C     C_R   0.646761 0.507618 0.496867 -0.152567
C10   C     C_R   0.976536 0.431615 0.410712 0.046495
C11   C     C_R   0.974762 0.655727 0.471222 0.045596
C12   C     C_R   0.406345 0.502519 0.499894 0.907005
C13   C     C_R   0.950371 0.541379 0.444626 0.073545
C14   C     C_R   0.950991 0.317594 0.396520 -0.216770
C15   C     C_R   0.901111 0.312716 0.411145 -0.135940
C16   C     C_R   0.874900 0.421479 0.438467 -0.024686
C17   C     C_R   0.899309 0.536389 0.453598 -0.053684
C18   C     C_R   0.872625 0.646066 0.478848 -0.021559
C19   C     C_R   0.822124 0.639036 0.486484 0.512724
C20   C     C_R   0.824581 0.417776 0.452568 0.514029
C21   C     C_R   0.721229 0.473197 0.373545 -0.093696
C22   C     C_R   0.671239 0.465517 0.381138 -0.290752
C23   C     C_R   0.500539 0.739811 0.500002 0.877644
C24   C     C_R   0.673045 0.560262 0.604853 0.437043
C25   C     C_R   0.723507 0.562567 0.598678 -0.197798
C26   C     C_R   0.747596 0.520256 0.482690 0.242965
C27   C     C_R   0.027379 0.438378 0.396277 0.044599
C28   C     C_R   0.051963 0.548486 0.437534 0.074370
C29   C     C_R   0.025923 0.656559 0.478024 0.044906
C30   C     C_R   0.054701 0.338102 0.343136 -0.217679
C31   C     C_R   0.102163 0.758501 0.536062 -0.132117
C32   C     C_R   0.946942 0.765075 0.491594 -0.217576
C33   C     C_R   0.896759 0.760177 0.494654 -0.133612
C34   C     C_R   0.593964 0.501689 0.499619 0.899689
C35   C     C_R   0.052041 0.760575 0.527824 -0.215820
C36   C     C_R   0.500425 0.063485 0.622999 0.078989
C37   C     C_R   0.507048 0.128601 0.502212 -0.085063
C38   C     C_R   0.520852 0.065012 0.384546 -0.201290
C39   C     C_R   0.520273 0.935558 0.384462 -0.183080
C40   C     C_R   0.505480 0.871487 0.501663 -0.126734
C41   C     C_R   0.498841 0.935926 0.622897 -0.046266
C42   C     C_3   0.459375 0.931405 0.728844 -0.047828
C43   C     C_3   0.461817 0.075175 0.728348 -0.399371
C44   C     C_R   0.457491 0.494531 0.071885 0.278884
C45   C     C_R   0.179866 0.446918 0.401379 0.515976
C46   C     C_R   0.541781 0.514081 0.071329 -0.138309
C47   C     C_R   0.541813 0.513167 0.927801 -0.162294
C48   C     C_R   0.457371 0.496820 0.929193 0.235958
C49   C     C_3   0.419416 0.396622 0.922302 -0.339533
C50   C     C_3   0.421017 0.390580 0.077238 -0.370600
C51   C     C_R   0.178481 0.648869 0.504297 0.520482
C52   C     C_R   0.284231 0.631189 0.416186 -0.203673
C53   C     C_R   0.334976 0.624226 0.428913 0.504344
C54   C     C_R   0.324737 0.429813 0.557988 -0.298194
H1    H     H_    0.340197 0.349001 0.608263 0.148637
H2    H     H_    0.267058 0.704458 0.357928 0.140264
H3    H     H_    0.120531 0.839502 0.577323 0.192066
H4    H     H_    0.962941 0.856643 0.502594 0.141388
H5    H     H_    0.876968 0.846332 0.511173 0.192466
H6    H     H_    0.743905 0.599545 0.683012 0.168633
H7    H     H_    0.034651 0.843264 0.566788 0.144307
H8    H     H_    0.529463 0.114486 0.291578 0.180803
H9    H     H_    0.528788 0.886576 0.291600 0.190032
H10   H     H_    0.252075 0.371010 0.597173 0.164254
H11   H     H_    0.429244 0.123749 0.688455 0.196634
H12   H     H_    0.476574 0.117618 0.822065 0.214707
H13   H     H_    0.575682 0.523828 0.124469 0.163751
H14   H     H_    0.575762 0.521256 0.874157 0.216846
H15   H     H_    0.432968 0.310404 0.872600 0.135924
H16   H     H_    0.436983 0.301786 0.115850 0.146138
H17   H     H_    0.124308 0.262268 0.301424 0.191561
H18   H     H_    0.651704 0.426743 0.296118 0.180853
H19   H     H_    0.739611 0.441907 0.282859 0.164288
H20   H     H_    0.883167 0.222937 0.400678 0.190214
H21   H     H_    0.968772 0.229258 0.379263 0.141403
H22   H     H_    0.038241 0.255946 0.299758 0.145063
N1    N     N_R   0.203227 0.545996 0.459704 -0.342594
N2    N     N_R   0.799240 0.525801 0.474733 -0.341939
N3    N     N_R   0.499670 0.499140 0.142800 -0.130661
N4    N     N_R   0.499670 0.499180 0.857150 -0.142141
O1    O     O_R   0.500010 0.316790 0.614690 -0.622289
O2    O     O_2   0.801106 0.306958 0.445128 -0.555887
O3    O     O_2   0.202521 0.745124 0.561617 -0.551320
O4    O     O_2   0.796044 0.744536 0.504347 -0.569322
O5    O     O_R   0.500000 0.316760 0.385350 -0.631526
O6    O     O_R   0.428760 0.500040 0.614660 -0.610558
O7    O     O_R   0.428750 0.500000 0.385310 -0.586587
O8    O     O_R   0.500000 0.683240 0.614650 -0.659942
O9    O     O_R   0.499990 0.683210 0.385310 -0.590333
O10   O     O_R   0.571250 0.500000 0.614690 -0.577534
O11   O     O_R   0.571240 0.499960 0.385340 -0.641923
O12   O     O_2   0.205489 0.349860 0.351393 -0.561597
Zn1   Zn    Zn3+2 0.500000 0.500020 0.653130 0.956294
Zn2   Zn    Zn3+2 0.500000 0.499980 0.346870 0.975946
O13   O     O_3   0.649671 0.609936 0.716171 -0.618115
C55   C     C_3   0.643809 0.740026 0.694687 0.109318
H23   H     H_    0.626172 0.760077 0.595525 0.130254
H24   H     H_    0.679493 0.788510 0.698406 0.167343
C56   C     C_3   0.611637 0.793475 0.805301 -0.797871
H25   H     H_    0.627594 0.774429 0.906303 0.255115
H26   H     H_    0.607893 0.896302 0.791278 0.217446
H27   H     H_    0.575196 0.750108 0.800143 0.252584
C57   C     C_2   0.412263 0.876288 0.679059 0.423613
H28   H     H_    0.411257 0.780681 0.642422 0.101275
O14   O     O_2   0.374719 0.936308 0.682599 -0.556260
C58   C     C_2   0.475870 0.869575 0.858340 0.420330
H29   H     H_    0.488256 0.773334 0.856782 0.077760
O15   O     O_2   0.474185 0.924627 0.966318 -0.586688
C59   C     C_2   0.371880 0.440821 0.864287 0.552646
H30   H     H_    0.342406 0.374307 0.854365 0.037819
O16   O     O_2   0.365463 0.550282 0.832407 -0.524651
C60   C     C_2   0.374918 0.424990 0.150656 0.507486
H31   H     H_    0.356245 0.354463 0.210607 0.047284
O17   O     O_2   0.357797 0.530123 0.141772 -0.516631
O18   O     O_3   0.367526 0.709983 0.371327 -0.601622
C61   C     C_3   0.346712 0.826315 0.336344 0.106855
H32   H     H_    0.325151 0.865202 0.421817 0.174678
H33   H     H_    0.323868 0.815967 0.244622 0.177457
C62   C     C_3   0.386899 0.919138 0.302707 -0.721385
H34   H     H_    0.409910 0.882189 0.219645 0.290295
H35   H     H_    0.371016 0.009838 0.270204 0.202635
H36   H     H_    0.409701 0.935458 0.393086 0.243596

loop_
_geom_bond_atom_site_label_1
_geom_bond_atom_site_label_2
_ccdc_geom_bond_type
C10   C27   A    
C44   C48   A    
C21   C26   A    
O7    Zn2   S    
C20   O2    S    
C41   C42   S    
C54   H1    S    
O13   C55   S    
C32   H4    S    
C42   C57   S    
C34   O10   A    
C28   C29   A    
C26   N2    S    
C36   C37   A    
C59   O16   D    
C5    C6    A    
C3    C52   A    
C9    C22   A    
C58   H29   S    
C1    O1    A    
C15   C16   A    
C55   C56   S    
C21   H19   S    
C30   H22   S    
C61   H32   S    
C18   C19   A    
O9    Zn2   S    
C45   O12   S    
C34   O11   A    
C46   C47   A    
C16   C17   A    
C55   H24   S    
C23   C40   S    
C23   O9    A    
C25   H6    S    
C16   C20   A    
C33   H5    S    
C49   H15   S    
C21   C22   A    
C27   C30   A    
C36   C41   A    
C47   N4    A    
C4    C7    A    
C22   H18   S    
C60   H31   S    
C4    C28   A    
C2    H10   S    
C62   H35   S    
C1    O5    A    
C6    H17   S    
C7    C31   A    
C43   H11   S    
C38   C39   A    
C24   C25   A    
N3    Zn2   S    
C57   O14   D    
C2    C54   A    
C24   O13   S    
C8    C54   A    
C39   C40   A    
C25   C26   A    
C5    C45   A    
C19   N2    A    
C51   N1    A    
C37   C38   A    
O6    Zn1   S    
O1    Zn1   S    
O5    Zn2   S    
C56   H25   S    
C8    C12   S    
C55   H23   S    
C56   H27   S    
C50   C60   S    
C17   C18   A    
C35   H7    S    
C42   C58   S    
C60   O17   D    
C48   C49   S    
C6    C30   A    
C11   C32   A    
C23   O8    A    
C10   C14   A    
C9    C34   S    
C31   C35   A    
C42   C43   S    
C19   O4    S    
C3    N1    S    
C51   O3    S    
C47   H14   S    
C57   H28   S    
C52   C53   A    
O10   Zn1   S    
C49   C59   S    
C62   H36   S    
C44   C50   S    
O8    Zn1   S    
C40   C41   A    
C12   O7    A    
C56   H26   S    
C44   N3    A    
C4    C5    A    
C10   C13   A    
C8    C53   A    
C62   H34   S    
C9    C24   A    
C20   N2    A    
C39   H9    S    
C29   C35   A    
C61   C62   S    
C12   O6    A    
C32   C33   A    
C48   N4    A    
C2    C3    A    
C50   H16   S    
C7    C51   A    
C46   H13   S    
C59   H30   S    
C14   H21   S    
O11   Zn2   S    
C11   C13   A    
C31   H3    S    
O18   C61   S    
C46   N3    A    
C58   O15   D    
C43   H12   S    
C61   H33   S    
C18   C33   A    
C13   C17   A    
C53   O18   S    
C15   H20   S    
C11   C29   A    
C49   C50   S    
C27   C28   A    
C14   C15   A    
C36   C43   S    
C45   N1    A    
N4    Zn1   S    
C52   H2    S    
C1    C37   S    
C38   H8    S    
