data_mof_unit_7485.cif
_audit_creation_date              2013-03-05T15:50:10-0500
_audit_creation_method            fapswitch 2.2
_symmetry_space_group_name_H-M    P1
_symmetry_Int_Tables_number       1
_space_group_crystal_system       triclinic
_cell_length_a                    19.982399
_cell_length_b                    6.878739
_cell_length_c                    18.20683
_cell_angle_alpha                 90.00004
_cell_angle_beta                  104.14977
_cell_angle_gamma                 90.0
_cell_volume                      2426.66759367

loop_
_atom_site_label
_atom_site_type_symbol
_atom_site_description
_atom_site_fract_x
_atom_site_fract_y
_atom_site_fract_z
_atom_type_partial_charge
O1    O     O_R   0.312200 0.620210 0.189560 -0.581978
O2    O     O_R   0.687800 0.379790 0.810440 -0.581977
O3    O     O_R   0.187800 0.120210 0.310440 -0.581976
O4    O     O_R   0.812200 0.879790 0.689560 -0.581977
O5    O     O_R   0.171590 0.286140 0.165000 -0.589226
O6    O     O_R   0.828410 0.713860 0.835000 -0.589226
O7    O     O_R   0.328410 0.786140 0.335000 -0.589226
O8    O     O_R   0.671590 0.213860 0.665000 -0.589227
C1    C     C_R   0.145690 0.459550 0.143773 0.980533
C2    C     C_R   0.854309 0.540450 0.856227 0.980534
C3    C     C_R   0.354309 0.959550 0.356227 0.980534
C4    C     C_R   0.645690 0.040450 0.643773 0.980534
O9    O     O_R   0.310670 0.290220 0.180540 -0.572831
O10   O     O_R   0.689330 0.709780 0.819460 -0.572831
O11   O     O_R   0.189330 0.790220 0.319460 -0.572831
O12   O     O_R   0.810670 0.209780 0.680540 -0.572829
O13   O     O_R   0.327870 0.124170 0.326080 -0.582904
O14   O     O_R   0.672130 0.875830 0.673920 -0.582905
O15   O     O_R   0.172130 0.624170 0.173920 -0.582904
O16   O     O_R   0.827870 0.375830 0.826080 -0.582904
C5    C     C_R   0.330407 0.459915 0.163172 1.003227
C6    C     C_R   0.669593 0.540084 0.836828 1.003226
C7    C     C_R   0.169593 0.959915 0.336828 1.003226
C8    C     C_R   0.830407 0.040085 0.663172 1.003224
O17   O     O_3   0.255480 0.455050 0.297740 -0.238652
O18   O     O_3   0.744520 0.544950 0.702260 -0.238652
O19   O     O_3   0.244520 0.955050 0.202260 -0.238652
O20   O     O_3   0.755480 0.044950 0.797740 -0.238652
V1    V     V_3+5 0.248980 0.178550 0.241140 1.275318
V2    V     V_3+5 0.751020 0.821450 0.758860 1.275318
V3    V     V_3+5 0.251020 0.678550 0.258860 1.275318
V4    V     V_3+5 0.748980 0.321450 0.741140 1.275319
C9    C     C_R   0.928417 0.170112 0.616591 -0.127728
C10   C     C_R   0.071585 0.829885 0.383411 -0.127731
C11   C     C_R   0.571584 0.670113 0.883410 -0.127732
C12   C     C_R   0.428416 0.329887 0.116590 -0.127731
C13   C     C_R   0.877235 0.028590 0.610995 -0.296727
C14   C     C_R   0.122766 0.971409 0.389006 -0.296736
C15   C     C_R   0.622766 0.528590 0.889006 -0.296734
C16   C     C_R   0.377234 0.471410 0.110994 -0.296734
C17   C     C_R   0.873063 0.874245 0.558373 0.325426
C18   C     C_R   0.126938 0.125754 0.441628 0.325430
C19   C     C_R   0.626938 0.374245 0.941627 0.325431
C20   C     C_R   0.373062 0.625754 0.058373 0.325431
C21   C     C_R   0.921127 0.862959 0.511736 -0.166128
C22   C     C_R   0.078876 0.137037 0.488268 -0.166124
C23   C     C_R   0.578875 0.362962 0.988267 -0.166124
C24   C     C_R   0.421125 0.637038 0.011734 -0.166124
C25   C     C_R   0.974564 0.005003 0.521291 0.048811
C26   C     C_R   0.025439 0.994993 0.478713 0.048802
C27   C     C_R   0.525438 0.505005 0.978711 0.048806
C28   C     C_R   0.474562 0.494995 0.021289 0.048806
C29   C     C_R   0.977110 0.158387 0.573169 0.153436
C30   C     C_R   0.022893 0.841609 0.426834 0.153425
C31   C     C_R   0.522891 0.658389 0.926833 0.153421
C32   C     C_R   0.477109 0.341611 0.073167 0.153421
C33   C     C_R   0.918603 0.714834 0.456319 0.360920
C34   C     C_R   0.081401 0.285159 0.543687 0.360918
C35   C     C_R   0.581400 0.214839 0.043685 0.360920
C36   C     C_R   0.418601 0.785161 0.956315 0.360920
C37   C     C_R   0.970307 0.703399 0.416800 -0.289540
C38   C     C_R   0.029697 0.296595 0.583205 -0.289539
C39   C     C_R   0.529695 0.203404 0.083203 -0.289542
C40   C     C_R   0.470305 0.796597 0.916797 -0.289542
H1    H     H_    0.932032 0.286703 0.657497 0.150048
H2    H     H_    0.067970 0.713295 0.342506 0.150054
H3    H     H_    0.567969 0.786703 0.842504 0.150053
H4    H     H_    0.432031 0.213297 0.157496 0.150053
H5    H     H_    0.967595 0.588749 0.375264 0.171114
H6    H     H_    0.032409 0.411242 0.624742 0.171120
H7    H     H_    0.532408 0.088756 0.124740 0.171122
H8    H     H_    0.467592 0.911244 0.875260 0.171121
C41   C     C_1   0.583198 0.027415 0.581552 -0.247907
C42   C     C_1   0.416802 0.972585 0.418448 -0.247908
C43   C     C_1   0.916802 0.527415 0.918448 -0.247909
C44   C     C_1   0.083198 0.472585 0.081552 -0.247908
C45   C     C_1   0.530868 0.010859 0.530168 0.094543
C46   C     C_1   0.469132 0.989141 0.469832 0.094543
C47   C     C_1   0.969132 0.510859 0.969832 0.094543
C48   C     C_1   0.030868 0.489141 0.030168 0.094542
N1    N     N_R   0.820944 0.728689 0.554206 0.254560
O21   O     O_R   0.838182 0.556074 0.581431 -0.381209
O22   O     O_R   0.756002 0.776353 0.533834 -0.351794
N2    N     N_R   0.179055 0.271315 0.445792 0.254563
O23   O     O_R   0.243999 0.223657 0.466158 -0.351791
O24   O     O_R   0.161814 0.443933 0.418573 -0.381223
N3    N     N_R   0.679054 0.228684 0.945792 0.254562
O25   O     O_R   0.661814 0.056066 0.918573 -0.381223
O26   O     O_R   0.743998 0.276343 0.966158 -0.351790
N4    N     N_R   0.320946 0.771316 0.054208 0.254562
O27   O     O_R   0.256002 0.723657 0.033841 -0.351791
O28   O     O_R   0.338186 0.943933 0.081427 -0.381222
N5    N     N_R   0.861883 0.582386 0.434602 0.265319
O29   O     O_R   0.873836 0.396814 0.432314 -0.364397
O30   O     O_R   0.801553 0.648721 0.399543 -0.292227
N6    N     N_R   0.138123 0.417601 0.565407 0.265323
O31   O     O_R   0.198455 0.351252 0.600448 -0.292225
O32   O     O_R   0.126172 0.603168 0.567718 -0.364392
N7    N     N_R   0.638122 0.082399 0.065406 0.265323
O33   O     O_R   0.626171 0.896831 0.067718 -0.364392
O34   O     O_R   0.698454 0.148749 0.100447 -0.292226
N8    N     N_R   0.361879 0.917602 0.934594 0.265323
O35   O     O_R   0.301547 0.851253 0.899553 -0.292225
O36   O     O_R   0.373829 0.103170 0.932284 -0.364392

loop_
_geom_bond_atom_site_label_1
_geom_bond_atom_site_label_2
_geom_bond_distance
_ccdc_geom_bond_type
C34   C38   1.398118 A    
N3    O25   1.300273 A    
O17   V3    1.685761 S    
N5    O29   1.301195 A    
O19   V1    1.685760 S    
O13   V1    1.955684 S    
O3    C7    1.290130 A    
O15   V3    1.955683 S    
C10   H2    1.084793 S    
N1    O21   1.300275 A    
C9    H1    1.084794 S    
C45   C46   1.445110 S    
O1    C5    1.290128 A    
C21   C33   1.426142 A    
C26   C30   1.408713 A    
O9    V1    1.997990 S    
N2    O24   1.300273 A    
C14   C18   1.418802 A    
O4    C8    1.290129 A    
O1    V3    2.000434 S    
C35   N7    1.432447 S    
C38   H6    1.084782 S    
O2    V4    2.000431 S    
C18   C22   1.431149 A    
O3    V1    2.000430 S    
C34   N6    1.432448 S    
C12   C16   1.397540 A    
N4    O28   1.300274 A    
C1    O15   1.311829 A    
C2    O16   1.311829 A    
N6    O32   1.301188 A    
C2    C43   1.469399 S    
O2    C6    1.290129 A    
O14   V2    1.955682 S    
C1    C44   1.469399 S    
C21   C25   1.426298 A    
C16   C20   1.418801 A    
O11   C7    1.295795 A    
O12   C8    1.295794 A    
C33   N5    1.432442 S    
C4    C41   1.469399 S    
C22   C34   1.426146 A    
O17   V1    2.151945 S    
O10   V2    1.997988 S    
C36   N8    1.432448 S    
N1    O22   1.301460 A    
C24   C36   1.426147 A    
O5    V1    1.952640 S    
C31   C40   1.395540 A    
C9    C29   1.397982 A    
O7    V3    1.952639 S    
O19   V3    2.151946 S    
C27   C28   1.422843 A    
O8    V4    1.952642 S    
O20   V4    2.151945 S    
C18   N2    1.433266 S    
N2    O23   1.301461 A    
O18   V4    1.685761 S    
C15   C19   1.418800 A    
C11   C31   1.397980 A    
C9    C13   1.397542 A    
C11   C15   1.397541 A    
O5    C1    1.319960 A    
C12   C32   1.397980 A    
C29   C38   1.395541 A    
O7    C3    1.319960 A    
N7    O33   1.301188 A    
C11   H3    1.084796 S    
O8    C4    1.319959 A    
C17   N1    1.433264 S    
N6    O31   1.301042 A    
C8    C13   1.489605 S    
C32   C39   1.395540 A    
O9    C5    1.295794 A    
C33   C37   1.398118 A    
N7    O34   1.301042 A    
C39   H7    1.084781 S    
C10   C30   1.397981 A    
N3    O26   1.301462 A    
C20   N4    1.433264 S    
O16   V4    1.955682 S    
C37   H5    1.084780 S    
C3    O13   1.311829 A    
C17   C21   1.431148 A    
O6    V2    1.952643 S    
C10   C14   1.397542 A    
C44   C48   1.226112 T    
C3    C42   1.469399 S    
O6    C2    1.319960 A    
C23   C27   1.426298 A    
C12   H4    1.084796 S    
O11   V3    1.997986 S    
C30   C37   1.395540 A    
O12   V4    1.997989 S    
C7    C14   1.489605 S    
C22   C26   1.426299 A    
C35   C39   1.398120 A    
N8    O36   1.301188 A    
C36   C40   1.398118 A    
C19   N3    1.433264 S    
O10   C6    1.295795 A    
O20   V2    1.685760 S    
N4    O27   1.301460 A    
C5    C16   1.489606 S    
C19   C23   1.431153 A    
C25   C29   1.408711 A    
C6    C15   1.489606 S    
C27   C31   1.408711 A    
C40   H8    1.084780 S    
C13   C17   1.418799 A    
N8    O35   1.301041 A    
C23   C35   1.426145 A    
C47   C48   1.445111 S    
C28   C32   1.408710 A    
C24   C28   1.426299 A    
N5    O30   1.301051 A    
C25   C26   1.422842 A    
C42   C46   1.226112 T    
C4    O14   1.311829 A    
C41   C45   1.226112 T    
C43   C47   1.226112 T    
O4    V2    2.000433 S    
C20   C24   1.431150 A    
O18   V2    2.151945 S    
