data_mof_unit_13809.cif
_audit_creation_date              2013-03-05T15:59:01-0500
_audit_creation_method            fapswitch 2.2
_symmetry_space_group_name_H-M    P1
_symmetry_Int_Tables_number       1
_space_group_crystal_system       triclinic
_cell_length_a                    7.238368
_cell_length_b                    21.373226
_cell_length_c                    23.566527
_cell_angle_alpha                 89.999359
_cell_angle_beta                  90.069996
_cell_angle_gamma                 90.06159
_cell_volume                      3645.90834926

loop_
_atom_site_label
_atom_site_type_symbol
_atom_site_description
_atom_site_fract_x
_atom_site_fract_y
_atom_site_fract_z
_atom_type_partial_charge
O1    O     O_R   0.365470 0.806380 0.442440 -0.576162
O2    O     O_R   0.134530 0.193620 0.942440 -0.570443
O3    O     O_R   0.865470 0.693620 0.557560 -0.576433
O4    O     O_R   0.634530 0.306380 0.057560 -0.576785
O5    O     O_R   0.035730 0.813790 0.557160 -0.583728
O6    O     O_R   0.464270 0.186210 0.057160 -0.584420
O7    O     O_R   0.535730 0.686210 0.442840 -0.584317
O8    O     O_R   0.964270 0.313790 0.942840 -0.585043
C1    C     C_R   0.204330 0.828618 0.575766 0.966037
C2    C     C_R   0.295859 0.171376 0.075769 0.965630
C3    C     C_R   0.704035 0.671370 0.424226 0.966099
C4    C     C_R   0.795834 0.328625 0.924229 0.969908
O9    O     O_R   0.035760 0.813790 0.442850 -0.589812
O10   O     O_R   0.464240 0.186210 0.942850 -0.587917
O11   O     O_R   0.535760 0.686210 0.557150 -0.589987
O12   O     O_R   0.964240 0.313790 0.057150 -0.590405
O13   O     O_R   0.865450 0.693620 0.442430 -0.583758
O14   O     O_R   0.634550 0.306380 0.942430 -0.584811
O15   O     O_R   0.365450 0.806380 0.557570 -0.584649
O16   O     O_R   0.134550 0.193620 0.057570 -0.583994
C5    C     C_R   0.204192 0.828638 0.424249 0.956988
C6    C     C_R   0.295619 0.171359 0.924261 0.951576
C7    C     C_R   0.704217 0.671357 0.575748 0.956979
C8    C     C_R   0.795911 0.328649 0.075750 0.955791
O17   O     O_3   0.198970 0.710570 0.500000 -0.285868
O18   O     O_3   0.301030 0.289430 0.000000 -0.287481
O19   O     O_3   0.698970 0.789430 0.500000 -0.285839
O20   O     O_3   0.801030 0.210570 0.000000 -0.283184
V1    V     V_3+5 0.924120 0.757310 0.500000 1.179514
V2    V     V_3+5 0.575880 0.242690 0.000000 1.182806
V3    V     V_3+5 0.424120 0.742690 0.500000 1.179145
V4    V     V_3+5 0.075880 0.257310 0.000000 1.182405
C9    C     C_3   0.891135 0.562680 0.750863 0.234209
C10   C     C_3   0.609356 0.437161 0.250832 0.234531
C11   C     C_3   0.390857 0.937479 0.249290 0.233960
C12   C     C_3   0.066508 0.047064 0.762474 0.241270
C13   C     C_3   0.546836 0.532884 0.737921 -0.010679
C14   C     C_3   0.953317 0.467284 0.238013 -0.010884
C15   C     C_3   0.046599 0.967232 0.262127 -0.011207
C16   C     C_3   0.420964 0.051490 0.748432 -0.020901
C17   C     C_3   0.568497 0.489758 0.791925 0.052959
C18   C     C_3   0.931513 0.510395 0.292008 0.054205
C19   C     C_3   0.068219 0.010318 0.208106 0.053422
C20   C     C_3   0.392621 0.007527 0.695244 0.041015
H1    H     H_    0.457634 0.506198 0.707889 0.101151
H2    H     H_    0.042207 0.494040 0.208012 0.101344
H3    H     H_    0.957854 0.993992 0.292122 0.101181
H4    H     H_    0.549364 0.034882 0.769715 0.113386
H5    H     H_    0.465341 0.451514 0.787816 0.127238
H6    H     H_    0.034377 0.548725 0.287942 0.127692
H7    H     H_    0.965457 0.048600 0.212204 0.127541
H8    H     H_    0.522670 0.980906 0.689391 0.134700
C21   C     C_1   0.787074 0.374209 0.878753 -0.294760
C22   C     C_1   0.712542 0.625778 0.378748 -0.292101
C23   C     C_1   0.287134 0.125792 0.121250 -0.291412
C24   C     C_1   0.213701 0.874149 0.621273 -0.292321
C25   C     C_3   0.738612 0.541807 0.707259 0.006774
C26   C     C_3   0.761508 0.458182 0.207273 0.007674
C27   C     C_3   0.238513 0.958289 0.292816 0.007972
C28   C     C_3   0.259866 0.041906 0.792692 0.005499
C29   C     C_3   0.918744 0.511003 0.798089 -0.079649
C30   C     C_3   0.581459 0.488846 0.298023 -0.077726
C31   C     C_3   0.418284 0.989020 0.201960 -0.079527
C32   C     C_3   0.045484 0.993413 0.716690 -0.069794
C33   C     C_3   0.766228 0.458184 0.792526 0.139681
C34   C     C_3   0.733546 0.541801 0.292526 0.140947
C35   C     C_3   0.266217 0.041854 0.207504 0.140996
C36   C     C_3   0.235248 0.957935 0.707635 0.144713
C37   C     C_3   0.796900 0.423618 0.732600 0.407981
C38   C     C_3   0.702410 0.576329 0.232583 0.389098
C39   C     C_3   0.297630 0.076443 0.267429 0.389939
C40   C     C_3   0.284901 0.922671 0.766023 0.391756
C41   C     C_3   0.794060 0.475251 0.683139 -0.057247
C42   C     C_3   0.705386 0.524685 0.183134 -0.056865
C43   C     C_3   0.294386 0.024861 0.316942 -0.056070
C44   C     C_3   0.281689 0.972997 0.816566 -0.062765
C45   C     C_1   0.778650 0.411971 0.840295 0.038387
C46   C     C_1   0.720964 0.588016 0.340290 0.037164
C47   C     C_1   0.278686 0.088042 0.159717 0.036755
C48   C     C_1   0.222766 0.911824 0.659788 0.038582
C49   C     C_1   0.723248 0.587953 0.659608 0.100319
C50   C     C_1   0.777072 0.412051 0.159618 0.099793
C51   C     C_1   0.223192 0.912098 0.340431 0.098725
C52   C     C_1   0.275285 0.088033 0.840360 0.101157
C53   C     C_1   0.713339 0.625722 0.621183 -0.257123
C54   C     C_1   0.787020 0.374290 0.121189 -0.256383
C55   C     C_1   0.213288 0.874299 0.378830 -0.257303
C56   C     C_1   0.285878 0.125751 0.878816 -0.250879
H9    H     H_    0.683468 0.462543 0.652245 0.164427
H10   H     H_    0.815692 0.537487 0.152258 0.164980
H11   H     H_    0.183821 0.037602 0.347725 0.164433
H12   H     H_    0.418280 0.971925 0.838457 0.166189
H13   H     H_    0.022785 0.564195 0.726827 0.056361
H14   H     H_    0.477615 0.435476 0.226752 0.056273
H15   H     H_    0.522563 0.936189 0.273404 0.056807
H16   H     H_    0.959385 0.037314 0.795113 0.049910
H17   H     H_    0.052383 0.489051 0.787390 0.118866
H18   H     H_    0.447642 0.510675 0.287232 0.118567
H19   H     H_    0.552255 0.010993 0.212505 0.118711
H20   H     H_    0.950339 0.959624 0.736810 0.115720
C57   C     C_3   0.962991 0.533787 0.858910 -0.806872
H21   H     H_    0.027189 0.495347 0.883790 0.214754
H22   H     H_    0.064795 0.572645 0.857495 0.254304
H23   H     H_    0.841402 0.549461 0.882973 0.279328
C58   C     C_3   0.537478 0.466072 0.358831 -0.809132
H24   H     H_    0.473179 0.504493 0.383662 0.214991
H25   H     H_    0.435828 0.427165 0.357381 0.254312
H26   H     H_    0.659221 0.450484 0.382962 0.279284
C59   C     C_3   0.461413 0.966006 0.141176 -0.806141
H27   H     H_    0.525221 0.004372 0.116100 0.215057
H28   H     H_    0.563190 0.927209 0.142641 0.254219
H29   H     H_    0.339442 0.950129 0.117276 0.279387
C60   C     C_3   0.933096 0.008503 0.662615 -0.821175
H30   H     H_    0.881955 0.964543 0.642861 0.221541
H31   H     H_    0.809651 0.036523 0.673818 0.245799
H32   H     H_    0.012691 0.033495 0.629873 0.279135
C61   C     C_3   0.640138 0.375096 0.720531 -0.992522
H33   H     H_    0.673200 0.346651 0.682388 0.272566
H34   H     H_    0.621788 0.342477 0.756778 0.267374
H35   H     H_    0.505391 0.397304 0.711044 0.210608
C62   C     C_3   0.858814 0.624960 0.220561 -0.973673
H36   H     H_    0.825399 0.653378 0.182404 0.273176
H37   H     H_    0.877127 0.657591 0.256813 0.267309
H38   H     H_    0.993657 0.602849 0.211118 0.210528
C63   C     C_3   0.141530 0.125081 0.279417 -0.974849
H39   H     H_    0.175090 0.153511 0.317569 0.272584
H40   H     H_    0.123465 0.157702 0.243156 0.267517
H41   H     H_    0.006537 0.102971 0.288852 0.210581
C64   C     C_3   0.481569 0.892636 0.763683 -1.007882
H42   H     H_    0.505701 0.862341 0.801306 0.275186
H43   H     H_    0.498438 0.863255 0.725168 0.268536
H44   H     H_    0.594458 0.927641 0.764721 0.207274
N1    N     N_R   0.865272 0.627510 0.770985 0.251720
O21   O     O_R   0.924500 0.673424 0.739589 -0.409131
O22   O     O_R   0.796736 0.640823 0.820467 -0.418026
N2    N     N_R   0.635968 0.372370 0.270985 0.251676
O23   O     O_R   0.577670 0.326366 0.239492 -0.409066
O24   O     O_R   0.704320 0.359151 0.320566 -0.418892
N3    N     N_R   0.365287 0.872586 0.229262 0.251783
O25   O     O_R   0.428206 0.826864 0.260212 -0.408731
O26   O     O_R   0.293845 0.859108 0.180141 -0.417843
N4    N     N_R   0.025979 0.111478 0.743449 0.247589
O27   O     O_R   0.971530 0.152396 0.780736 -0.416605
O28   O     O_R   0.029039 0.128228 0.690463 -0.430649
C65   C     C_3   0.433681 0.593519 0.746674 -0.799168
H45   H     H_    0.304151 0.583199 0.769789 0.230209
H46   H     H_    0.509523 0.629761 0.770367 0.298247
H47   H     H_    0.392766 0.613679 0.705092 0.231906
C66   C     C_3   0.066934 0.406747 0.246832 -0.799557
H48   H     H_    0.991479 0.370470 0.270544 0.298449
H49   H     H_    0.107757 0.386581 0.205275 0.231989
H50   H     H_    0.196515 0.417197 0.269965 0.229939
C67   C     C_3   0.932660 0.906652 0.253478 -0.797878
H51   H     H_    0.803299 0.916959 0.230202 0.230669
H52   H     H_    0.008082 0.870231 0.230027 0.298466
H53   H     H_    0.891398 0.886719 0.295101 0.231894
C68   C     C_3   0.470121 0.120360 0.734729 -0.756125
H54   H     H_    0.354582 0.146233 0.715270 0.284224
H55   H     H_    0.512772 0.145618 0.773761 0.238589
H56   H     H_    0.590282 0.122277 0.705580 0.251309
C69   C     C_3   0.509244 0.520339 0.848527 -0.884407
H57   H     H_    0.356608 0.522345 0.850700 0.229324
H58   H     H_    0.554201 0.492497 0.885744 0.237897
H59   H     H_    0.560087 0.568687 0.853017 0.300361
C70   C     C_3   0.991174 0.479868 0.348640 -0.885609
H60   H     H_    0.143836 0.477960 0.350872 0.229545
H61   H     H_    0.946198 0.507690 0.385832 0.238008
H62   H     H_    0.940611 0.431491 0.353124 0.300233
C71   C     C_3   0.008143 0.979727 0.151525 -0.883029
H63   H     H_    0.855443 0.977937 0.149303 0.229170
H64   H     H_    0.053478 0.007435 0.114284 0.238188
H65   H     H_    0.058006 0.931289 0.147127 0.300268
C72   C     C_3   0.376685 0.041961 0.637681 -0.884079
H66   H     H_    0.513186 0.061397 0.625377 0.237498
H67   H     H_    0.334991 0.009711 0.603097 0.235472
H68   H     H_    0.279555 0.081473 0.639077 0.299720
C73   C     C_3   0.969500 0.476734 0.645285 -0.961553
H69   H     H_    0.096981 0.486464 0.669788 0.244294
H70   H     H_    0.986101 0.431297 0.623094 0.263854
H71   H     H_    0.957452 0.512631 0.611507 0.251690
C74   C     C_3   0.529720 0.523027 0.145253 -0.959113
H72   H     H_    0.402473 0.513200 0.169746 0.243955
H73   H     H_    0.512631 0.568437 0.123039 0.264887
H74   H     H_    0.541821 0.487121 0.111495 0.251457
C75   C     C_3   0.469673 0.023442 0.354994 -0.960367
H75   H     H_    0.597210 0.013659 0.330663 0.244267
H76   H     H_    0.486485 0.068926 0.377124 0.264250
H77   H     H_    0.457216 0.987613 0.388818 0.251574
C76   C     C_3   0.144721 0.957873 0.865320 -0.951881
H78   H     H_    0.000064 0.954240 0.850303 0.246098
H79   H     H_    0.183543 0.913179 0.886092 0.266350
H80   H     H_    0.150266 0.994067 0.899002 0.248826
C77   C     C_3   0.978015 0.383309 0.732924 -0.843904
H81   H     H_    0.106928 0.410656 0.736956 0.203672
H82   H     H_    0.976486 0.348532 0.767895 0.250954
H83   H     H_    0.991048 0.355902 0.693095 0.257194
C78   C     C_3   0.521044 0.616511 0.232835 -0.823406
H84   H     H_    0.392314 0.589080 0.236851 0.201709
H85   H     H_    0.522534 0.651315 0.267786 0.252250
H86   H     H_    0.507643 0.643883 0.192987 0.259648
C79   C     C_3   0.479262 0.116615 0.267128 -0.824022
H87   H     H_    0.607800 0.089149 0.263249 0.201733
H88   H     H_    0.478163 0.151299 0.232077 0.252240
H89   H     H_    0.492728 0.144120 0.306903 0.259423
C80   C     C_3   0.152927 0.865574 0.776671 -0.801249
H90   H     H_    0.006377 0.878124 0.782839 0.215977
H91   H     H_    0.158981 0.831641 0.741066 0.249493
H92   H     H_    0.195308 0.839227 0.815155 0.253846

loop_
_geom_bond_atom_site_label_1
_geom_bond_atom_site_label_2
_geom_bond_distance
_ccdc_geom_bond_type
C36   C48   1.500156 S    
C51   C55   1.215204 T    
C5    C55   1.449992 S    
O1    C5    1.331483 A    
C68   H54   1.102522 S    
C16   C28   1.578642 S    
C17   C69   1.546775 S    
O19   V1    1.769090 S    
O13   V1    1.967609 S    
C71   H63   1.107093 S    
O3    C7    1.331368 A    
C10   C30   1.580815 S    
C40   C44   1.605138 S    
O15   V3    1.968954 S    
N4    O28   1.299220 A    
C65   H45   1.106916 S    
C19   C71   1.546804 S    
C40   C64   1.563270 S    
C30   C58   1.546810 S    
C34   C38   1.609513 S    
C74   H72   1.107481 S    
C78   H86   1.110592 S    
O7    C3    1.333908 A    
C58   H25   1.110267 S    
C70   H60   1.107006 S    
C15   C67   1.547730 S    
C32   C36   1.584365 S    
O9    V1    1.981090 S    
C27   C51   1.498719 S    
C14   C18   1.579208 S    
C66   H49   1.110500 S    
O4    C8    1.331327 A    
C75   H76   1.109709 S    
O1    V3    1.968026 S    
C62   H37   1.110580 S    
O2    V4    1.968762 S    
C79   H87   1.104542 S    
C25   C41   1.584159 S    
C78   H85   1.109894 S    
C12   N4    1.477514 S    
C62   H38   1.107723 S    
C31   H19   1.105043 S    
C44   C76   1.552298 S    
C59   H28   1.110287 S    
C65   H46   1.100677 S    
C14   C26   1.577097 S    
C1    O15   1.331292 A    
C67   H51   1.106970 S    
C29   H17   1.104992 S    
C2    O16   1.331640 A    
C73   H70   1.109695 S    
C37   C61   1.562258 S    
C38   C42   1.605298 S    
C63   H41   1.107731 S    
C37   C41   1.605274 S    
O14   V2    1.968304 S    
C6    C56   1.449789 S    
C67   H52   1.100500 S    
C14   C66   1.547747 S    
C4    C21   1.449745 S    
C18   C70   1.546806 S    
C43   H11   1.114827 S    
C64   H44   1.107564 S    
C41   C73   1.553115 S    
C20   H8    1.109218 S    
C12   C32   1.581607 S    
O11   C7    1.333871 A    
O12   C8    1.334060 A    
C30   H18   1.104969 S    
O10   C6    1.334260 A    
C79   H88   1.109898 S    
C43   C75   1.553145 S    
O10   V2    1.979765 S    
C17   H5    1.110661 S    
C69   H58   1.108577 S    
C69   H57   1.106962 S    
O5    V1    1.979835 S    
C72   H67   1.108805 S    
C34   C46   1.500508 S    
C58   H26   1.100160 S    
C31   C35   1.583300 S    
O7    V3    1.982237 S    
C30   C34   1.583468 S    
O8    V4    1.980877 S    
C57   H21   1.111243 S    
C52   C56   1.215243 T    
C16   C68   1.548140 S    
C35   C47   1.500322 S    
C20   C72   1.547559 S    
C26   C50   1.498894 S    
N2    O24   1.299508 A    
C61   H35   1.107727 S    
C42   C74   1.553100 S    
O18   V4    1.767729 S    
C75   H77   1.109019 S    
C15   C19   1.579054 S    
C77   H82   1.109877 S    
C72   H66   1.110270 S    
C28   C44   1.584588 S    
O4    V2    1.967414 S    
C59   H29   1.099996 S    
C36   C40   1.609332 S    
C4    O14   1.331521 A    
C31   C59   1.546884 S    
C76   H80   1.109034 S    
C29   C57   1.546842 S    
C19   C35   1.583202 S    
O5    C1    1.334130 A    
C9    N1    1.476696 S    
C33   C45   1.500313 S    
C23   C47   1.215135 T    
C12   H16   1.112379 S    
C10   N2    1.476712 S    
O8    C4    1.333739 A    
C73   H71   1.109000 S    
C15   C27   1.577164 S    
C37   C77   1.569510 S    
O9    C5    1.334062 A    
C1    C24   1.449647 S    
C64   H43   1.110639 S    
C67   H53   1.110552 S    
C10   C26   1.571694 S    
C2    C23   1.449840 S    
C62   H36   1.111660 S    
C3    C22   1.449944 S    
C44   H12   1.114894 S    
C9    C29   1.580651 S    
O6    V2    1.981160 S    
C18   H6    1.110655 S    
C77   H81   1.104523 S    
C70   H62   1.101589 S    
N1    O21   1.301584 A    
C71   H65   1.101681 S    
C11   N3    1.476473 S    
C66   H50   1.106875 S    
C68   H55   1.109884 S    
O12   V4    1.982165 S    
C28   C52   1.498614 S    
C13   H1    1.114102 S    
C27   C43   1.584155 S    
C69   H59   1.101612 S    
C65   H47   1.110498 S    
C26   C42   1.584183 S    
C15   H3    1.114160 S    
C60   H30   1.111488 S    
O16   V4    1.968218 S    
C80   H92   1.110593 S    
C76   H78   1.107509 S    
C39   C79   1.569508 S    
C80   H90   1.104231 S    
C16   H4    1.113971 S    
C3    O13   1.331497 A    
C9    C25   1.571630 S    
C32   C60   1.545264 S    
C74   H74   1.109004 S    
C72   H68   1.099946 S    
O17   V3    1.767729 S    
C18   C34   1.583092 S    
C10   H14   1.109618 S    
N2    O23   1.301566 A    
C12   C28   1.573544 S    
C9    H13   1.109613 S    
O6    C2    1.333916 A    
C17   C33   1.583075 S    
N3    O25   1.301747 A    
C60   H32   1.101396 S    
O11   V3    1.980804 S    
C40   C80   1.569344 S    
C11   H15   1.109633 S    
C68   H56   1.109699 S    
C38   C78   1.569552 S    
C58   H24   1.111249 S    
C24   C48   1.215045 T    
C57   H22   1.110235 S    
C13   C65   1.547781 S    
O2    C6    1.331144 A    
C61   H34   1.110589 S    
C64   H42   1.111663 S    
C32   H20   1.104718 S    
C41   H9    1.114802 S    
C50   C54   1.215336 T    
C66   H48   1.100713 S    
C77   H83   1.110597 S    
C39   C43   1.605460 S    
N3    O26   1.299497 A    
C38   C62   1.562232 S    
O3    V1    1.968108 S    
C75   H75   1.107454 S    
C63   H39   1.111663 S    
C19   H7    1.110657 S    
C33   C37   1.609549 S    
C42   H10   1.114802 S    
O20   V2    1.769090 S    
C79   H89   1.110601 S    
C35   C39   1.609795 S    
C13   C17   1.579144 S    
C78   H84   1.104523 S    
C25   C49   1.498696 S    
C49   C53   1.215213 T    
C14   H2    1.114097 S    
C20   C36   1.582588 S    
C11   C27   1.571573 S    
C29   C33   1.583458 S    
C16   C20   1.579595 S    
C70   H61   1.108577 S    
C73   H69   1.107466 S    
C7    C53   1.449883 S    
C59   H27   1.111219 S    
C63   H40   1.110584 S    
N1    O22   1.299476 A    
N4    O27   1.301495 A    
C39   C63   1.562207 S    
C11   C31   1.580235 S    
C57   H23   1.100123 S    
C60   H31   1.108370 S    
C21   C45   1.215113 T    
C61   H33   1.111665 S    
C80   H91   1.110021 S    
C8    C54   1.450078 S    
C13   C25   1.577130 S    
C74   H73   1.109693 S    
C76   H79   1.109661 S    
C22   C46   1.215225 T    
C71   H64   1.108573 S    
