data_mof_unit_48937.cif
_audit_creation_date              2012-12-10T18:14:34-0500
_audit_creation_method            fapswitch 2.2
_symmetry_space_group_name_H-M    P1
_symmetry_Int_Tables_number       1
_space_group_crystal_system       triclinic
_cell_length_a                    10.728975
_cell_length_b                    9.456724
_cell_length_c                    27.799072
_cell_angle_alpha                 89.658786
_cell_angle_beta                  90.596406
_cell_angle_gamma                 90.968237
_cell_volume                      2819.91778417

loop_
_atom_site_label
_atom_site_type_symbol
_atom_type_description
_atom_site_fract_x
_atom_site_fract_y
_atom_site_fract_z
_atom_type_partial_charge
C1    C     C_R   0.259641 0.499965 0.500362 0.791681
C2    C     C_R   0.395274 0.550839 0.974562 -0.024941
C3    C     C_R   0.612522 0.468997 0.974523 0.066150
C4    C     C_R   0.501370 0.500274 0.407589 0.853917
C5    C     C_R   0.502784 0.509697 0.949207 0.068535
C6    C     C_R   0.286977 0.584239 0.947750 -0.284527
C7    C     C_R   0.283530 0.579436 0.897592 0.515846
C8    C     C_R   0.391832 0.545954 0.872092 -0.133899
C9    C     C_R   0.500959 0.509792 0.897976 -0.109250
C10   C     C_R   0.608720 0.473574 0.872521 0.010980
C11   C     C_R   0.606123 0.473493 0.822097 0.545429
C12   C     C_R   0.471018 0.379719 0.278813 0.387829
C13   C     C_R   0.394346 0.545826 0.821291 0.571801
C14   C     C_R   0.425082 0.405510 0.721672 -0.126148
C15   C     C_R   0.422775 0.402039 0.671465 0.336523
C16   C     C_R   0.739850 0.501214 0.500511 0.749505
C17   C     C_R   0.569082 0.601312 0.669814 -0.283970
C18   C     C_R   0.570691 0.604076 0.719927 -0.081027
C19   C     C_R   0.499013 0.505953 0.746027 0.276051
C20   C     C_R   0.398744 0.556083 0.025720 0.070127
C21   C     C_R   0.506322 0.508975 0.050956 0.078414
C22   C     C_R   0.612455 0.462972 0.025650 0.039096
C23   C     C_R   0.510628 0.501839 0.253896 0.191183
C24   C     C_R   0.298050 0.607176 0.052836 -0.196395
C25   C     C_R   0.714603 0.409025 0.102572 -0.118344
C26   C     C_R   0.719342 0.436412 0.947596 -0.201219
C27   C     C_R   0.717029 0.438193 0.897729 -0.146843
C28   C     C_R   0.497824 0.499632 0.592362 0.844377
C29   C     C_R   0.714874 0.411109 0.052621 -0.197938
C30   C     C_3   0.073690 0.656513 0.506358 -0.365243
C31   C     C_3   0.070744 0.415129 0.543920 -0.353123
C32   C     C_3   0.930541 0.656959 0.505860 -0.385542
C33   C     C_3   0.927154 0.413865 0.543550 -0.379327
C34   C     C_R   0.507699 0.507613 0.102137 -0.043868
C35   C     C_3   0.068368 0.445749 0.452317 -0.368714
C36   C     C_3   0.121381 0.502701 0.500726 0.117198
C37   C     C_3   0.877626 0.503563 0.500825 0.159174
C38   C     C_3   0.924906 0.440352 0.453252 -0.380463
C39   C     C_3   0.628880 0.085646 0.503818 -0.342087
C40   C     C_3   0.628619 0.918409 0.505818 -0.334205
C41   C     C_3   0.434309 0.081650 0.543320 -0.201517
C42   C     C_3   0.429163 0.914516 0.542057 -0.232009
C43   C     C_3   0.440577 0.082317 0.456524 0.456630
C44   C     C_3   0.448525 0.913675 0.454738 0.453737
C45   C     C_R   0.404495 0.555956 0.127841 -0.032144
C46   C     C_R   0.407503 0.553172 0.178322 0.641284
C47   C     C_R   0.611379 0.456724 0.178262 0.643381
C48   C     C_R   0.549168 0.622649 0.279569 0.399433
C49   C     C_R   0.547056 0.621383 0.329726 -0.293162
C50   C     C_R   0.468759 0.379332 0.328985 -0.242008
C51   C     C_3   0.215854 0.086851 0.466291 -0.252756
C52   C     C_3   0.308445 0.850637 0.392976 -0.298081
C53   C     C_3   0.090438 0.501277 0.874977 -0.218685
C54   C     C_R   0.300999 0.606556 0.102776 -0.123084
C55   C     C_R   0.612193 0.457690 0.127757 -0.032773
C56   C     C_R   0.505485 0.500511 0.354759 -0.177917
C57   C     C_R   0.496420 0.499759 0.645145 -0.115487
Cl1   Cl    Cl    0.600001 0.776873 0.249447 -0.524655
Cl2   Cl    Cl    0.422395 0.226669 0.247720 -0.523174
Cl3   Cl    Cl    0.320116 0.280297 0.643292 -0.687887
Cu1   Cu    Cu3+1 0.499860 0.642410 0.500020 0.941413
Cu2   Cu    Cu3+1 0.499860 0.357590 0.500020 0.962224
H1    H     H_    0.436766 0.284933 0.347727 0.199875
H2    H     H_    0.109148 0.703048 0.540672 0.166421
H3    H     H_    0.105749 0.462322 0.578186 0.192716
H4    H     H_    0.897055 0.705222 0.539695 0.165832
H5    H     H_    0.892884 0.456648 0.578118 0.164769
H6    H     H_    0.897555 0.723696 0.475304 0.166157
H7    H     H_    0.892225 0.302678 0.540683 0.167321
H8    H     H_    0.099485 0.516416 0.422428 0.172108
H9    H     H_    0.103695 0.339886 0.443925 0.185559
H10   H     H_    0.887049 0.500481 0.421960 0.165388
H11   H     H_    0.891842 0.328642 0.449633 0.167443
H12   H     H_    0.795462 0.368395 0.121417 0.194529
H13   H     H_    0.678552 0.127643 0.536181 0.186737
H14   H     H_    0.672257 0.882676 0.540202 0.179408
H15   H     H_    0.683760 0.122207 0.472217 0.154335
H16   H     H_    0.688824 0.878881 0.476654 0.156128
H17   H     H_    0.483562 0.114257 0.576975 0.199481
H18   H     H_    0.469088 0.875320 0.576582 0.173936
H19   H     H_    0.500534 0.117046 0.426080 0.052249
H20   H     H_    0.517321 0.888137 0.426145 0.029006
H21   H     H_    0.339915 0.125780 0.546608 0.191433
H22   H     H_    0.331995 0.873069 0.541587 0.162073
H23   H     H_    0.807773 0.411201 0.963828 0.133051
H24   H     H_    0.221190 0.646296 0.121712 0.195642
H25   H     H_    0.368496 0.330803 0.741952 0.175844
H26   H     H_    0.201064 0.612657 0.964454 0.155553
H27   H     H_    0.215479 0.650912 0.036779 0.144989
H28   H     H_    0.578100 0.714851 0.349083 0.182468
H29   H     H_    0.229247 0.997386 0.490830 0.161653
H30   H     H_    0.148492 0.054560 0.437715 0.173925
H31   H     H_    0.171234 0.167150 0.488121 0.150802
H32   H     H_    0.208767 0.822438 0.386927 0.181102
H33   H     H_    0.364283 0.772570 0.373555 0.192010
H34   H     H_    0.625666 0.677730 0.650241 0.162143
H35   H     H_    0.325146 0.957734 0.377368 0.186935
H36   H     H_    0.057407 0.479948 0.912158 0.122323
H37   H     H_    0.131786 0.404466 0.859552 0.163533
H38   H     H_    0.007817 0.527816 0.852591 0.208712
H39   H     H_    0.801292 0.411428 0.878944 0.169667
H40   H     H_    0.627356 0.682685 0.738533 0.159510
H41   H     H_    0.796540 0.368389 0.036352 0.142113
H42   H     H_    0.108347 0.725148 0.476514 0.199963
H43   H     H_    0.104150 0.305135 0.543557 0.176039
N1    N     N_R   0.509899 0.503920 0.202326 -0.438226
N2    N     N_R   0.500043 0.509047 0.797647 -0.466082
N3    N     N_3   0.500250 0.143650 0.501060 -0.172533
N4    N     N_3   0.500250 0.856350 0.501060 -0.156273
O1    O     O_R   0.317570 0.620260 0.500030 -0.545785
O2    O     O_2   0.292748 0.583067 0.795496 -0.470715
O3    O     O_2   0.710990 0.409145 0.203176 -0.496445
O4    O     O_2   0.708554 0.436843 0.797605 -0.539073
O5    O     O_3   0.324065 0.145668 0.444620 -0.561695
O6    O     O_3   0.334007 0.844462 0.442978 -0.573545
O7    O     O_3   0.175045 0.617048 0.873768 -0.529122
O8    O     O_R   0.317570 0.379740 0.500030 -0.542111
O9    O     O_R   0.499900 0.620250 0.430280 -0.570819
O10   O     O_R   0.499900 0.379750 0.430280 -0.564816
O11   O     O_R   0.682190 0.620260 0.500010 -0.603509
O12   O     O_R   0.682190 0.379740 0.500010 -0.603782
O13   O     O_R   0.499860 0.620280 0.569750 -0.601171
O14   O     O_R   0.499860 0.379720 0.569750 -0.553928
O15   O     O_2   0.308976 0.599036 0.203294 -0.500758

loop_
_geom_bond_atom_site_label_1
_geom_bond_atom_site_label_2
_ccdc_geom_bond_type
C10   C27   A    
C42   H18   S    
C8    C13   A    
C41   N3    S    
C30   H2    S    
C46   O15   S    
C31   H43   S    
C41   C42   S    
C35   C36   S    
C49   H28   S    
C13   N2    A    
Cu1   N4    S    
C24   H27   S    
C28   O14   A    
C7    C8    A    
C28   C57   S    
C53   H37   S    
C12   C23   A    
C26   C27   A    
C39   H15   S    
C47   C55   A    
C22   C29   A    
C42   N4    S    
C14   H25   S    
C18   C19   A    
C44   H20   S    
C16   O11   A    
C43   O5    S    
C18   H40   S    
C51   H30   S    
C28   O13   A    
Cu2   N3    S    
C24   C54   A    
C47   O3    S    
C41   H21   S    
C52   H35   S    
C6    H26   S    
C29   H41   S    
C52   H33   S    
C25   H12   S    
C15   Cl3   S    
Cu2   O8    S    
C51   H29   S    
C12   Cl2   S    
C20   C24   A    
C44   O6    S    
C8    C9    A    
C31   C33   S    
C4    O10   A    
C52   H32   S    
C39   H13   S    
C9    C10   A    
C53   O7    S    
C33   H7    S    
C16   C37   S    
C32   H6    S    
C44   N4    S    
C35   H9    S    
C34   C55   A    
C21   C22   A    
C4    C56   S    
Cu1   O11   S    
C50   H1    S    
C15   C57   A    
C4    O9    A    
C2    C6    A    
Cu1   O1    S    
Cu2   O14   S    
C53   H38   S    
C25   C29   A    
C39   N3    S    
C38   H10   S    
C51   O5    S    
C2    C20   A    
C35   C38   S    
C42   H22   S    
C35   H8    S    
C39   C40   S    
C54   H24   S    
C21   C34   A    
C45   C46   A    
C23   N1    S    
C27   H39   S    
C33   C37   S    
C40   H14   S    
Cu1   O13   S    
C7    O7    S    
C43   C44   S    
C5    C9    A    
C37   C38   S    
C1    O1    A    
C47   N1    A    
C17   C18   A    
C17   H34   S    
C1    O8    A    
C32   C37   S    
Cu2   O10   S    
C6    C7    A    
C34   C45   A    
C51   H31   S    
C48   C49   A    
C45   C54   A    
C11   N2    A    
C43   H19   S    
C40   H16   S    
C2    C5    A    
C33   H5    S    
C32   H4    S    
C52   O6    S    
C31   H3    S    
C16   O12   A    
C23   C48   A    
Cu1   O9    S    
C31   C36   S    
C14   C19   A    
C3    C26   A    
C25   C55   A    
C3    C5    A    
C41   H17   S    
C12   C50   A    
C48   Cl1   S    
C40   N4    S    
C53   H36   S    
C49   C56   A    
C30   C36   S    
C13   O2    S    
C30   C32   S    
C26   H23   S    
C46   N1    A    
C43   N3    S    
Cu1   Cu2   S    
C11   O4    S    
C50   C56   A    
C10   C11   A    
C20   C21   A    
C30   H42   S    
C14   C15   A    
C3    C22   A    
Cu2   O12   S    
C1    C36   S    
C17   C57   A    
C38   H11   S    
C19   N2    S    
