data_mof_unit_6133.cif
_audit_creation_date              2013-03-05T15:51:23-0500
_audit_creation_method            fapswitch 2.2
_symmetry_space_group_name_H-M    P1
_symmetry_Int_Tables_number       1
_space_group_crystal_system       triclinic
_cell_length_a                    10.746671
_cell_length_b                    10.833622
_cell_length_c                    9.578797
_cell_angle_alpha                 89.601717
_cell_angle_beta                  90.287304
_cell_angle_gamma                 91.802184
_cell_volume                      1114.62360844

loop_
_atom_site_label
_atom_site_type_symbol
_atom_site_description
_atom_site_fract_x
_atom_site_fract_y
_atom_site_fract_z
_atom_type_partial_charge
O1    O     O_R   0.499990 0.319640 0.618810 -0.539515
O2    O     O_R   0.500000 0.319660 0.381240 -0.588091
C1    C     C_R   0.508540 0.262373 0.501431 0.869262
O3    O     O_R   0.317680 0.499970 0.618790 -0.556145
O4    O     O_R   0.317700 0.499990 0.381210 -0.601696
C2    C     C_R   0.260390 0.504854 0.499522 0.778076
Cu1   Cu    Cu3+1 0.499990 0.499990 0.640660 0.993723
Cu2   Cu    Cu3+1 0.500010 0.500010 0.359340 0.936617
O5    O     O_R   0.500000 0.680340 0.618760 -0.618474
O6    O     O_R   0.500010 0.680360 0.381190 -0.609405
O7    O     O_R   0.682300 0.500010 0.618790 -0.572358
O8    O     O_R   0.682320 0.500030 0.381210 -0.602955
C3    C     C_R   0.489602 0.737024 0.499945 0.749324
C4    C     C_R   0.740183 0.503660 0.500045 0.785561
C5    C     C_3   0.067662 0.375166 0.528402 0.162495
H1    H     H_    0.086917 0.317691 0.435256 0.089475
C6    C     C_3   0.924935 0.378742 0.544132 -0.359763
H2    H     H_    0.879968 0.304729 0.479443 0.160932
H3    H     H_    0.898047 0.361409 0.654469 0.267332
H4    H     H_    0.104711 0.573578 0.715695 0.222427
H5    H     H_    0.894236 0.587942 0.709355 0.196282
C7    C     C_3   0.075134 0.600428 0.608892 -0.359745
C8    C     C_3   0.072324 0.549972 0.350941 -0.095300
C9    C     C_3   0.122509 0.508454 0.498202 -0.001063
H6    H     H_    0.106513 0.484403 0.271607 0.162420
C10   C     C_3   0.878429 0.506588 0.499318 0.043751
C11   C     C_3   0.931752 0.604898 0.602682 -0.401556
C12   C     C_3   0.928404 0.538228 0.350664 -0.395630
H7    H     H_    0.898251 0.464366 0.276389 0.183777
H8    H     H_    0.886525 0.624963 0.312998 0.172958
H9    H     H_    0.116610 0.694479 0.591034 0.144442
H10   H     H_    0.903432 0.698558 0.569251 0.156559
H11   H     H_    0.521162 0.113001 0.279942 0.166227
C13   C     C_R   0.545390 0.107393 0.767454 0.358269
C14   C     C_R   0.498549 0.049234 0.888478 -0.196910
H12   H     H_    0.520715 0.085753 0.990868 0.164403
C15   C     C_R   0.428629 0.939557 0.878822 -0.196125
H13   H     H_    0.392176 0.895346 0.972211 0.152315
C16   C     C_R   0.414922 0.881339 0.750390 -0.142087
H14   H     H_    0.362136 0.794738 0.747611 0.157486
C17   C     C_R   0.466635 0.935845 0.628349 0.063245
C18   C     C_R   0.510559 0.059338 0.634010 0.016945
C19   C     C_R   0.517188 0.127395 0.505959 -0.069490
C20   C     C_R   0.513092 0.064212 0.378752 -0.198232
H15   H     H_    0.507228 0.890147 0.277803 0.165590
C21   C     C_R   0.500636 0.936911 0.377002 -0.215393
C22   C     C_R   0.479146 0.871221 0.501321 -0.092016
H16   H     H_    0.361015 0.360152 0.129613 0.141980
C23   C     C_R   0.662314 0.665526 0.143667 -0.168399
H17   H     H_    0.670797 0.672965 0.253468 0.198264
C24   C     C_R   0.741325 0.746671 0.071301 -0.226869
H18   H     H_    0.803140 0.809904 0.127514 0.159373
C25   C     C_R   0.742038 0.746078 0.927599 -0.193253
H19   H     H_    0.804406 0.808837 0.871191 0.164939
C26   C     C_R   0.663446 0.664611 0.855534 -0.139769
H20   H     H_    0.672893 0.671389 0.745722 0.192336
C27   C     C_R   0.580132 0.581096 0.924954 0.227732
C28   C     C_R   0.579851 0.581286 0.074611 0.222022
N1    N     N_R   0.501200 0.501210 0.147910 -0.201441
C29   C     C_R   0.423529 0.423210 0.074127 -0.059878
H21   H     H_    0.361233 0.360109 0.870821 0.184974
C30   C     C_R   0.423445 0.423363 0.926102 0.002536
N2    N     N_R   0.501250 0.501290 0.852040 -0.200103
N3    N     N_R   0.124682 0.315325 0.650201 0.139930
O9    O     O_R   0.105729 0.354296 0.776321 -0.385516
O10   O     O_R   0.191312 0.218429 0.632750 -0.382681
N4    N     N_R   0.645992 0.197000 0.781620 0.131932
O11   O     O_R   0.661271 0.259172 0.896545 -0.375065
O12   O     O_R   0.734518 0.200523 0.689637 -0.410763
C31   C     C_3   0.117059 0.682635 0.306333 -0.360732
C32   C     C_3   0.109416 0.700936 0.147371 -0.367150
C33   C     C_3   0.139395 0.834912 0.106609 -0.830450
H22   H     H_    0.067796 0.896076 0.148888 0.259019
H23   H     H_    0.232191 0.864584 0.148115 0.250355
H24   H     H_    0.140130 0.844140 0.991065 0.248945
H25   H     H_    0.177035 0.640569 0.095876 0.226686
H26   H     H_    0.014619 0.675142 0.108497 0.231999
H27   H     H_    0.060027 0.752498 0.358683 0.207273
H28   H     H_    0.214936 0.701641 0.339197 0.203830

loop_
_geom_bond_atom_site_label_1
_geom_bond_atom_site_label_2
_geom_bond_distance
_ccdc_geom_bond_type
C26   H20   1.059088 S    
C31   H27   1.112426 S    
C17   C18   1.405952 A    
C14   H12   1.082736 S    
C13   C18   1.427313 A    
Cu1   Cu2   2.694707 S    
C16   C17   1.414352 A    
H15   C21   1.083605 S    
Cu1   O7    1.971431 S    
C1    C19   1.468499 S    
C10   C11   1.553573 S    
C30   N2    1.366885 A    
C6    C10   1.544514 S    
C12   H7    1.113906 S    
C14   C15   1.389120 A    
C33   H24   1.110634 S    
Cu2   N1    2.025298 S    
C32   H25   1.112226 S    
O7    C4    1.298921 A    
C5    H1    1.115474 S    
C29   C30   1.417882 A    
C13   C14   1.403577 A    
O5    C3    1.295457 A    
C23   C24   1.387364 A    
C5    N3    1.471135 S    
C27   N2    1.382134 A    
C31   C32   1.536272 S    
C31   H28   1.109878 S    
H5    C11   1.112310 S    
N1    C29   1.366865 A    
C8    C31   1.558647 S    
O3    Cu1   1.969342 S    
C20   C21   1.381624 A    
H16   C29   1.081749 S    
C25   C26   1.387273 A    
C7    H9    1.111711 S    
C24   H18   1.083251 S    
C33   H23   1.110644 S    
C16   H14   1.081418 S    
C3    C22   1.461849 S    
C28   N1    1.382505 A    
C25   H19   1.083193 S    
C23   C28   1.416834 A    
N4    O11   1.301537 A    
C24   C25   1.376616 A    
N3    O10   1.301353 A    
C19   C20   1.401563 A    
C15   H13   1.081132 S    
Cu2   O8    1.969342 S    
C2    C9    1.483482 S    
C6    H2    1.113529 S    
C17   C22   1.417106 A    
C8    C12   1.547889 S    
C4    C10   1.485079 S    
Cu1   N2    2.024888 S    
O3    C2    1.296612 A    
C5    C9    1.567992 S    
O8    C4    1.294573 A    
C7    C11   1.543991 S    
C26   C27   1.417423 A    
C7    C9    1.558285 S    
C18   C19   1.427641 A    
C32   H26   1.111013 S    
N4    O12   1.299423 A    
C5    C6    1.543697 S    
C21   C22   1.399459 A    
C11   H10   1.112959 S    
O1    Cu1   1.966468 S    
H11   C20   1.083376 S    
O2    Cu2   1.963620 S    
H4    C7    1.109360 S    
C33   H22   1.110881 S    
O6    C3    1.303319 A    
C13   N4    1.436671 S    
O4    Cu2   1.971431 S    
C10   C12   1.556529 S    
N3    O9    1.301598 A    
C12   H8    1.111723 S    
O2    C1    1.308299 A    
C32   C33   1.525425 S    
C15   C16   1.391428 A    
C27   C28   1.433576 A    
O4    C2    1.294721 A    
C6    H3    1.110260 S    
C8    H6    1.115252 S    
H21   C30   1.081509 S    
C8    C9    1.575353 S    
Cu1   O5    1.963620 S    
Cu2   O6    1.966468 S    
C23   H17   1.058665 S    
O1    C1    1.292987 A    
