data_mof_unit_59362.cif
_audit_creation_date              2012-12-10T17:43:22-0500
_audit_creation_method            fapswitch 2.2
_symmetry_space_group_name_H-M    P1
_symmetry_Int_Tables_number       1
_space_group_crystal_system       triclinic
_cell_length_a                    15.05233
_cell_length_b                    13.958459
_cell_length_c                    10.792971
_cell_angle_alpha                 89.668844
_cell_angle_beta                  84.694343
_cell_angle_gamma                 91.267267
_cell_volume                      2257.34459252

loop_
_atom_site_label
_atom_site_type_symbol
_atom_type_description
_atom_site_fract_x
_atom_site_fract_y
_atom_site_fract_z
_atom_type_partial_charge
C1    C     C_R   0.329316 0.498994 0.499760 0.886181
C2    C     C_R   0.670938 0.500646 0.499446 0.859460
C3    C     C_R   0.953793 0.483924 0.495221 0.062325
C4    C     C_R   0.047173 0.482314 0.496832 0.068814
C5    C     C_R   0.916201 0.503568 0.382694 -0.007264
C6    C     C_R   0.084924 0.464108 0.609711 0.008511
C7    C     C_R   0.935379 0.431046 0.712603 -0.177509
C8    C     C_R   0.065211 0.510205 0.271867 -0.184661
C9    C     C_R   0.029239 0.426680 0.713044 -0.070190
C10   C     C_R   0.972220 0.502930 0.269767 -0.064312
C11   C     C_R   0.440444 0.791554 0.580825 0.116483
C12   C     C_R   0.561205 0.207393 0.423105 0.102767
C13   C     C_R   0.554910 0.795497 0.413970 0.103375
C14   C     C_R   0.437509 0.204843 0.576429 0.098966
C15   C     C_R   0.551882 0.898545 0.405575 -0.102699
C16   C     C_R   0.437987 0.101562 0.582959 -0.111928
C17   C     C_R   0.434517 0.894519 0.577766 -0.097000
C18   C     C_R   0.554679 0.105096 0.410488 -0.096107
C19   C     C_R   0.494509 0.948223 0.493673 0.098043
C20   C     C_R   0.495567 0.051549 0.495596 0.096655
C21   C     C_R   0.602241 0.953831 0.310220 -0.074391
C22   C     C_R   0.379398 0.046367 0.668871 -0.076224
C23   C     C_R   0.371668 0.945890 0.657687 -0.082491
C24   C     C_R   0.603954 0.055063 0.313378 -0.077049
C25   C     C_R   0.501879 0.500218 0.259486 0.908730
C26   C     C_R   0.500063 0.499781 0.740411 0.883297
C27   C     C_3   0.464254 0.579718 0.045446 -0.058923
C28   C     C_3   0.540353 0.420523 0.954376 -0.028406
C29   C     C_3   0.548074 0.576643 0.951392 -0.063418
C30   C     C_3   0.456882 0.423306 0.048262 -0.029488
C31   C     C_3   0.416969 0.502473 0.970886 -0.241122
C32   C     C_3   0.587396 0.497379 0.029318 -0.213116
C33   C     C_3   0.501483 0.499526 0.877287 -0.133282
C34   C     C_3   0.502835 0.500380 0.122451 -0.123646
C35   C     C_R   0.823222 0.519555 0.385736 -0.038449
C36   C     C_R   0.177566 0.482704 0.614473 -0.011782
C37   C     C_R   0.768199 0.500061 0.495891 -0.112887
C38   C     C_R   0.232470 0.495427 0.502506 -0.079064
C39   C     C_R   0.805023 0.469408 0.602201 -0.169865
C40   C     C_R   0.195547 0.502707 0.389966 -0.208015
C41   C     C_R   0.897881 0.463647 0.605143 0.049568
C42   C     C_R   0.102944 0.500189 0.385726 0.033872
Cu1   Cu    Cu3+1 0.500000 0.597420 0.500000 1.046909
Cu2   Cu    Cu3+1 0.500000 0.402580 0.500000 1.050530
H1    H     H_    0.345977 0.505023 0.952837 0.226735
H2    H     H_    0.658241 0.494081 0.048027 0.250503
N1    N     N_R   0.500000 0.743810 0.500000 -0.277736
N2    N     N_R   0.500000 0.256190 0.500000 -0.272150
O1    O     O_R   0.370260 0.582280 0.500030 -0.556063
O2    O     O_R   0.629740 0.417720 0.499970 -0.587489
O3    O     O_R   0.629740 0.582280 0.499970 -0.562858
O4    O     O_R   0.370260 0.417720 0.500030 -0.567259
O5    O     O_R   0.499980 0.582260 0.316850 -0.569251
O6    O     O_R   0.500020 0.417740 0.683150 -0.547463
O7    O     O_R   0.500020 0.582260 0.683150 -0.586630
O8    O     O_R   0.499980 0.417740 0.316850 -0.558384
C43   C     C_2   0.415635 0.664031 0.102152 0.928622
O9    O     O_2   0.444042 0.745604 0.080669 -0.452016
O10   O     O_R   0.337510 0.648056 0.180468 -0.768672
H3    H     H_    0.310652 0.709685 0.214170 0.359646
C44   C     C_2   0.587071 0.333886 0.901724 0.915940
O11   O     O_2   0.667346 0.326931 0.907235 -0.559600
O12   O     O_R   0.539139 0.262036 0.845694 -0.660278
H4    H     H_    0.578243 0.207985 0.812516 0.345356
C45   C     C_2   0.606650 0.655902 0.892200 0.918645
O13   O     O_2   0.590946 0.739537 0.916009 -0.462715
O14   O     O_R   0.679799 0.632695 0.809448 -0.762180
H5    H     H_    0.714420 0.691448 0.774504 0.353185
C46   C     C_2   0.404307 0.339522 0.106451 0.920193
O15   O     O_2   0.427826 0.257921 0.083275 -0.510635
O16   O     O_R   0.329687 0.355703 0.189812 -0.772484
H6    H     H_    0.300341 0.294040 0.224866 0.342861
C47   C     C_2   0.784709 0.561318 0.276716 0.879376
O17   O     O_2   0.715193 0.528322 0.243421 -0.631934
O18   O     O_R   0.829791 0.637087 0.210486 -0.687346
H7    H     H_    0.803215 0.652972 0.130216 0.341831
C48   C     C_2   0.213923 0.507501 0.733683 0.871961
O19   O     O_2   0.289297 0.485072 0.752714 -0.643308
O20   O     O_R   0.163488 0.562071 0.821167 -0.681722
H8    H     H_    0.198973 0.582046 0.892305 0.378720
H9    H     H_    0.759485 0.450944 0.682731 0.183273
H10   H     H_    0.240246 0.512239 0.306131 0.202730
C49   C     C_2   0.875822 0.396305 0.821541 0.946882
O21   O     O_2   0.829460 0.453308 0.881875 -0.508187
O22   O     O_R   0.869861 0.299096 0.853862 -0.679694
H11   H     H_    0.908042 0.257943 0.794089 0.314044
C50   C     C_2   0.122445 0.527131 0.154169 0.952919
O23   O     O_2   0.128032 0.607535 0.108826 -0.483827
O24   O     O_R   0.170376 0.453073 0.095176 -0.717653
H12   H     H_    0.158327 0.389266 0.139475 0.323772
C51   C     C_2   0.068776 0.370649 0.811532 0.870981
O25   O     O_2   0.041820 0.379279 0.920972 -0.531668
O26   O     O_R   0.136374 0.306258 0.777759 -0.715078
H13   H     H_    0.156931 0.271286 0.852208 0.359052
C52   C     C_2   0.935309 0.470130 0.154584 0.901197
O27   O     O_2   0.950175 0.515595 0.057496 -0.481206
O28   O     O_R   0.881227 0.387148 0.160348 -0.732314
H14   H     H_    0.857118 0.370748 0.078779 0.405946
C53   C     C_2   0.389870 0.736116 0.681426 0.904473
O29   O     O_2   0.317618 0.699260 0.665069 -0.570967
O30   O     O_R   0.420314 0.734944 0.799544 -0.699392
H15   H     H_    0.377579 0.698310 0.861595 0.335591
C54   C     C_2   0.641409 0.259498 0.366498 0.912198
O31   O     O_2   0.637424 0.311319 0.275697 -0.534403
O32   O     O_R   0.723196 0.245571 0.414877 -0.732076
H16   H     H_    0.773771 0.284229 0.368641 0.367053
C55   C     C_2   0.622983 0.743673 0.337107 0.912616
O33   O     O_2   0.697964 0.738240 0.370845 -0.544022
O34   O     O_R   0.604512 0.711663 0.219620 -0.721290
H17   H     H_    0.658473 0.687260 0.167944 0.332634
C56   C     C_2   0.364025 0.256906 0.643106 0.936389
O35   O     O_2   0.291646 0.258570 0.600262 -0.538350
O36   O     O_R   0.374094 0.294829 0.760489 -0.689933
H18   H     H_    0.315858 0.316217 0.804904 0.354762
C57   C     C_2   0.644730 0.909776 0.195447 0.873619
O37   O     O_2   0.599848 0.891978 0.109287 -0.464345
O38   O     O_R   0.736488 0.893937 0.183822 -0.677363
H19   H     H_    0.757639 0.864548 0.100906 0.355440
C58   C     C_2   0.329454 0.089458 0.778992 0.876732
O39   O     O_2   0.248863 0.099988 0.780980 -0.542902
O40   O     O_R   0.374508 0.113861 0.882157 -0.647502
H20   H     H_    0.332943 0.139762 0.952720 0.368486
C59   C     C_2   0.290244 0.898763 0.721213 0.898520
O41   O     O_2   0.282645 0.888414 0.834373 -0.516284
O42   O     O_R   0.221620 0.868544 0.650739 -0.693546
H21   H     H_    0.169345 0.838003 0.703804 0.371877
C60   C     C_2   0.647324 0.106577 0.202311 0.865785
O43   O     O_2   0.728652 0.108442 0.181969 -0.500165
O44   O     O_R   0.594329 0.149216 0.119048 -0.675064
H22   H     H_    0.631267 0.176475 0.043469 0.373662

loop_
_geom_bond_atom_site_label_1
_geom_bond_atom_site_label_2
_ccdc_geom_bond_type
C7    C49   S    
C50   O23   D    
O26   H13   S    
C27   C29   S    
C55   O34   S    
C47   O17   D    
C11   N1    A    
C52   O27   D    
C25   O8    A    
C13   C55   S    
C26   O7    A    
C9    C51   S    
C6    C9    A    
O28   H14   S    
C59   O41   D    
C39   C41   A    
C48   O19   D    
C15   C19   A    
C17   C23   A    
C18   C24   A    
C35   C37   A    
C25   O5    A    
O44   H22   S    
C29   C32   S    
C36   C48   S    
C30   C31   S    
C43   O10   S    
C57   O37   D    
C29   C33   S    
C11   C53   S    
C46   O16   S    
C2    O2    A    
Cu1   O5    S    
C35   C47   S    
C56   O36   S    
C56   O35   D    
C57   O38   S    
C1    O1    A    
C24   C60   S    
C55   O33   D    
C31   C33   S    
C12   N2    A    
C25   C34   S    
C28   C44   S    
Cu2   O4    S    
C40   C42   A    
O10   H3    S    
C47   O18   S    
C22   C58   S    
C26   O6    A    
C48   O20   S    
C27   C34   S    
C14   C56   S    
C30   C34   S    
C27   C31   S    
O14   H5    S    
O30   H15   S    
C40   H10   S    
C28   C32   S    
C39   H9    S    
C12   C54   S    
C4    C6    A    
C27   C43   S    
C51   O25   D    
C13   N1    A    
Cu1   O1    S    
C23   C59   S    
C45   O14   S    
O22   H11   S    
O12   H4    S    
C32   C34   S    
O18   H7    S    
C60   O44   S    
C51   O26   S    
Cu2   O8    S    
C26   C33   S    
C49   O21   D    
C16   C20   A    
C44   O12   S    
C54   O32   S    
O40   H20   S    
C58   O40   S    
C1    C38   S    
C29   C45   S    
Cu1   O7    S    
C49   O22   S    
C28   C33   S    
C13   C15   A    
Cu1   Cu2   S    
O42   H21   S    
C14   C16   A    
C3    C4    A    
C30   C46   S    
O36   H18   S    
Cu2   O2    S    
C7    C9    A    
C3    C41   A    
C16   C22   A    
C53   O30   S    
C32   H2    S    
C8    C42   A    
C3    C5    A    
C11   C17   A    
C14   N2    A    
C58   O39   D    
C52   O28   S    
O32   H16   S    
C21   C57   S    
C53   O29   D    
C8    C50   S    
C19   C20   A    
C28   C30   S    
C5    C10   A    
C37   C39   A    
Cu2   N2    S    
O38   H19   S    
C38   C40   A    
C2    C37   S    
Cu1   O3    S    
C43   O9    D    
C4    C42   A    
C10   C52   S    
C5    C35   A    
C36   C38   A    
C17   C19   A    
C6    C36   A    
C18   C20   A    
C7    C41   A    
C44   O11   D    
C1    O4    A    
C46   O15   D    
C59   O42   S    
C2    O3    A    
O20   H8    S    
Cu2   O6    S    
C15   C21   A    
O16   H6    S    
C8    C10   A    
C45   O13   D    
C31   H1    S    
C21   C24   A    
C12   C18   A    
C54   O31   D    
C50   O24   S    
C22   C23   A    
O24   H12   S    
O34   H17   S    
Cu1   N1    S    
C60   O43   D    
