data_mof_unit_18764.cif
_audit_creation_date              2012-12-10T20:26:26-0500
_audit_creation_method            fapswitch 2.2
_symmetry_space_group_name_H-M    P1
_symmetry_Int_Tables_number       1
_space_group_crystal_system       triclinic
_cell_length_a                    10.674577
_cell_length_b                    10.656477
_cell_length_c                    9.879722
_cell_angle_alpha                 89.323848
_cell_angle_beta                  92.377445
_cell_angle_gamma                 90.265132
_cell_volume                      1122.79662475

loop_
_atom_site_label
_atom_site_type_symbol
_atom_type_description
_atom_site_fract_x
_atom_site_fract_y
_atom_site_fract_z
_atom_type_partial_charge
C1    C     C_R   0.506532 0.259963 0.500998 0.927305
C2    C     C_R   0.534906 0.129461 0.502890 -0.224615
C3    C     C_R   0.560259 0.069070 0.381719 -0.198832
C4    C     C_R   0.562792 0.939108 0.378416 0.414112
C5    C     C_R   0.536930 0.871312 0.498476 -0.203337
C6    C     C_R   0.542617 0.934082 0.621605 0.013359
C7    C     C_3   0.464512 0.922853 0.743351 -0.435204
C8    C     C_3   0.466890 0.065283 0.747378 0.214373
C9    C     C_R   0.392206 0.477591 0.066805 0.211664
C10   C     C_R   0.602128 0.538679 0.076773 -0.070305
C11   C     C_R   0.602229 0.540522 0.932505 0.137836
C12   C     C_R   0.262473 0.497564 0.496665 0.932404
C13   C     C_R   0.391533 0.479244 0.924606 0.191267
C14   C     C_3   0.307347 0.366903 0.917345 -0.140718
C15   C     C_3   0.310726 0.364044 0.072093 -0.517480
C16   C     C_R   0.508110 0.740123 0.499159 0.935522
C17   C     C_R   0.737273 0.511605 0.502628 0.871799
C18   C     C_2   0.930108 0.554874 0.396081 -0.211032
C19   C     C_2   0.866172 0.550765 0.509363 0.267938
C20   C     C_2   0.064221 0.567138 0.405923 0.317476
C21   C     C_2   0.130366 0.485103 0.484491 0.173369
C22   C     C_R   0.543486 0.062003 0.624276 0.155556
H1    H     H_    0.886583 0.537024 0.296792 0.155114
H2    H     H_    0.684373 0.568827 0.135330 0.162767
H3    H     H_    0.350162 0.284701 0.870274 0.221279
H4    H     H_    0.219445 0.384123 0.117460 0.217956
H5    H     H_    0.361202 0.281319 0.116628 0.236438
H6    H     H_    0.569138 0.121460 0.287875 0.222865
H7    H     H_    0.369513 0.883873 0.718951 0.197787
H8    H     H_    0.516007 0.876160 0.830043 0.253329
H9    H     H_    0.373360 0.109044 0.728695 0.117475
N1    N     N_R   0.499170 0.499140 0.142800 -0.109325
N2    N     N_R   0.499170 0.499180 0.857150 -0.120529
O1    O     O_R   0.500020 0.316790 0.614690 -0.596245
O2    O     O_R   0.500000 0.316760 0.385350 -0.621695
O3    O     O_R   0.319080 0.500020 0.614640 -0.584166
O4    O     O_R   0.319070 0.499980 0.385300 -0.607096
O5    O     O_R   0.500000 0.683240 0.614650 -0.640996
O6    O     O_R   0.499980 0.683210 0.385310 -0.548435
O7    O     O_R   0.680930 0.500020 0.614700 -0.558760
O8    O     O_R   0.680920 0.499980 0.385360 -0.655311
Zn1   Zn    Zn3+2 0.500010 0.500020 0.653130 1.025924
Zn2   Zn    Zn3+2 0.499990 0.499980 0.346870 1.022012
Cl1   Cl    Cl    0.556677 0.123712 0.890003 -0.553352
N3    N     N_3   0.709179 0.587729 0.865629 -0.332999
H10   H     H_    0.682720 0.672567 0.818834 0.222274
H11   H     H_    0.781752 0.608921 0.936137 0.206361
N4    N     N_3   0.183588 0.397500 0.856872 -0.340382
H12   H     H_    0.123929 0.321580 0.874927 0.247872
H13   H     H_    0.146398 0.475621 0.904144 0.237993
Cl2   Cl    Cl    0.932478 0.602233 0.667241 -0.560601
Cl3   Cl    Cl    0.131455 0.696763 0.321757 -0.549191
Cl4   Cl    Cl    0.066606 0.344792 0.551634 -0.586657
Cl5   Cl    Cl    0.589028 0.870550 0.220153 -0.544165

loop_
_geom_bond_atom_site_label_1
_geom_bond_atom_site_label_2
_ccdc_geom_bond_type
C2    C22   A    
C8    C22   S    
O4    Zn2   S    
C6    C7    S    
C7    H7    S    
C10   N1    A    
C12   O3    A    
O2    Zn2   S    
C15   H5    S    
O1    Zn1   S    
C4    Cl5   S    
N4    H13   S    
C2    C3    A    
C9    C15   S    
C7    C8    S    
C20   Cl3   S    
C7    H8    S    
C13   C14   S    
C21   Cl4   S    
O8    Zn2   S    
C8    Cl1   S    
N2    Zn1   S    
O7    Zn1   S    
N4    H12   S    
C17   C19   S    
N1    Zn2   S    
C1    O1    A    
C1    C2    S    
C18   C20   S    
N3    H11   S    
C14   H3    S    
C5    C6    A    
C17   O8    A    
C11   N3    S    
C3    H6    S    
C10   C11   A    
C16   O6    A    
C18   H1    S    
C6    C22   A    
O5    Zn1   S    
C19   Cl2   S    
C11   N2    A    
C20   C21   D    
C1    O2    A    
C13   N2    A    
C12   O4    A    
C14   N4    S    
C9    C13   A    
C14   C15   S    
C18   C19   D    
C5    C16   S    
O6    Zn2   S    
C9    N1    A    
C10   H2    S    
N3    H10   S    
C8    H9    S    
O3    Zn1   S    
C12   C21   S    
C3    C4    A    
C16   O5    A    
C4    C5    A    
C15   H4    S    
C17   O7    A    
