data_mof_unit_15563.cif
_audit_creation_date              2012-12-11T14:58:22-0500
_audit_creation_method            fapswitch 2.2
_symmetry_space_group_name_H-M    P1
_symmetry_Int_Tables_number       1
_space_group_crystal_system       triclinic
_cell_length_a                    11.044164
_cell_length_b                    11.129808
_cell_length_c                    18.757598
_cell_angle_alpha                 90.594783
_cell_angle_beta                  90.285482
_cell_angle_gamma                 58.985285
_cell_volume                      1975.93593714

loop_
_atom_site_label
_atom_site_type_symbol
_atom_type_description
_atom_site_fract_x
_atom_site_fract_y
_atom_site_fract_z
_atom_type_partial_charge
C1    C     C_R   0.357692 0.774427 0.398674 0.589231
C2    C     C_R   0.592657 0.069688 0.173606 0.067443
C3    C     C_R   0.365069 0.320692 0.163395 -0.001907
C4    C     C_R   0.470927 0.223513 0.276720 -0.132408
C5    C     C_R   0.481926 0.212574 0.203317 -0.013023
C6    C     C_R   0.136595 0.713359 0.292686 -0.091657
C7    C     C_R   0.041212 0.834983 0.330914 -0.030901
C8    C     C_R   0.557082 0.967369 0.171131 -0.070119
C9    C     C_R   0.636303 0.843461 0.131863 -0.103249
C10   C     C_R   0.258765 0.441989 0.197450 -0.173112
C11   C     C_R   0.251034 0.454112 0.271224 -0.033028
C12   C     C_R   0.385312 0.354975 0.387539 0.564054
C13   C     C_R   0.948588 0.829380 0.379233 -0.073471
C14   C     C_R   0.935311 0.711209 0.378628 -0.066401
C15   C     C_R   0.002028 0.611778 0.323238 0.035818
C16   C     C_R   0.134734 0.589752 0.302266 0.050580
C17   C     C_R   0.360371 0.342018 0.311756 0.017076
C18   C     C_R   0.904295 0.355838 0.305906 -0.071878
C19   C     C_R   0.948760 0.333141 0.235886 -0.105157
C20   C     C_R   0.856429 0.343766 0.181926 0.063635
C21   C     C_R   0.721640 0.370557 0.197796 -0.108586
C22   C     C_R   0.684998 0.374713 0.268958 -0.109770
C23   C     C_R   0.720677 0.410839 0.394810 0.530823
C24   C     C_R   0.772585 0.376010 0.322667 0.039030
C25   C     C_R   0.435165 0.710489 0.277032 -0.177062
C26   C     C_R   0.422886 0.735245 0.204363 -0.196114
C27   C     C_R   0.331975 0.870668 0.181009 -0.003237
C28   C     C_R   0.255318 0.980350 0.230658 -0.088344
C29   C     C_R   0.272957 0.954374 0.303746 0.111289
C30   C     C_R   0.356167 0.817104 0.326065 0.045082
C31   C     C_R   0.394286 0.196688 0.691271 0.143803
C32   C     C_R   0.418077 0.193191 0.764681 0.017364
C33   C     C_R   0.310593 0.305808 0.807388 -0.034410
C34   C     C_R   0.345285 0.766208 0.605343 0.582589
C35   C     C_R   0.201094 0.423970 0.773706 -0.133390
C36   C     C_R   0.202947 0.437856 0.700129 0.121290
C37   C     C_R   0.309007 0.325789 0.659282 0.049681
C38   C     C_R   0.765587 0.468292 0.729725 -0.112486
C39   C     C_R   0.770073 0.458366 0.802623 -0.130402
C40   C     C_R   0.820230 0.328295 0.834593 0.030275
C41   C     C_R   0.850477 0.211052 0.792205 -0.134256
C42   C     C_R   0.837099 0.223492 0.718123 -0.137214
C43   C     C_R   0.796309 0.352387 0.686564 0.041296
C44   C     C_R   0.198771 0.839579 0.713442 -0.117345
C45   C     C_R   0.365339 0.349795 0.593916 0.599289
C46   C     C_R   0.189785 0.849759 0.786744 -0.127550
C47   C     C_R   0.303317 0.837346 0.826751 0.032710
C48   C     C_R   0.429143 0.805119 0.793164 -0.138626
C49   C     C_R   0.438807 0.792522 0.719865 -0.106373
C50   C     C_R   0.323758 0.810260 0.679443 0.055375
C51   C     C_R   0.908302 0.318122 0.110403 0.543177
C52   C     C_R   0.330335 0.292508 0.092371 0.541586
C53   C     C_R   0.305568 0.901771 0.105861 0.533715
C54   C     C_R   0.880960 0.310082 0.905543 0.546189
C55   C     C_R   0.295894 0.285012 0.883708 0.552043
C56   C     C_R   0.760332 0.378698 0.611208 0.563673
C57   C     C_R   0.276743 0.892285 0.898692 0.545431
C58   C     C_R   0.754536 0.819210 0.094916 -0.120184
C59   C     C_R   0.807141 0.908590 0.105543 0.012780
C60   C     C_R   0.731349 0.027582 0.151084 0.166112
Cr1   Cr    Cr6+3 0.601770 0.606860 0.505860 1.062912
Cr2   Cr    Cr6+3 0.291380 0.601660 0.495070 1.077381
Cr3   Cr    Cr6+3 0.606880 0.291510 0.499120 1.062660
Cr4   Cr    Cr6+3 0.062440 0.063090 0.008210 0.990069
Cr5   Cr    Cr6+3 0.062880 0.375170 0.998920 0.985973
Cr6   Cr    Cr6+3 0.374700 0.061720 0.992470 1.009039
H1    H     H_    0.553311 0.137127 0.306864 0.173674
H2    H     H_    0.882264 0.918267 0.413432 0.134093
H3    H     H_    0.850773 0.714715 0.409279 0.134158
H4    H     H_    0.969389 0.363985 0.346599 0.189869
H5    H     H_    0.052122 0.316092 0.223325 0.115859
H6    H     H_    0.650999 0.375908 0.155990 0.116945
H7    H     H_    0.585349 0.384385 0.282015 0.110061
H8    H     H_    0.496358 0.607199 0.296550 0.101483
H9    H     H_    0.479319 0.649419 0.166902 0.105736
H10   H     H_    0.188076 0.085515 0.211869 0.142393
H11   H     H_    0.605596 0.766151 0.128271 0.120492
H12   H     H_    0.115865 0.506942 0.804643 0.159541
H13   H     H_    0.737033 0.568382 0.707380 0.149686
H14   H     H_    0.746613 0.550599 0.833659 0.126756
H15   H     H_    0.891981 0.109050 0.815866 0.123781
H16   H     H_    0.861931 0.132749 0.685571 0.125350
H17   H     H_    0.109005 0.851479 0.683674 0.169646
H18   H     H_    0.045244 0.929495 0.326825 0.194798
H19   H     H_    0.091189 0.874425 0.811545 0.130885
H20   H     H_    0.517916 0.794567 0.823308 0.106793
H21   H     H_    0.536644 0.768251 0.694822 0.161409
H22   H     H_    0.809813 0.724112 0.063422 0.125992
H23   H     H_    0.209886 0.714686 0.256138 0.128792
H24   H     H_    0.465304 0.988623 0.199413 0.124809
H25   H     H_    0.174874 0.525017 0.166286 0.124132
O1    O     O_R   0.748800 0.497470 0.428000 -0.526450
O2    O     O_R   0.300070 0.471040 0.567100 -0.459404
O3    O     O_R   0.491670 0.258900 0.574910 -0.478407
O4    O     O_R   0.718780 0.304180 0.577850 -0.502150
O5    O     O_3   0.500010 0.500010 0.500020 -0.310575
O6    O     O_R   0.186690 0.923650 0.086970 -0.524964
O7    O     O_R   0.957250 0.194250 0.084630 -0.478839
O8    O     O_R   0.934970 0.407490 0.085330 -0.547091
O9    O     O_R   0.203780 0.365190 0.067090 -0.516125
O10   O     O_R   0.417600 0.174890 0.067840 -0.511268
O11   O     O_R   0.375320 0.946260 0.070860 -0.508606
O12   O     O_R   0.476420 0.724060 0.429470 -0.505309
O13   O     O_R   0.160600 0.919630 0.926660 -0.543576
O14   O     O_R   0.933060 0.190520 0.936020 -0.512603
O15   O     O_R   0.908880 0.403460 0.925020 -0.525205
O16   O     O_R   0.179600 0.361450 0.918490 -0.498364
O17   O     O_R   0.391510 0.170860 0.907530 -0.535516
O18   O     O_R   0.351130 0.942530 0.922260 -0.506121
O19   O     O_3   0.166667 0.166667 0.999870 -0.245385
O20   O     O_R   0.264580 0.744340 0.416750 -0.511528
O21   O     O_R   0.309380 0.472470 0.418200 -0.495560
O22   O     O_R   0.501710 0.260430 0.414300 -0.517386
O23   O     O_R   0.728090 0.305600 0.428960 -0.470558
O24   O     O_R   0.738760 0.495930 0.588610 -0.495276
O25   O     O_R   0.467110 0.722640 0.578360 -0.482378
O26   O     O_R   0.254530 0.742800 0.577360 -0.495120
C61   C     C_3   0.904848 0.640561 0.259709 -0.283508
C62   C     C_3   0.753954 0.680023 0.278648 -0.427951
H26   H     H_    0.750118 0.630564 0.328183 0.183634
H27   H     H_    0.686398 0.795029 0.286926 0.162736
H28   H     H_    0.709884 0.646045 0.235210 0.150190
H29   H     H_    0.895820 0.730684 0.229939 0.180223
H30   H     H_    0.952898 0.553045 0.221112 0.149950
Br1   Br    Br    0.193809 0.102034 0.372958 -0.544843
Br2   Br    Br    0.468328 0.030462 0.632033 -0.518690
C63   C     C_3   0.558137 0.076962 0.796251 -0.235520
C64   C     C_3   0.687158 0.010919 0.746795 -0.415324
H31   H     H_    0.698975 0.916677 0.719424 0.208575
H32   H     H_    0.679760 0.087622 0.707177 0.191061
H33   H     H_    0.784978 0.974052 0.778596 0.115867
H34   H     H_    0.588397 0.123984 0.840278 0.161582
H35   H     H_    0.544255 0.992647 0.818114 0.175248
Br3   Br    Br    0.052363 0.607027 0.659081 -0.532893
C65   C     C_3   0.951011 0.869884 0.077055 -0.251228
C66   C     C_3   0.012242 0.756610 0.018688 -0.446439
H36   H     H_    0.038653 0.653532 0.040487 0.152821
H37   H     H_    0.936734 0.785678 0.973656 0.134848
H38   H     H_    0.111728 0.745239 0.998226 0.172974
H39   H     H_    0.940976 0.966106 0.054396 0.215562
H40   H     H_    0.027171 0.833333 0.122072 0.193912
Br4   Br    Br    0.845560 0.061334 0.213688 -0.624967

loop_
_geom_bond_atom_site_label_1
_geom_bond_atom_site_label_2
_ccdc_geom_bond_type
C33   C55   S    
C56   O4    A    
C18   H4    S    
C29   Br1   S    
C41   C42   A    
Cr6   O11   S    
C19   H5    S    
C35   C36   A    
C42   H16   S    
C44   H17   S    
C45   O2    A    
C64   H31   S    
Cr1   O5    S    
C65   C66   S    
Cr3   O3    S    
C26   C27   A    
C18   C24   A    
C32   C63   S    
C28   C29   A    
Cr1   O12   S    
C18   C19   A    
C20   C51   S    
Cr2   O5    S    
C38   C39   A    
C2    C60   A    
C38   H13   S    
C34   O25   A    
C15   C16   A    
Cr3   O4    S    
C9    C58   A    
C49   H21   S    
C61   C62   S    
Cr2   O26   S    
C60   Br4   S    
C63   H34   S    
Cr3   O23   S    
C57   O18   A    
Cr2   O20   S    
C31   C32   A    
C8    C9    A    
C12   C17   S    
Cr1   O24   S    
C36   Br3   S    
C23   C24   S    
C1    O12   A    
Cr1   O1    S    
C46   H19   S    
C51   O7    A    
Cr4   O7    S    
C7    H18   S    
C59   C60   A    
C65   H40   S    
C21   C22   A    
Cr6   O10   S    
C66   H38   S    
C45   O3    A    
C44   C46   A    
C62   H27   S    
C51   O8    A    
C65   H39   S    
C25   H8    S    
C52   O10   A    
C34   C50   S    
C54   O15   A    
C21   H6    S    
Cr4   O14   S    
Cr5   O8    S    
C66   H37   S    
C39   C40   A    
C4    C5    A    
C61   H30   S    
C53   O6    A    
C58   C59   A    
Cr3   O5    S    
C52   O9    A    
C31   C37   A    
C55   O16   A    
C29   C30   A    
C47   C57   S    
C11   C16   S    
Cr4   O19   S    
C47   C48   A    
Cr4   O6    S    
C53   O11   A    
C3    C52   S    
C41   H15   S    
Cr1   O25   S    
C26   H9    S    
C9    H11   S    
Cr6   O19   S    
C4    C17   A    
C48   C49   A    
C10   H25   S    
C40   C54   S    
C14   H3    S    
C22   C24   A    
C2    C5    S    
C8    H24   S    
C42   C43   A    
C37   C45   S    
C63   C64   S    
C28   H10   S    
C64   H33   S    
Cr5   O15   S    
C12   O21   A    
C12   O22   A    
C62   H28   S    
C44   C50   A    
C25   C30   A    
Cr4   O13   S    
C57   O13   A    
C46   C47   A    
C36   C37   A    
C54   O14   A    
C14   C15   A    
C2    C8    A    
C63   H35   S    
Cr5   O9    S    
Cr6   O17   S    
C66   H36   S    
C3    C5    A    
C11   C17   A    
C4    H1    S    
C62   H26   S    
C27   C53   S    
C6    C7    A    
C64   H32   S    
C6    H23   S    
C35   H12   S    
C31   Br2   S    
C15   C61   S    
C55   O17   A    
C32   C33   A    
C19   C20   A    
C25   C26   A    
C38   C43   A    
C3    C10   A    
C39   H14   S    
C23   O23   A    
C34   O26   A    
C59   C65   S    
C1    C30   S    
C33   C35   A    
C56   O24   A    
C48   H20   S    
C61   H29   S    
Cr6   O18   S    
Cr5   O19   S    
C10   C11   A    
C6    C16   A    
Cr3   O22   S    
C43   C56   S    
C7    C13   A    
Cr2   O21   S    
C20   C21   A    
C49   C50   A    
Cr2   O2    S    
C27   C28   A    
C23   O1    A    
C40   C41   A    
C22   H7    S    
C13   C14   A    
C58   H22   S    
Cr5   O16   S    
C1    O20   A    
C13   H2    S    
