data_mof_unit_40323.cif
_audit_creation_date              2012-12-10T17:52:34-0500
_audit_creation_method            fapswitch 2.2
_symmetry_space_group_name_H-M    P1
_symmetry_Int_Tables_number       1
_space_group_crystal_system       triclinic
_cell_length_a                    14.766396
_cell_length_b                    14.757504
_cell_length_c                    23.528302
_cell_angle_alpha                 75.932696
_cell_angle_beta                  103.278791
_cell_angle_gamma                 114.987829
_cell_volume                      4460.60339075

loop_
_atom_site_label
_atom_site_type_symbol
_atom_type_description
_atom_site_fract_x
_atom_site_fract_y
_atom_site_fract_z
_atom_type_partial_charge
C1    C     C_R   0.880377 0.312405 0.508668 0.806999
C2    C     C_R   0.119630 0.687595 0.491335 0.807842
C3    C     C_R   0.913913 0.503702 0.748173 0.008257
C4    C     C_R   0.920715 0.517311 0.224551 0.005053
C5    C     C_R   0.916066 0.503593 0.688750 -0.244630
C6    C     C_R   0.922794 0.517161 0.284663 -0.257620
C7    C     C_R   0.998655 0.498281 0.671714 -0.061257
C8    C     C_R   0.999367 0.500030 0.328169 -0.062607
C9    C     C_R   0.079892 0.492164 0.714789 -0.205960
C10   C     C_R   0.075051 0.482783 0.311308 -0.191026
C11   C     C_R   0.079081 0.492332 0.773783 -0.118571
C12   C     C_R   0.074161 0.482528 0.252095 -0.117048
C13   C     C_R   0.997223 0.498229 0.790939 0.293884
C14   C     C_R   0.997975 0.499495 0.208588 0.294802
C15   C     C_R   0.812323 0.204692 0.514708 -0.055087
C16   C     C_R   0.187720 0.795303 0.485276 -0.055153
C17   C     C_R   0.779727 0.030377 0.560231 -0.178720
C18   C     C_R   0.220345 0.969607 0.439724 -0.180435
C19   C     C_R   0.845772 0.131472 0.551528 -0.227995
C20   C     C_R   0.154273 0.868534 0.448478 -0.227761
C21   C     C_R   0.711751 0.175100 0.485453 0.099143
C22   C     C_R   0.288340 0.824868 0.514464 0.102917
C23   C     C_R   0.999697 0.499432 0.609050 0.802716
C24   C     C_R   0.999908 0.500079 0.390937 0.802432
C25   C     C_R   0.639951 0.077853 0.505189 0.084604
C26   C     C_R   0.360140 0.922094 0.494689 0.084208
C27   C     C_R   0.676997 0.003147 0.537898 0.125721
C28   C     C_R   0.323092 0.996808 0.461995 0.126940
C29   C     C_R   0.533385 0.051580 0.493500 0.068449
C30   C     C_R   0.466708 0.948358 0.506347 0.067944
C31   C     C_R   0.508679 0.874327 0.527308 -0.200941
C32   C     C_R   0.491420 0.125612 0.472526 -0.202655
C33   C     C_R   0.611445 0.901631 0.546340 -0.201858
C34   C     C_R   0.388653 0.098314 0.453516 -0.203810
C35   C     C_R   0.701739 0.651421 0.393037 -0.247109
C36   C     C_R   0.299585 0.350764 0.607754 -0.257889
C37   C     C_R   0.789288 0.632336 0.412161 0.376345
C38   C     C_R   0.211419 0.368682 0.588268 0.378216
C39   C     C_R   0.716578 0.512321 0.493435 -0.024676
C40   C     C_R   0.283351 0.487823 0.506524 -0.030286
C41   C     C_R   0.626627 0.533192 0.476602 -0.023779
C42   C     C_R   0.374046 0.468281 0.523772 -0.021114
C43   C     C_R   0.618426 0.600031 0.422989 0.039209
C44   C     C_R   0.382819 0.402354 0.577727 0.035265
C45   C     C_R   0.051535 0.587388 0.113522 0.589117
C46   C     C_R   0.952734 0.408153 0.887654 0.581713
C47   C     C_R   0.545167 0.490394 0.510843 0.060189
C48   C     C_R   0.455764 0.511617 0.489680 0.065292
C49   C     C_R   0.449362 0.573090 0.434271 -0.271267
C50   C     C_R   0.552191 0.430054 0.566588 -0.249357
C51   C     C_R   0.528418 0.616860 0.400911 0.000141
C52   C     C_R   0.473429 0.386791 0.600155 -0.009361
C53   C     C_R   0.953681 0.408902 0.126838 0.590310
C54   C     C_R   0.050773 0.586595 0.874417 0.593217
C55   C     C_R   0.953801 0.406535 0.067583 -0.013595
C56   C     C_R   0.053352 0.588363 0.934138 -0.014732
C57   C     C_R   0.003856 0.497510 0.030891 -0.011978
C58   C     C_R   0.003611 0.497318 0.970875 -0.012462
C59   C     C_R   0.053771 0.588763 0.054003 -0.014331
C60   C     C_R   0.953249 0.406172 0.947671 -0.014145
C61   C     C_R   0.904559 0.315947 0.044115 -0.153712
C62   C     C_R   0.103587 0.678747 0.957775 -0.153511
C63   C     C_R   0.904267 0.315771 0.984778 -0.152578
C64   C     C_R   0.103787 0.678947 0.017084 -0.152117
Cu1   Cu    Cu3+1 0.081740 0.475680 0.515360 0.940894
Cu2   Cu    Cu3+1 0.918260 0.524320 0.484640 0.944904
H1    H     H_    0.865658 0.245009 0.071415 0.192431
H2    H     H_    0.142475 0.749692 0.930475 0.191756
H3    H     H_    0.808148 0.974012 0.586424 0.151480
H4    H     H_    0.191921 0.025979 0.413546 0.149190
H5    H     H_    0.463083 0.794493 0.529623 0.169950
H6    H     H_    0.537017 0.205447 0.470195 0.168564
H7    H     H_    0.274089 0.542727 0.468666 0.138710
H8    H     H_    0.725079 0.456481 0.530933 0.138025
H9    H     H_    0.700696 0.709025 0.354607 0.184995
H10   H     H_    0.301251 0.293983 0.646561 0.179687
H11   H     H_    0.381771 0.586398 0.414545 0.154471
H12   H     H_    0.620363 0.417955 0.586533 0.164301
H13   H     H_    0.865163 0.244702 0.968046 0.193116
H14   H     H_    0.142805 0.750037 0.033799 0.192644
H15   H     H_    0.853093 0.508011 0.655461 0.187728
H16   H     H_    0.864112 0.530081 0.297748 0.198156
H17   H     H_    0.144509 0.488016 0.702888 0.167693
H18   H     H_    0.135161 0.469570 0.343833 0.160034
H19   H     H_    0.142518 0.487841 0.806579 0.146984
H20   H     H_    0.133184 0.469132 0.239743 0.146179
H21   H     H_    0.640003 0.842781 0.566622 0.155734
H22   H     H_    0.360098 0.157166 0.433236 0.151617
H23   H     H_    0.076664 0.847979 0.427277 0.164299
H24   H     H_    0.923365 0.152058 0.572784 0.164208
N1    N     N_R   0.000945 0.498612 0.148231 -0.450005
N2    N     N_R   0.000036 0.497640 0.852374 -0.450438
N3    N     N_R   0.795430 0.560810 0.461550 -0.176638
N4    N     N_R   0.204570 0.439190 0.538450 -0.176672
O1    O     O_R   0.977900 0.338110 0.520250 -0.591939
O2    O     O_R   0.022100 0.661890 0.479750 -0.590950
O3    O     O_R   0.839850 0.379180 0.494310 -0.574786
O4    O     O_R   0.160150 0.620820 0.505690 -0.574560
O5    O     O_R   0.069020 0.479430 0.595090 -0.587954
O6    O     O_R   0.930980 0.520570 0.404910 -0.587804
O7    O     O_R   0.930970 0.520500 0.569150 -0.581093
O8    O     O_R   0.069030 0.479500 0.430850 -0.582643
O9    O     O_2   0.098670 0.673978 0.136485 -0.526462
O10   O     O_2   0.904964 0.321717 0.864560 -0.528315
O11   O     O_2   0.906038 0.322664 0.162696 -0.531576
O12   O     O_2   0.097645 0.673044 0.838455 -0.530716
C65   C     C_2   0.511513 0.676274 0.341517 0.825555
O13   O     O_2   0.471265 0.736118 0.335426 -0.578931
O14   O     O_R   0.537426 0.660595 0.292190 -0.751820
H25   H     H_    0.521043 0.704629 0.254295 0.348811
C66   C     C_2   0.491349 0.329535 0.660135 0.869696
O15   O     O_2   0.533104 0.270699 0.667223 -0.574249
O16   O     O_R   0.464800 0.346302 0.708870 -0.749753
H26   H     H_    0.482278 0.303986 0.747277 0.349103
C67   C     C_3   0.129446 0.307211 0.626647 -0.794010
H27   H     H_    0.058018 0.316409 0.612402 0.268538
H28   H     H_    0.111578 0.225299 0.629514 0.194393
H29   H     H_    0.157263 0.326210 0.672032 0.212958
C68   C     C_3   0.871567 0.694247 0.374028 -0.788334
H30   H     H_    0.942123 0.683171 0.387387 0.266436
H31   H     H_    0.843135 0.677772 0.328139 0.225002
H32   H     H_    0.891124 0.776098 0.372677 0.193373
C69   C     C_2   0.824607 0.509982 0.763871 0.879243
O17   O     O_2   0.747660 0.497092 0.727892 -0.587716
O18   O     O_R   0.827736 0.531542 0.819125 -0.755090
H33   H     H_    0.762174 0.533588 0.823949 0.346490
C70   C     C_2   0.837613 0.536133 0.180121 0.877701
O19   O     O_2   0.774728 0.554466 0.196054 -0.585830
O20   O     O_R   0.830116 0.533064 0.120243 -0.754686
H34   H     H_    0.770357 0.547197 0.095097 0.346901
C71   C     C_3   0.309881 0.763927 0.574249 -0.824781
H35   H     H_    0.322314 0.697420 0.569174 0.244334
H36   H     H_    0.376129 0.811233 0.602361 0.239812
H37   H     H_    0.245083 0.736120 0.599118 0.231278
C72   C     C_3   0.690292 0.236041 0.425652 -0.816034
H38   H     H_    0.624074 0.188742 0.397519 0.240451
H39   H     H_    0.677851 0.302560 0.430698 0.243930
H40   H     H_    0.755135 0.263829 0.400822 0.232240

loop_
_geom_bond_atom_site_label_1
_geom_bond_atom_site_label_2
_ccdc_geom_bond_type
C18   H4    S    
C72   H40   S    
C23   O5    A    
C17   H3    S    
C6    H16   S    
C22   C71   S    
C65   O14   S    
C53   C55   A    
C66   O15   D    
C71   H37   S    
C69   O17   D    
C39   C41   A    
C63   H13   S    
C27   C33   A    
C15   C19   A    
C35   H9    S    
C59   C64   A    
C60   C63   A    
Cu2   O3    S    
C35   C37   A    
Cu1   O4    S    
O16   H26   S    
C29   C32   A    
Cu1   N4    S    
C30   C31   A    
C69   O18   S    
C46   N2    A    
C58   C60   A    
C67   H27   S    
C40   H7    S    
C7    C9    A    
C39   H8    S    
Cu2   O6    S    
C61   C63   A    
C39   N3    A    
C62   C64   A    
C36   H10   S    
C17   C19   A    
C64   H14   S    
C10   H18   S    
C56   C58   A    
C67   H28   S    
C53   N1    A    
C50   C52   A    
C65   O13   D    
C31   C33   A    
C1    C15   S    
C2    C16   S    
C24   O8    A    
C3    C13   A    
C16   C20   A    
C44   C52   A    
C40   C42   A    
C28   C34   A    
C41   C43   A    
Cu2   O7    S    
C42   C44   A    
Cu1   O8    S    
C51   C65   S    
C50   H12   S    
C3    C69   S    
C47   C50   A    
C68   H31   S    
C25   C29   A    
C54   C56   A    
C54   O12   S    
C17   C27   A    
C72   H38   S    
C18   C28   A    
Cu1   O5    S    
C32   H6    S    
C1    O3    A    
C5    C7    A    
C42   C48   A    
C52   C66   S    
C49   C51   A    
C46   O10   S    
C32   C34   A    
C70   O20   S    
C54   N2    A    
C29   C30   A    
C5    H15   S    
C61   H1    S    
C47   C48   A    
C37   C68   S    
Cu1   O1    S    
C1    O1    A    
C67   H29   S    
C38   N4    A    
C41   C47   A    
C37   N3    A    
C66   O16   S    
C34   H22   S    
C9    C11   A    
C10   C12   A    
C9    H17   S    
Cu2   N3    S    
C4    C6    A    
C48   C49   A    
C12   C14   A    
C26   C30   A    
C55   C57   A    
C13   N2    S    
O18   H33   S    
C56   C62   A    
C36   C44   A    
C70   O19   D    
C3    C5    A    
C35   C43   A    
Cu2   O2    S    
O20   H34   S    
C68   H32   S    
C72   H39   S    
C21   C25   A    
C45   C59   A    
C16   C22   A    
C4    C70   S    
C46   C60   A    
C24   O6    A    
C40   N4    A    
C71   H36   S    
C6    C8    A    
C68   H30   S    
C62   H2    S    
C25   C27   A    
C20   H23   S    
C26   C28   A    
C12   H20   S    
C2    O2    A    
C33   H21   S    
C19   H24   S    
O14   H25   S    
C38   C67   S    
C11   C13   A    
C43   C51   A    
C57   C58   A    
C23   O7    A    
C11   H19   S    
C7    C23   S    
C55   C61   A    
C36   C38   A    
C8    C24   S    
C49   H11   S    
C18   C20   A    
C4    C14   A    
C45   N1    A    
C14   N1    S    
C57   C59   A    
C53   O11   S    
C15   C21   A    
C2    O4    A    
C8    C10   A    
Cu1   Cu2   S    
C22   C26   A    
C21   C72   S    
C71   H35   S    
C31   H5    S    
C45   O9    S    
