data_mof_unit_27775.cif
_audit_creation_date              2013-03-05T15:42:04-0500
_audit_creation_method            fapswitch 2.2
_symmetry_space_group_name_H-M    P1
_symmetry_Int_Tables_number       1
_space_group_crystal_system       triclinic
_cell_length_a                    27.761705
_cell_length_b                    8.684595
_cell_length_c                    7.441902
_cell_angle_alpha                 103.204264
_cell_angle_beta                  92.760503
_cell_angle_gamma                 91.694342
_cell_volume                      1743.2541215

loop_
_atom_site_label
_atom_site_type_symbol
_atom_site_description
_atom_site_fract_x
_atom_site_fract_y
_atom_site_fract_z
_atom_type_partial_charge
O1    O     O_R   0.503500 0.286120 0.619780 -0.573454
O2    O     O_R   0.496500 0.713880 0.380220 -0.573290
O3    O     O_R   0.494410 0.256780 0.308360 -0.588657
O4    O     O_R   0.505590 0.743220 0.691640 -0.588753
C1    C     C_R   0.498610 0.199737 0.453179 0.907650
C2    C     C_R   0.501389 0.800262 0.546821 0.908289
O5    O     O_R   0.434810 0.514700 0.655690 -0.563996
O6    O     O_R   0.565190 0.485300 0.344310 -0.563696
O7    O     O_R   0.425720 0.485350 0.344280 -0.592884
O8    O     O_R   0.574280 0.514650 0.655720 -0.592756
C3    C     C_R   0.407654 0.497494 0.504541 0.851185
C4    C     C_R   0.592342 0.502551 0.495470 0.851821
Cu1   Cu    Cu3+1 0.505380 0.517380 0.684380 0.995254
Cu2   Cu    Cu3+1 0.494620 0.482620 0.315620 0.995301
C5    C     C_R   0.178274 0.382491 0.463585 0.571327
C6    C     C_R   0.821747 0.618226 0.537128 0.571297
O9    O     O_2   0.202556 0.249458 0.404599 -0.537285
O10   O     O_2   0.797466 0.751222 0.596349 -0.537674
N1    N     N_R   0.203075 0.523013 0.533053 -0.454662
N2    N     N_R   0.796945 0.477726 0.467450 -0.454511
C7    C     C_R   0.179704 0.660802 0.587639 0.530644
C8    C     C_R   0.820327 0.339963 0.412753 0.530568
C9    C     C_R   0.279400 0.596611 0.416856 -0.100660
C10   C     C_R   0.720570 0.402932 0.582387 -0.100502
C11   C     C_R   0.329073 0.584470 0.406416 -0.249307
C12   C     C_R   0.670887 0.414821 0.592665 -0.249508
C13   C     C_R   0.330155 0.426731 0.639265 -0.034631
C14   C     C_R   0.669870 0.574664 0.361931 -0.034792
C15   C     C_R   0.280322 0.443779 0.651362 -0.176731
C16   C     C_R   0.719716 0.557844 0.349940 -0.176962
C17   C     C_R   0.254829 0.525824 0.538543 0.352785
C18   C     C_R   0.745185 0.474882 0.461814 0.352376
C19   C     C_R   0.102465 0.514833 0.507040 -0.040225
C20   C     C_R   0.897560 0.485915 0.493590 -0.040246
C21   C     C_R   0.127804 0.375703 0.452274 -0.048381
C22   C     C_R   0.872218 0.625029 0.548420 -0.048289
C23   C     C_R   0.102663 0.233204 0.377113 -0.112846
C24   C     C_R   0.897359 0.767524 0.623614 -0.112772
C25   C     C_R   0.128695 0.661915 0.564546 -0.094088
C26   C     C_R   0.871331 0.338843 0.435993 -0.094031
C27   C     C_R   0.355009 0.500387 0.516628 -0.047413
C28   C     C_R   0.644983 0.499821 0.483428 -0.047378
H1    H     H_    0.260599 0.386443 0.742004 0.149372
H2    H     H_    0.739467 0.616010 0.260135 0.149673
H3    H     H_    0.122156 0.128448 0.320368 0.195600
H4    H     H_    0.877864 0.872278 0.680370 0.195651
C29   C     C_R   0.974203 0.352063 0.450522 0.039781
C30   C     C_R   0.025821 0.648684 0.550140 0.039796
C31   C     C_R   0.974626 0.643356 0.559611 0.005605
C32   C     C_R   0.025397 0.357389 0.441069 0.005618
C33   C     C_R   0.949007 0.494109 0.499213 0.042473
C34   C     C_R   0.051017 0.506638 0.501446 0.042491
C35   C     C_R   0.947440 0.208436 0.428683 -0.069955
C36   C     C_R   0.052582 0.792312 0.571966 -0.069932
C37   C     C_R   0.897095 0.198082 0.409993 -0.005332
C38   C     C_R   0.102928 0.802671 0.590590 -0.005433
O11   O     O_2   0.794163 0.206750 0.332369 -0.542918
O12   O     O_2   0.205887 0.794047 0.667749 -0.542606
C39   C     C_R   0.052649 0.222341 0.365306 0.247267
C40   C     C_R   0.947373 0.778397 0.635398 0.247280
H5    H     H_    0.652543 0.356829 0.686008 0.166312
H6    H     H_    0.347381 0.641578 0.312191 0.166219
H7    H     H_    0.740169 0.340345 0.670978 0.154375
H8    H     H_    0.259770 0.658461 0.327535 0.154035
H9    H     H_    0.965116 0.102903 0.441291 0.208046
H10   H     H_    0.034903 0.897849 0.559392 0.208032
C41   C     C_2   0.497935 0.031707 0.426974 -0.316539
C42   C     C_2   0.502065 0.968293 0.573026 -0.316519
H11   H     H_    0.494039 0.959849 0.286347 0.178138
H12   H     H_    0.505960 0.040150 0.713653 0.178072
N3    N     N_2   0.486510 0.456430 0.038510 -0.223204
N4    N     N_2   0.513490 0.543570 0.961490 -0.223149
H13   H     H_    0.462768 0.378687 0.949295 0.256999
H14   H     H_    0.537236 0.621302 0.050704 0.256983
C43   C     C_2   0.353352 0.322718 0.747786 0.367226
H15   H     H_    0.337442 0.305906 0.872747 0.083991
O13   O     O_2   0.388518 0.247901 0.694452 -0.557079
C44   C     C_2   0.646711 0.679666 0.254593 0.366340
H16   H     H_    0.662917 0.698666 0.131088 0.084658
O14   O     O_2   0.611220 0.752916 0.307353 -0.557553
C45   C     C_2   0.873414 0.038070 0.378877 0.445305
H17   H     H_    0.840379 0.019421 0.444253 0.130548
O15   O     O_2   0.891386 0.923890 0.281629 -0.505601
C46   C     C_2   0.126600 0.962697 0.621742 0.445316
H18   H     H_    0.159614 0.981400 0.556272 0.130815
O16   O     O_2   0.108640 0.076834 0.719121 -0.505549
Br1   Br    Br    0.028900 0.022568 0.210974 -0.444391
Br2   Br    Br    0.971123 0.978169 0.789725 -0.444373

loop_
_geom_bond_atom_site_label_1
_geom_bond_atom_site_label_2
_geom_bond_distance
_ccdc_geom_bond_type
C13   C15   1.400702 A    
Cu2   N3    2.023157 S    
C43   H15   1.085816 S    
N1    C17   1.434718 S    
C8    O11   1.347657 S    
C45   H17   1.083598 S    
C40   Br2   1.926886 S    
C19   C34   1.426074 A    
C30   C36   1.405423 A    
C20   C33   1.426056 A    
C19   C25   1.417850 A    
C31   C40   1.434329 A    
O1    C1    1.292764 A    
C32   C39   1.434321 A    
C6    N2    1.363336 A    
N1    C7    1.366443 A    
C12   H5    1.083639 S    
C46   O16   1.221555 D    
C44   O14   1.220608 D    
C14   C28   1.421072 A    
O4    Cu1   1.949524 S    
C4    C28   1.469006 S    
C31   C33   1.427028 A    
C32   C34   1.427043 A    
C37   C45   1.483659 S    
C35   H9    1.072871 S    
C1    C41   1.426844 S    
C29   C35   1.405430 A    
C2    C42   1.426843 S    
Cu1   Cu2   2.692331 S    
C15   H1    1.084280 S    
C16   H2    1.084266 S    
O2    C2    1.292765 A    
C13   C43   1.483414 S    
C5    C21   1.398287 A    
C45   O15   1.221544 D    
C38   C46   1.483645 S    
C29   C32   1.426272 A    
C35   C37   1.396082 A    
C36   C38   1.396084 A    
C41   C42   1.327782 D    
C46   H18   1.083576 S    
O4    C2    1.286754 A    
C11   C27   1.404346 A    
N3    H13   1.028511 S    
C44   H16   1.085875 S    
C29   C33   1.419015 A    
C41   H11   1.087709 S    
C9    C17   1.397256 A    
C5    N1    1.363248 A    
O7    Cu2   1.935059 S    
C10   C18   1.397318 A    
C43   O13   1.220577 D    
C13   C27   1.421071 A    
O5    C3    1.300313 A    
C25   C38   1.414359 A    
C7    C25   1.418827 A    
O5    Cu1   1.959365 S    
O6    C4    1.300282 A    
C26   C37   1.414340 A    
C8    C26   1.418789 A    
C6    O10   1.350834 S    
O7    C3    1.299365 A    
C23   C39   1.386067 A    
O3    Cu2   1.949524 S    
O8    C4    1.299286 A    
C24   C40   1.386088 A    
N4    H14   1.028528 S    
C9    H8    1.082991 S    
N2    C8    1.366513 A    
C10   H7    1.082946 S    
C20   C26   1.417799 A    
O1    Cu1   1.953918 S    
C23   H3    1.083740 S    
C14   C44   1.483571 S    
C12   C28   1.404349 A    
N2    C18   1.434868 S    
C5    O9    1.350853 S    
C30   C31   1.426289 A    
O6    Cu2   1.959365 S    
C21   C23   1.388032 A    
C10   C12   1.390643 A    
O3    C1    1.286754 A    
O8    Cu1   1.935062 S    
C36   H10   1.072870 S    
Cu1   N4    2.023157 S    
C22   C24   1.388044 A    
C7    O12   1.347664 S    
C15   C17   1.399773 A    
C6    C22   1.398326 A    
C16   C18   1.399875 A    
C14   C16   1.400758 A    
C19   C21   1.404928 A    
C3    C27   1.469215 S    
C20   C22   1.404909 A    
C11   H6    1.083656 S    
C9    C11   1.390680 A    
O2    Cu2   1.953919 S    
C39   Br1   1.926891 S    
C24   H4    1.083757 S    
C30   C34   1.419022 A    
N3    N4    1.291608 D    
C42   H12   1.087709 S    
