data_mof_unit_25086.cif
_audit_creation_date              2012-12-10T17:59:43-0500
_audit_creation_method            fapswitch 2.2
_symmetry_space_group_name_H-M    P1
_symmetry_Int_Tables_number       1
_space_group_crystal_system       triclinic
_cell_length_a                    10.885645
_cell_length_b                    9.64159
_cell_length_c                    15.909829
_cell_angle_alpha                 90.263788
_cell_angle_beta                  95.379143
_cell_angle_gamma                 90.780242
_cell_volume                      1662.27817417

loop_
_atom_site_label
_atom_site_type_symbol
_atom_type_description
_atom_site_fract_x
_atom_site_fract_y
_atom_site_fract_z
_atom_type_partial_charge
C1    C     C_R   0.263378 0.498881 0.506772 0.817088
C2    C     C_3   0.645414 0.515107 0.958765 0.332681
C3    C     C_3   0.646210 0.499576 0.060594 0.361801
C4    C     C_1   0.500980 0.500621 0.823942 -0.006141
C5    C     C_1   0.501331 0.499391 0.176181 -0.001384
C6    C     C_1   0.500189 0.499251 0.251410 -0.192390
C7    C     C_R   0.060015 0.371075 0.502203 0.129489
C8    C     C_R   0.067096 0.623294 0.521872 0.132935
C9    C     C_R   0.933048 0.376751 0.478458 0.132357
C10   C     C_R   0.940100 0.628996 0.498189 0.128880
C11   C     C_R   0.870995 0.503453 0.486272 -0.143239
C12   C     C_R   0.129112 0.496597 0.514006 -0.141886
C13   C     C_R   0.425785 0.072942 0.440496 0.224486
C14   C     C_R   0.424188 0.924303 0.441375 0.229595
C15   C     C_R   0.499372 0.499722 0.340598 0.811981
C16   C     C_R   0.574082 0.927032 0.559665 0.232765
C17   C     C_R   0.575817 0.075685 0.558702 0.243585
C18   C     C_R   0.736671 0.501130 0.493337 0.809968
C19   C     C_R   0.500786 0.500288 0.659416 0.809655
C20   C     C_3   0.432322 0.640274 0.046965 0.097045
C21   C     C_3   0.426429 0.362146 0.044459 0.103092
C22   C     C_3   0.438765 0.351873 0.944006 0.296635
C23   C     C_3   0.417754 0.631328 0.944625 0.290219
C24   C     C_1   0.500954 0.500806 0.748641 -0.221225
C25   C     C_3   0.502679 0.500326 0.083520 0.005394
C26   C     C_3   0.500884 0.499748 0.916403 0.095665
Cu1   Cu    Cu3+1 0.500020 0.640660 0.500000 0.919488
Cu2   Cu    Cu3+1 0.500020 0.359340 0.500000 0.918947
N1    N     N_R   0.500030 0.852070 0.500020 -0.189332
N2    N     N_R   0.500030 0.147930 0.500020 -0.189130
O1    O     O_R   0.319660 0.618740 0.500000 -0.581296
O2    O     O_R   0.319660 0.381260 0.500000 -0.586748
O3    O     O_R   0.500020 0.618840 0.379440 -0.579138
O4    O     O_R   0.500020 0.381160 0.379440 -0.580330
O5    O     O_R   0.680370 0.618830 0.500010 -0.586877
O6    O     O_R   0.680370 0.381170 0.500010 -0.581489
O7    O     O_R   0.500010 0.618730 0.620560 -0.579283
O8    O     O_R   0.500010 0.381270 0.620560 -0.579463
C27   C     C_3   0.277725 0.617202 0.909544 -0.842139
H1    H     H_    0.220283 0.556570 0.949263 0.224385
H2    H     H_    0.228237 0.717500 0.908888 0.228230
H3    H     H_    0.267168 0.579069 0.843251 0.237044
C28   C     C_3   0.312353 0.312106 0.889948 -0.811895
H4    H     H_    0.228173 0.366453 0.900116 0.217415
H5    H     H_    0.322265 0.314449 0.821115 0.234158
H6    H     H_    0.280754 0.205518 0.904723 0.218776
C29   C     C_3   0.647419 0.854253 0.632303 -0.792915
H7    H     H_    0.675055 0.749527 0.617463 0.272593
H8    H     H_    0.737728 0.904186 0.651305 0.182207
H9    H     H_    0.593211 0.852078 0.688046 0.220059
C30   C     C_3   0.665814 0.149430 0.623383 -0.779152
H10   H     H_    0.671927 0.261391 0.619973 0.276773
H11   H     H_    0.642761 0.124144 0.688167 0.204983
H12   H     H_    0.761342 0.117038 0.615240 0.182872
C31   C     C_1   0.310853 0.652768 0.083361 0.273634
N3    N     N_1   0.217796 0.665842 0.112197 -0.290096
C32   C     C_1   0.293694 0.369179 0.059758 0.250408
N4    N     N_1   0.190436 0.369625 0.072059 -0.297665
C33   C     C_3   0.456695 0.223563 0.093489 -0.829770
H13   H     H_    0.396994 0.137194 0.065535 0.224184
H14   H     H_    0.549676 0.182922 0.095337 0.224209
H15   H     H_    0.437952 0.232394 0.160844 0.225753
C34   C     C_3   0.489916 0.781511 0.081617 -0.847802
H16   H     H_    0.422329 0.867751 0.075242 0.219183
H17   H     H_    0.521234 0.775239 0.150006 0.236572
H18   H     H_    0.563433 0.825252 0.047573 0.218971
C35   C     C_3   0.513835 0.221538 0.919169 -0.803423
H19   H     H_    0.459311 0.122990 0.915216 0.215924
H20   H     H_    0.547724 0.233760 0.855895 0.232946
H21   H     H_    0.587359 0.188765 0.964842 0.207638
C36   C     C_3   0.447634 0.772687 0.899676 -0.796927
H22   H     H_    0.429785 0.762867 0.829923 0.232108
H23   H     H_    0.387191 0.856653 0.919374 0.217642
H24   H     H_    0.538088 0.821497 0.910336 0.210369
C37   C     C_3   0.730027 0.611607 0.112710 -0.801814
H25   H     H_    0.734073 0.591402 0.181688 0.229431
H26   H     H_    0.826549 0.607887 0.095297 0.232396
H27   H     H_    0.708565 0.720704 0.106672 0.215745
C38   C     C_3   0.716503 0.366818 0.095186 -0.815900
H28   H     H_    0.705232 0.274172 0.056709 0.207909
H29   H     H_    0.818600 0.380258 0.098927 0.233828
H30   H     H_    0.694522 0.341282 0.160158 0.230996
C39   C     C_3   0.707820 0.655444 0.934011 -0.831977
H31   H     H_    0.684573 0.680190 0.866321 0.231697
H32   H     H_    0.691187 0.744381 0.973048 0.213295
H33   H     H_    0.810401 0.654011 0.943090 0.227389
C40   C     C_3   0.737471 0.413584 0.918449 -0.817723
H34   H     H_    0.833866 0.432495 0.946347 0.230771
H35   H     H_    0.729341 0.302286 0.926050 0.213550
H36   H     H_    0.736883 0.430359 0.849316 0.228209
C41   C     C_3   0.116391 0.230843 0.523252 -0.814109
H37   H     H_    0.185962 0.238917 0.578802 0.242327
H38   H     H_    0.046392 0.155105 0.542044 0.219011
H39   H     H_    0.157728 0.187963 0.467986 0.240351
C42   C     C_3   0.131611 0.748743 0.565201 -0.807527
H40   H     H_    0.206370 0.716590 0.613193 0.234644
H41   H     H_    0.169456 0.817948 0.518236 0.243450
H42   H     H_    0.066891 0.808897 0.600665 0.218725
C43   C     C_3   0.868643 0.251234 0.435142 -0.799650
H43   H     H_    0.933479 0.190950 0.399850 0.221349
H44   H     H_    0.830614 0.182153 0.482095 0.241434
H45   H     H_    0.794052 0.283330 0.387009 0.234993
C44   C     C_3   0.883702 0.769317 0.477395 -0.808666
H46   H     H_    0.953690 0.845269 0.458846 0.220391
H47   H     H_    0.814291 0.761513 0.421743 0.243758
H48   H     H_    0.842198 0.811833 0.532705 0.237745
C45   C     C_3   0.351811 0.145580 0.368111 -0.775917
H49   H     H_    0.325221 0.250798 0.382581 0.273887
H50   H     H_    0.404996 0.146357 0.311902 0.218627
H51   H     H_    0.260946 0.096196 0.350133 0.185257
C46   C     C_3   0.334115 0.850564 0.376716 -0.752784
H52   H     H_    0.328134 0.738589 0.380026 0.278185
H53   H     H_    0.238572 0.882708 0.385005 0.182749
H54   H     H_    0.356927 0.876083 0.311911 0.212321

loop_
_geom_bond_atom_site_label_1
_geom_bond_atom_site_label_2
_ccdc_geom_bond_type
C31   N3    T    
C34   H17   S    
C11   C18   S    
Cu1   N1    S    
C42   H40   S    
C13   C45   S    
C3    C38   S    
C17   C30   S    
C42   H42   S    
C27   H2    S    
Cu1   O3    S    
Cu2   O2    S    
C39   H31   S    
C10   C44   S    
C21   C33   S    
C5    C6    T    
C4    C24   T    
C20   C25   S    
C1    O1    A    
C23   C26   S    
C37   H25   S    
C19   O7    A    
C36   H24   S    
C6    C15   S    
C44   H47   S    
C1    C12   S    
C46   H52   S    
C16   C17   A    
C45   H49   S    
C27   H3    S    
C3    C37   S    
C18   O5    A    
C15   O4    A    
C34   H18   S    
Cu2   O4    S    
C33   H13   S    
C9    C43   S    
C21   C22   S    
C17   N2    A    
C45   H50   S    
C2    C39   S    
C7    C12   A    
C8    C42   S    
C20   C31   S    
C16   C29   S    
C37   H27   S    
C44   H46   S    
C29   H9    S    
C14   C46   S    
C33   H14   S    
Cu1   O1    S    
C30   H10   S    
C29   H7    S    
C23   C36   S    
C13   N2    A    
C3    C25   S    
C29   H8    S    
C27   H1    S    
C36   H23   S    
Cu1   O5    S    
C16   N1    A    
C1    O2    A    
C35   H19   S    
C30   H11   S    
C44   H48   S    
C28   H4    S    
C21   C32   S    
C19   O8    A    
C41   H38   S    
C37   H26   S    
C43   H43   S    
C20   C23   S    
Cu2   O8    S    
C8    C12   A    
C7    C41   S    
C43   H45   S    
C2    C40   S    
C46   H53   S    
C9    C11   A    
C5    C25   S    
C43   H44   S    
C40   H35   S    
C45   H51   S    
C14   N1    A    
C41   H37   S    
C38   H29   S    
C7    C9    A    
C21   C25   S    
C33   H15   S    
C39   H32   S    
C34   H16   S    
C2    C26   S    
C38   H30   S    
C4    C26   S    
C42   H41   S    
C30   H12   S    
C35   H21   S    
C20   C34   S    
Cu2   N2    S    
C2    C3    S    
C36   H22   S    
C28   H5    S    
C41   H39   S    
C32   N4    T    
Cu1   O7    S    
C23   C27   S    
C19   C24   S    
C46   H54   S    
C28   H6    S    
C22   C35   S    
C10   C11   A    
C38   H28   S    
C39   H33   S    
Cu2   O6    S    
C40   H34   S    
C8    C10   A    
C22   C26   S    
C40   H36   S    
Cu1   Cu2   S    
C35   H20   S    
C13   C14   A    
C18   O6    A    
C15   O3    A    
C22   C28   S    
