data_mof_unit_36352.cif
_audit_creation_date              2012-10-26T19:03:31-0400
_audit_creation_method            fapswitch 2.2
_symmetry_space_group_name_H-M    P1
_symmetry_Int_Tables_number       1
_space_group_crystal_system       triclinic
_cell_length_a                    10.867544
_cell_length_b                    13.042119
_cell_length_c                    11.659072
_cell_angle_alpha                 99.755867
_cell_angle_beta                  94.318236
_cell_angle_gamma                 90.382661
_cell_volume                      1623.66957192

loop_
_atom_site_label
_atom_site_type_symbol
_atom_type_description
_atom_site_fract_x
_atom_site_fract_y
_atom_site_fract_z
_atom_type_partial_charge
C1    C     C_R   0.500596 0.299015 0.479100 0.556541
C2    C     C_R   0.480935 0.123410 0.358106 -0.178122
C3    C     C_R   0.527244 0.138514 0.568460 0.250340
C4    C     C_R   0.262462 0.508089 0.501534 0.545145
C5    C     C_R   0.517716 0.030190 0.557493 0.054899
C6    C     C_R   0.495217 0.968694 0.445636 0.008267
C7    C     C_R   0.489674 0.860834 0.434459 -0.120511
C8    C     C_R   0.523411 0.874849 0.644828 -0.137921
C9    C     C_R   0.530212 0.982278 0.656684 -0.124359
C10   C     C_R   0.383699 0.402940 0.020724 -0.164644
C11   C     C_R   0.394608 0.411787 0.142978 0.045955
C12   C     C_R   0.071908 0.527347 0.612909 0.026671
C13   C     C_R   0.549994 0.542317 0.158679 0.057965
C14   C     C_R   0.542673 0.536472 0.035484 -0.011896
C15   C     C_R   0.458065 0.465399 0.965786 -0.013985
C16   C     C_R   0.501669 0.700762 0.521258 0.561877
C17   C     C_R   0.449769 0.458462 0.842803 0.030676
C18   C     C_R   0.605896 0.589231 0.857056 0.101764
C19   C     C_R   0.616961 0.599379 0.980306 -0.063155
C20   C     C_R   0.737942 0.493015 0.500206 0.549782
C21   C     C_R   0.134765 0.567621 0.722494 -0.106459
C22   C     C_R   0.085547 0.555305 0.826254 -0.121517
C23   C     C_R   0.128454 0.515890 0.505509 -0.007194
C24   C     C_R   0.972773 0.503523 0.822842 0.003298
C25   C     C_R   0.903846 0.474048 0.716016 -0.098010
C26   C     C_R   0.947509 0.495865 0.610789 0.023156
C27   C     C_3   0.683883 0.208648 0.698824 -0.016042
C28   C     C_3   0.715250 0.263215 0.823644 -0.353948
C29   C     C_1   0.683538 0.653831 0.802150 0.269430
C30   C     C_1   0.704344 0.674388 0.049007 0.171558
C31   C     C_1   0.926421 0.482881 0.929376 0.173587
C32   C     C_R   0.055297 0.497630 0.399808 -0.149294
C33   C     C_R   0.928551 0.488351 0.399265 -0.147889
C34   C     C_R   0.872841 0.487843 0.503603 -0.008679
C35   C     C_R   0.504543 0.813684 0.533768 0.007613
C36   C     C_R   0.503420 0.185587 0.468501 0.002490
C37   C     C_R   0.478306 0.015695 0.346610 -0.146462
Cu1   Cu    Cu3+1 0.509250 0.507730 0.615930 0.957322
Cu2   Cu    Cu3+1 0.490750 0.492270 0.384070 0.943476
H1    H     H_    0.095924 0.490901 0.316866 0.150524
H2    H     H_    0.818773 0.431262 0.716683 0.127391
H3    H     H_    0.874202 0.480364 0.316317 0.161506
H4    H     H_    0.473707 0.813815 0.348413 0.129966
H5    H     H_    0.533941 0.839817 0.722738 0.144748
H6    H     H_    0.460900 0.969198 0.260505 0.124579
H7    H     H_    0.722322 0.255923 0.638360 0.132380
H8    H     H_    0.729161 0.131526 0.688086 0.124964
H9    H     H_    0.676021 0.218342 0.885653 0.160349
H10   H     H_    0.817001 0.269235 0.842032 0.110795
H11   H     H_    0.676940 0.342618 0.836484 0.176400
H12   H     H_    0.545263 0.027362 0.743687 0.153691
H13   H     H_    0.464263 0.158028 0.280363 0.141202
H14   H     H_    0.384793 0.404041 0.788959 0.151414
H15   H     H_    0.317602 0.347656 0.969657 0.101526
H16   H     H_    0.336934 0.363332 0.184467 0.126471
H17   H     H_    0.614027 0.595974 0.214582 0.142477
H18   H     H_    0.220746 0.611101 0.730022 0.148054
H19   H     H_    0.137149 0.583766 0.908870 0.122081
N1    N     N_R   0.523180 0.519350 0.790130 -0.267558
N2    N     N_R   0.476820 0.480650 0.209890 -0.236416
N3    N     N_1   0.746580 0.706041 0.759471 -0.293963
N4    N     N_1   0.774068 0.734146 0.103732 -0.288504
N5    N     N_1   0.889445 0.466172 0.015038 -0.323569
O1    O     O_R   0.506570 0.354460 0.582000 -0.456869
O2    O     O_R   0.490940 0.341410 0.386200 -0.519829
O3    O     O_R   0.327470 0.506530 0.597920 -0.521426
O4    O     O_R   0.311840 0.493480 0.402120 -0.507778
O5    O     O_R   0.509060 0.658590 0.613800 -0.503734
O6    O     O_R   0.493430 0.645540 0.418000 -0.512164
O7    O     O_R   0.688160 0.506520 0.597880 -0.508677
O8    O     O_R   0.672530 0.493470 0.402080 -0.506261
O9    O     O_3   0.554264 0.198020 0.677824 -0.555494

loop_
_geom_bond_atom_site_label_1
_geom_bond_atom_site_label_2
_ccdc_geom_bond_type
C22   H19   S    
C4    O4    A    
C1    O2    A    
Cu1   O7    S    
C20   O8    A    
C21   H18   S    
C6    C7    A    
C16   O5    A    
C7    H4    S    
C31   N5    T    
C28   H10   S    
C16   O6    A    
C27   H8    S    
C9    H12   S    
C8    C35   A    
C13   H17   S    
C20   C34   S    
C32   C33   A    
C2    C36   A    
C32   H1    S    
C33   C34   A    
Cu2   O6    S    
C6    C37   A    
C13   N2    A    
C12   C23   A    
C21   C22   A    
C23   C32   A    
C18   C29   S    
C5    C9    A    
Cu2   O2    S    
C2    C37   A    
C20   O7    A    
C5    C6    A    
C2    H13   S    
C3    C36   A    
C17   N1    A    
Cu2   N2    S    
C28   H11   S    
C27   H7    S    
C7    C35   A    
Cu1   O5    S    
C3    O9    S    
Cu1   O1    S    
C10   C15   A    
C30   N4    T    
C16   C35   S    
Cu1   Cu2   S    
C10   H15   S    
C22   C24   A    
C24   C31   S    
C29   N3    T    
C33   H3    S    
C37   H6    S    
Cu1   N1    S    
C12   C21   A    
C1    O1    A    
C17   H14   S    
C18   N1    A    
C11   H16   S    
C24   C25   A    
C4    O3    A    
C18   C19   A    
C10   C11   A    
C25   H2    S    
C27   C28   S    
C15   C17   A    
C4    C23   S    
Cu1   O3    S    
C14   C15   A    
C28   H9    S    
Cu2   O8    S    
C25   C26   A    
C13   C14   A    
C19   C30   S    
Cu2   O4    S    
C14   C19   A    
C26   C34   A    
C27   O9    S    
C11   N2    A    
C1    C36   S    
C12   C26   A    
C8    C9    A    
C3    C5    A    
C8    H5    S    
