data_mof_unit_64167.cif
_audit_creation_date              2012-12-10T17:27:52-0500
_audit_creation_method            fapswitch 2.2
_symmetry_space_group_name_H-M    P1
_symmetry_Int_Tables_number       1
_space_group_crystal_system       triclinic
_cell_length_a                    29.403067
_cell_length_b                    29.403062
_cell_length_c                    38.968088
_cell_angle_alpha                 90.00003
_cell_angle_beta                  90.000029
_cell_angle_gamma                 90.0
_cell_volume                      33689.4786707

loop_
_atom_site_label
_atom_site_type_symbol
_atom_type_description
_atom_site_fract_x
_atom_site_fract_y
_atom_site_fract_z
_atom_type_partial_charge
C1    C     C_R   0.500000 0.914392 0.000000 0.803970
C2    C     C_1   0.229273 0.500000 1.000000 0.042347
C3    C     C_R   0.000000 0.500000 0.895091 -0.509746
C4    C     C_R   0.000000 0.500000 0.604909 -0.509747
C5    C     C_R   0.500000 0.000000 0.604909 -0.509747
C6    C     C_R   1.000000 0.500000 0.395091 -0.509746
C7    C     C_R   0.500000 1.000000 0.395091 -0.509746
C8    C     C_R   0.500000 1.000000 0.284822 0.540400
C9    C     C_R   1.000000 0.500000 0.284822 0.540400
C10   C     C_R   0.500000 0.000000 0.715178 0.540400
C11   C     C_R   0.000000 0.500000 0.715178 0.540400
C12   C     C_R   0.000000 0.500000 0.784822 0.540400
C13   C     C_1   0.500000 0.229273 1.000000 0.042347
C14   C     C_R   0.500000 0.000000 0.784822 0.540401
C15   C     C_R   1.000000 0.500000 0.215177 0.540400
C16   C     C_R   0.500000 1.000000 0.215177 0.540400
C17   C     C_1   0.500000 0.863298 0.000000 -0.141275
C18   C     C_1   0.136702 0.500000 0.000000 -0.141275
C19   C     C_1   0.500000 0.136702 0.000000 -0.141275
C20   C     C_1   0.863298 0.500000 0.000000 -0.141274
C21   C     C_1   0.000000 0.363298 0.500000 -0.141275
C22   C     C_1   0.636702 0.000000 0.500000 -0.141275
C23   C     C_1   0.000000 0.636702 0.500000 -0.141275
C24   C     C_1   0.770727 0.500000 0.000000 0.042347
C25   C     C_1   0.363298 0.000000 0.500000 -0.141275
C26   C     C_1   0.500000 0.820939 0.000000 0.040976
C27   C     C_1   0.179061 0.500000 1.000000 0.040976
C28   C     C_1   0.500000 0.179061 1.000000 0.040976
C29   C     C_1   0.820939 0.500000 0.000000 0.040976
C30   C     C_1   0.000000 0.320939 0.500000 0.040976
C31   C     C_1   0.679061 0.000000 0.500000 0.040976
C32   C     C_1   0.000000 0.679061 0.500000 0.040976
C33   C     C_1   0.320939 0.000000 0.500000 0.040976
C34   C     C_1   0.000000 0.270727 0.500000 0.042347
C35   C     C_1   0.729273 0.000000 0.500000 0.042347
C36   C     C_1   0.000000 0.729273 0.500000 0.042347
C37   C     C_1   0.270727 0.000000 0.500000 0.042347
C38   C     C_1   0.500000 0.728368 0.000000 0.039122
C39   C     C_1   0.271632 0.500000 1.000000 0.039122
C40   C     C_1   0.500000 0.271632 1.000000 0.039122
C41   C     C_R   0.085608 0.500000 0.000000 0.803969
C42   C     C_1   0.728368 0.500000 0.000000 0.039122
C43   C     C_1   0.000000 0.228368 0.500000 0.039122
C44   C     C_1   0.771632 0.000000 0.500000 0.039122
C45   C     C_1   0.000000 0.771632 0.500000 0.039122
C46   C     C_1   0.228368 0.000000 0.500000 0.039122
C47   C     C_1   0.500000 0.678155 0.000000 0.033088
C48   C     C_1   0.321845 0.500000 1.000000 0.033088
C49   C     C_1   0.500000 0.321845 1.000000 0.033088
C50   C     C_1   0.678155 0.500000 0.000000 0.033088
C51   C     C_1   0.000000 0.178155 0.500000 0.033088
C52   C     C_R   0.500000 0.085607 0.000000 0.803969
C53   C     C_1   0.821845 0.000000 0.500000 0.033088
C54   C     C_1   0.000000 0.821845 0.500000 0.033088
C55   C     C_1   0.178155 0.000000 0.500000 0.033088
C56   C     C_1   0.500000 0.635796 0.000000 -0.158791
C57   C     C_1   0.364204 0.500000 1.000000 -0.158790
C58   C     C_1   0.500000 0.364204 1.000000 -0.158791
C59   C     C_1   0.635796 0.500000 0.000000 -0.158791
C60   C     C_1   0.000000 0.135796 0.500000 -0.158791
C61   C     C_1   0.864204 0.000000 0.500000 -0.158791
C62   C     C_1   0.000000 0.864204 0.500000 -0.158791
C63   C     C_R   0.914392 0.500000 0.000000 0.803970
C64   C     C_1   0.135796 0.000000 0.500000 -0.158791
C65   C     C_R   0.415300 0.500000 0.000000 0.794171
C66   C     C_R   0.500000 0.415300 0.000000 0.794171
C67   C     C_R   0.584700 0.500000 0.000000 0.794170
C68   C     C_R   0.500000 0.584700 0.000000 0.794171
C69   C     C_R   0.915300 0.000000 0.500000 0.794171
C70   C     C_R   0.000000 0.915300 0.500000 0.794171
C71   C     C_R   0.084700 0.000000 0.500000 0.794170
C72   C     C_R   0.000000 0.084700 0.500000 0.794171
C73   C     C_R   0.500000 0.000000 0.067023 0.969676
C74   C     C_R   0.000000 0.414392 0.500000 0.803970
C75   C     C_R   0.000000 0.500000 0.067023 0.969676
C76   C     C_R   0.500000 0.000000 0.932976 0.969676
C77   C     C_R   0.000000 0.500000 0.932976 0.969678
C78   C     C_R   0.000000 0.500000 0.567024 0.969676
C79   C     C_R   0.500000 0.000000 0.567024 0.969676
C80   C     C_R   1.000000 0.500000 0.432976 0.969677
C81   C     C_R   0.500000 1.000000 0.432976 0.969677
C82   C     C_R   0.460100 0.989461 0.123207 0.495828
C83   C     C_R   0.010539 0.460101 0.123207 0.495828
C84   C     C_R   0.539899 0.010539 0.123207 0.495828
C85   C     C_R   0.585607 0.000000 0.500000 0.803969
C86   C     C_R   0.989460 0.539899 0.123207 0.495828
C87   C     C_R   0.539899 0.989461 0.876793 0.495829
C88   C     C_R   0.989460 0.460101 0.876793 0.495828
C89   C     C_R   0.460100 0.010539 0.876793 0.495828
C90   C     C_R   0.010540 0.539899 0.876793 0.495828
C91   C     C_R   0.960100 0.489461 0.623207 0.495829
C92   C     C_R   0.510539 0.960100 0.623207 0.495829
C93   C     C_R   0.039900 0.510539 0.623207 0.495830
C94   C     C_R   0.489461 0.039900 0.623207 0.495830
C95   C     C_R   0.039899 0.489460 0.376793 0.495827
C96   C     C_R   0.000000 0.585607 0.500000 0.803969
C97   C     C_R   0.489460 0.960100 0.376793 0.495828
C98   C     C_R   0.960101 0.510540 0.376793 0.495828
C99   C     C_R   0.510540 0.039899 0.376793 0.495828
C100  C     C_R   0.460153 0.989295 0.159022 0.534892
C101  C     C_R   0.010705 0.460153 0.159022 0.534894
C102  C     C_R   0.539847 0.010705 0.159022 0.534895
C103  C     C_R   0.989295 0.539847 0.159022 0.534894
C104  C     C_R   0.539847 0.989295 0.840978 0.534893
C105  C     C_R   0.989294 0.460153 0.840978 0.534895
C106  C     C_R   0.460153 0.010705 0.840978 0.534895
C107  C     C_R   0.414392 0.000000 0.500000 0.803970
C108  C     C_R   0.010706 0.539847 0.840978 0.534893
C109  C     C_R   0.960153 0.489295 0.659022 0.534893
C110  C     C_R   0.510705 0.960153 0.659022 0.534892
C111  C     C_R   0.039847 0.510705 0.659022 0.534892
C112  C     C_R   0.489295 0.039847 0.659022 0.534893
C113  C     C_R   0.039847 0.489295 0.340978 0.534894
C114  C     C_R   0.489294 0.960153 0.340978 0.534894
C115  C     C_R   0.960153 0.510705 0.340978 0.534893
C116  C     C_R   0.510706 0.039847 0.340978 0.534892
C117  C     C_R   0.500000 1.000000 0.177301 -0.400697
C118  C     C_1   0.500000 0.770727 0.000000 0.042347
C119  C     C_R   1.000000 0.500000 0.177301 -0.400698
C120  C     C_R   0.500000 0.000000 0.822698 -0.400698
C121  C     C_R   0.000000 0.500000 0.822698 -0.400697
C122  C     C_R   0.000000 0.500000 0.677302 -0.400696
C123  C     C_R   0.500000 0.000000 0.677302 -0.400696
C124  C     C_R   1.000000 0.500000 0.322698 -0.400697
C125  C     C_R   0.500000 1.000000 0.322698 -0.400696
C126  C     C_R   0.500000 1.000000 0.104909 -0.509746
C127  C     C_R   0.000000 0.500000 0.104909 -0.509746
C128  C     C_R   0.500000 0.000000 0.895091 -0.509747
Cu1   Cu    Cu3+1 0.542440 0.000000 0.000000 1.126270
Cu2   Cu    Cu3+1 0.500000 0.500000 0.965730 1.025635
Cu3   Cu    Cu3+1 1.000000 0.000000 0.534270 1.025634
Cu4   Cu    Cu3+1 0.000000 0.000000 0.465730 1.025635
Cu5   Cu    Cu3+1 1.000000 0.542440 0.000000 1.126270
Cu6   Cu    Cu3+1 0.457560 0.000000 0.000000 1.126270
Cu7   Cu    Cu3+1 0.000000 0.457560 0.000000 1.126270
Cu8   Cu    Cu3+1 0.042440 0.500000 0.500000 1.126270
Cu9   Cu    Cu3+1 0.500000 0.042440 0.500000 1.126270
Cu10  Cu    Cu3+1 0.957560 0.500000 0.500000 1.126270
Cu11  Cu    Cu3+1 0.500000 0.957560 0.500000 1.126270
Cu12  Cu    Cu3+1 0.500000 0.500000 0.034270 1.025634
F1    F     F_    0.420975 0.978822 0.106519 -0.561572
F2    F     F_    0.521178 0.920975 0.606519 -0.561572
F3    F     F_    0.079025 0.521178 0.606519 -0.561573
F4    F     F_    0.478822 0.079025 0.606519 -0.561573
F5    F     F_    0.079024 0.478821 0.393481 -0.561572
F6    F     F_    0.478821 0.920976 0.393481 -0.561573
F7    F     F_    0.920975 0.521179 0.393481 -0.561572
F8    F     F_    0.521179 0.079024 0.393481 -0.561572
F9    F     F_    0.420817 0.979587 0.175750 -0.549294
F10   F     F_    0.020414 0.420817 0.175750 -0.549295
F11   F     F_    0.579183 0.020413 0.175750 -0.549295
F12   F     F_    0.021178 0.420975 0.106519 -0.561572
F13   F     F_    0.979586 0.579183 0.175750 -0.549295
F14   F     F_    0.579183 0.979587 0.824250 -0.549295
F15   F     F_    0.979585 0.420817 0.824250 -0.549295
F16   F     F_    0.420817 0.020413 0.824250 -0.549295
F17   F     F_    0.020415 0.579182 0.824250 -0.549294
F18   F     F_    0.920817 0.479587 0.675750 -0.549295
F19   F     F_    0.520413 0.920817 0.675750 -0.549295
F20   F     F_    0.079183 0.520413 0.675750 -0.549295
F21   F     F_    0.479587 0.079183 0.675750 -0.549295
F22   F     F_    0.079183 0.479586 0.324250 -0.549294
F23   F     F_    0.579025 0.021178 0.106519 -0.561573
F24   F     F_    0.479586 0.920817 0.324250 -0.549295
F25   F     F_    0.920817 0.520414 0.324250 -0.549295
F26   F     F_    0.520414 0.079183 0.324250 -0.549294
F27   F     F_    0.978821 0.579024 0.106519 -0.561572
F28   F     F_    0.579025 0.978822 0.893481 -0.561572
F29   F     F_    0.978820 0.420976 0.893481 -0.561572
F30   F     F_    0.420975 0.021178 0.893481 -0.561572
F31   F     F_    0.021180 0.579024 0.893481 -0.561572
F32   F     F_    0.920975 0.478822 0.606519 -0.561572
N1    N     N_R   0.528103 0.028059 0.232928 -0.125715
N2    N     N_R   0.471941 0.028103 0.732928 -0.125715
N3    N     N_R   0.971897 0.471941 0.732928 -0.125715
N4    N     N_R   0.528059 0.971897 0.732928 -0.125715
N5    N     N_R   0.971897 0.528059 0.267072 -0.125715
N6    N     N_R   0.528059 0.028102 0.267072 -0.125715
N7    N     N_R   0.028103 0.471941 0.267072 -0.125715
N8    N     N_R   0.471941 0.971897 0.267072 -0.125715
N9    N     N_R   0.971941 0.528103 0.232928 -0.125715
N10   N     N_R   0.471897 0.971941 0.232928 -0.125714
N11   N     N_R   0.028059 0.471897 0.232928 -0.125714
N12   N     N_R   0.471897 0.028059 0.767072 -0.125716
N13   N     N_R   0.028059 0.528102 0.767072 -0.125714
N14   N     N_R   0.528103 0.971941 0.767072 -0.125715
N15   N     N_R   0.971941 0.471897 0.767072 -0.125716
N16   N     N_R   0.028103 0.528058 0.732928 -0.125715
O1    O     O_R   0.535830 0.937970 0.000040 -0.560482
O2    O     O_R   0.562030 0.035830 0.500040 -0.560482
O3    O     O_R   0.964170 0.562030 0.500040 -0.560481
O4    O     O_R   0.437970 0.964170 0.500040 -0.560481
O5    O     O_R   0.964170 0.437970 0.499960 -0.560482
O6    O     O_R   0.437970 0.035830 0.499960 -0.560482
O7    O     O_R   0.035830 0.562030 0.499960 -0.560482
O8    O     O_R   0.562030 0.964170 0.499960 -0.560482
O9    O     O_R   0.535830 0.999940 0.049970 -0.528972
O10   O     O_R   0.000060 0.535830 0.049970 -0.528972
O11   O     O_R   0.464170 0.000060 0.049970 -0.528971
O12   O     O_R   0.062030 0.535830 0.000040 -0.560482
O13   O     O_R   0.999940 0.464170 0.049970 -0.528971
O14   O     O_R   0.464170 0.999940 0.950030 -0.528972
O15   O     O_R   0.999940 0.535830 0.950030 -0.528972
O16   O     O_R   0.535830 0.000060 0.950030 -0.528971
O17   O     O_R   0.000060 0.464170 0.950030 -0.528972
O18   O     O_R   0.035830 0.499940 0.549970 -0.528972
O19   O     O_R   0.500060 0.035830 0.549970 -0.528972
O20   O     O_R   0.964170 0.500060 0.549970 -0.528971
O21   O     O_R   0.499940 0.964170 0.549970 -0.528971
O22   O     O_R   0.964170 0.499940 0.450030 -0.528972
O23   O     O_R   0.464170 0.062030 0.000040 -0.560482
O24   O     O_R   0.499940 0.035830 0.450030 -0.528971
O25   O     O_R   0.035830 0.500060 0.450030 -0.528971
O26   O     O_R   0.500060 0.964170 0.450030 -0.528972
O27   O     O_R   0.437960 0.499970 0.028950 -0.550851
O28   O     O_R   0.500030 0.437960 0.028950 -0.550851
O29   O     O_R   0.562040 0.500030 0.028950 -0.550851
O30   O     O_R   0.499970 0.562040 0.028950 -0.550851
O31   O     O_R   0.562040 0.499970 0.971050 -0.550851
O32   O     O_R   0.499970 0.437960 0.971050 -0.550851
O33   O     O_R   0.437960 0.500030 0.971050 -0.550851
O34   O     O_R   0.937970 0.464170 0.000040 -0.560481
O35   O     O_R   0.500030 0.562040 0.971050 -0.550851
O36   O     O_R   0.937960 0.999970 0.528950 -0.550851
O37   O     O_R   0.000030 0.937960 0.528950 -0.550851
O38   O     O_R   0.062040 0.000030 0.528950 -0.550851
O39   O     O_R   0.999970 0.062040 0.528950 -0.550851
O40   O     O_R   0.062040 0.999970 0.471050 -0.550851
O41   O     O_R   0.999970 0.937960 0.471050 -0.550851
O42   O     O_R   0.937960 0.000030 0.471050 -0.550851
O43   O     O_R   0.000030 0.062040 0.471050 -0.550851
O44   O     O_R   0.464170 0.937970 0.999960 -0.560481
O45   O     O_R   0.937970 0.535830 0.999960 -0.560482
O46   O     O_R   0.535830 0.062030 0.999960 -0.560482
O47   O     O_R   0.062030 0.464170 0.999960 -0.560482
O48   O     O_R   0.035830 0.437970 0.500040 -0.560482

loop_
_geom_bond_atom_site_label_1
_geom_bond_atom_site_label_2
_ccdc_geom_bond_type
C16   N1    A    
Cu5   O15   S    
C99   F8    S    
C105  F15   S    
C10   N2    A    
Cu5   O10   S    
C72   O43   A    
C86   C103  A    
C84   C102  A    
C97   F6    S    
Cu10  O3    S    
C95   F5    S    
C70   O37   A    
C108  C121  A    
Cu2   Cu12  S    
Cu4   O41   S    
C65   O33   A    
C5    C94   A    
C75   O13   A    
C52   O46   A    
C48   C57   T    
Cu7   O13   S    
Cu11  O21   S    
C112  F21   S    
Cu9   Cu11  S    
C7    C99   A    
C91   F32   S    
C3    C90   A    
C17   C26   T    
C6    C98   A    
C96   O3    A    
Cu2   O35   S    
C89   F30   S    
C65   O27   A    
C82   F1    S    
C14   N14   A    
C16   N10   A    
C109  C122  A    
C22   C85   S    
C98   F7    S    
C60   C72   S    
Cu11  O26   S    
C40   C49   S    
C73   O11   A    
C101  F10   S    
C9    C124  S    
C24   C42   T    
C23   C96   S    
C62   C70   S    
C71   O40   A    
C64   C71   S    
C94   C112  A    
Cu3   O37   S    
C24   C29   S    
C82   C126  A    
C13   C40   T    
C66   O32   A    
Cu12  O27   S    
C59   C67   S    
C113  F22   S    
Cu1   O16   S    
C53   C61   T    
C44   C53   S    
C58   C66   S    
C96   O7    A    
C12   C121  S    
C81   O26   A    
C72   O39   A    
Cu1   O1    S    
C107  O4    A    
C52   O23   A    
C92   F2    S    
C13   C28   S    
C2    C27   S    
C115  C124  A    
Cu6   O44   S    
C87   C104  A    
C115  F25   S    
C7    C97   A    
Cu4   O42   S    
C93   F3    S    
C102  F11   S    
Cu7   O17   S    
C4    C91   A    
C86   C127  A    
C74   O5    A    
C111  C122  A    
C84   C126  A    
C63   O34   A    
C116  F26   S    
C41   O12   A    
C109  F18   S    
C19   C52   S    
C87   C128  A    
N8    N10   A    
Cu6   O14   S    
N7    N11   A    
C20   C29   T    
C10   N4    A    
Cu6   O11   S    
C22   C31   T    
C30   C34   S    
Cu9   O24   S    
C11   N16   A    
C101  C119  A    
C67   O29   A    
Cu8   O7    S    
Cu8   Cu10  S    
Cu11  O4    S    
C18   C41   S    
N2    N12   A    
C99   C116  A    
C114  C125  A    
Cu10  O20   S    
C91   C109  A    
N13   N16   A    
C103  F13   S    
C108  F17   S    
C41   O47   A    
C85   O2    A    
C56   C68   S    
C12   N15   A    
C21   C74   S    
Cu10  O22   S    
C33   C37   S    
C49   C58   T    
C4    C93   A    
C73   O9    A    
C69   O42   A    
C38   C118  T    
C89   C106  A    
Cu12  O28   S    
C68   O30   A    
C111  F20   S    
C78   O18   A    
C4    C78   S    
C35   C44   T    
C77   O17   A    
C110  C123  A    
C63   O45   A    
C8    N8    A    
C114  F24   S    
C87   F28   S    
C42   C50   S    
C46   C55   S    
C90   F31   S    
C55   C64   T    
C105  C121  A    
C36   C45   T    
Cu3   O39   S    
Cu5   O45   S    
Cu2   O32   S    
C19   C28   T    
C102  C117  A    
C38   C47   S    
Cu3   O36   S    
C84   F23   S    
C112  C123  A    
Cu12  O30   S    
C7    C81   S    
C93   C111  A    
C45   C54   S    
C10   C123  S    
Cu5   O12   S    
C14   C120  S    
C116  C125  A    
C6    C80   S    
C76   C128  S    
C71   O38   A    
C31   C35   S    
C68   O35   A    
C5    C79   S    
C50   C59   T    
C74   O48   A    
Cu3   Cu4   S    
C3    C77   S    
Cu4   O43   S    
C32   C36   S    
C9    N5    A    
Cu11  O8    S    
C25   C107  S    
C80   O22   A    
C83   F12   S    
Cu9   O19   S    
C75   O10   A    
C61   C69   S    
C79   O21   A    
Cu7   O34   S    
Cu9   O6    S    
Cu6   O23   S    
C83   C101  A    
C83   C127  A    
C106  C120  A    
C3    C88   A    
C82   C100  A    
Cu3   O38   S    
Cu2   O33   S    
C103  C119  A    
C18   C27   T    
C26   C118  S    
Cu7   O47   S    
C57   C65   S    
Cu9   O2    S    
C9    N7    A    
C76   O14   A    
C14   N12   A    
C88   F29   S    
C76   O16   A    
C85   O8    A    
N4    N14   A    
C80   O25   A    
C51   C60   T    
C100  F9    S    
Cu10  O5    S    
C54   C62   T    
C21   C30   T    
C106  F16   S    
Cu1   O46   S    
C69   O36   A    
C94   F4    S    
C23   C32   T    
C86   F27   S    
C20   C63   S    
Cu4   O40   S    
C97   C114  A    
C70   O41   A    
C90   C108  A    
C92   C110  A    
C16   C117  S    
Cu8   O18   S    
C88   C105  A    
C1    O44   A    
C43   C51   S    
C98   C115  A    
C113  C124  A    
N1    N6    A    
C95   C113  A    
N5    N9    A    
C12   N13   A    
C15   N9    A    
C67   O31   A    
C11   N3    A    
C15   C119  S    
C78   O20   A    
C75   C127  S    
C79   O19   A    
C66   O28   A    
Cu2   O31   S    
C15   N11   A    
Cu8   O25   S    
C5    C92   A    
Cu8   O48   S    
N3    N15   A    
Cu1   Cu6   S    
C11   C122  S    
C8    N6    A    
C8    C125  S    
C77   O15   A    
C81   O24   A    
C1    C17   S    
C6    C95   A    
Cu5   Cu7   S    
C47   C56   T    
C100  C117  A    
C104  F14   S    
C37   C46   T    
C34   C43   T    
C2    C39   T    
Cu12  O29   S    
C107  O6    A    
Cu1   O9    S    
C110  F19   S    
C73   C126  S    
C25   C33   T    
C39   C48   S    
C104  C120  A    
C89   C128  A    
C1    O1    A    
