data_mof_unit_22752.cif
_audit_creation_date              2012-12-11T15:41:27-0500
_audit_creation_method            fapswitch 2.2
_symmetry_space_group_name_H-M    P1
_symmetry_Int_Tables_number       1
_space_group_crystal_system       triclinic
_cell_length_a                    19.096468
_cell_length_b                    10.971185
_cell_length_c                    18.806324
_cell_angle_alpha                 90.035013
_cell_angle_beta                  90.203935
_cell_angle_gamma                 90.022483
_cell_volume                      3940.10355149

loop_
_atom_site_label
_atom_site_type_symbol
_atom_type_description
_atom_site_fract_x
_atom_site_fract_y
_atom_site_fract_z
_atom_type_partial_charge
C1    C     C_R   0.724442 0.962148 0.856165 0.546988
C2    C     C_R   0.275679 0.962291 0.143751 0.544616
C3    C     C_R   0.227175 0.456303 0.853403 0.544575
C4    C     C_R   0.775913 0.462977 0.143573 0.547974
C5    C     C_R   0.703161 0.479490 0.034736 0.028189
C6    C     C_R   0.301439 0.472000 0.961491 0.013214
C7    C     C_R   0.202475 0.976397 0.035133 0.009598
C8    C     C_R   0.795800 0.984269 0.965823 0.030983
C9    C     C_R   0.695194 0.466401 0.961907 0.018030
C10   C     C_R   0.306928 0.453971 0.034106 0.016668
C11   C     C_R   0.194588 0.964364 0.962232 0.009603
C12   C     C_R   0.803377 0.971341 0.038749 0.017855
C13   C     C_R   0.817427 0.415150 0.951264 -0.152962
C14   C     C_R   0.218690 0.297384 0.026107 -0.147230
C15   C     C_R   0.317176 0.916487 0.951227 -0.158565
C16   C     C_R   0.683047 0.907038 0.047503 -0.152995
C17   C     C_R   0.824419 0.422508 0.024738 -0.148566
C18   C     C_R   0.214851 0.312573 0.952871 -0.159188
C19   C     C_R   0.323959 0.921913 0.024796 -0.148507
C20   C     C_R   0.677057 0.912147 0.974018 -0.150136
C21   C     C_3   0.631167 0.433976 0.049453 -0.287360
C22   C     C_3   0.313315 0.606147 0.969220 -0.246596
C23   C     C_3   0.131028 0.928633 0.049741 -0.292995
C24   C     C_3   0.869545 0.947153 0.952012 -0.286119
C25   C     C_3   0.622484 0.417712 0.969831 -0.258960
C26   C     C_3   0.320122 0.585622 0.048617 -0.281263
C27   C     C_3   0.122401 0.913339 0.970058 -0.260079
C28   C     C_3   0.877779 0.930817 0.031684 -0.260721
C29   C     C_R   0.750863 0.425128 0.919876 0.015795
C30   C     C_R   0.260660 0.375485 0.068135 0.022100
C31   C     C_R   0.250586 0.925425 0.919880 0.011914
C32   C     C_R   0.748636 0.924299 0.079981 0.015450
C33   C     C_R   0.508991 0.168244 0.420618 0.018499
C34   C     C_R   0.516158 0.171415 0.568484 0.023567
C35   C     C_R   0.005909 0.664342 0.421871 0.016709
C36   C     C_R   0.014599 0.671205 0.569440 0.024691
C37   C     C_R   0.528335 0.275101 0.456424 0.023437
C38   C     C_R   0.531286 0.275639 0.529010 0.048480
C39   C     C_R   0.032669 0.767605 0.455837 0.022398
C40   C     C_R   0.035973 0.770301 0.528374 0.052202
C41   C     C_R   0.508519 0.060246 0.532758 -0.172452
C42   C     C_R   0.507740 0.058135 0.458579 -0.170285
C43   C     C_R   0.998521 0.561164 0.535674 -0.172250
C44   C     C_R   0.995475 0.557146 0.461724 -0.165294
C45   C     C_R   0.529461 0.177565 0.850502 0.545508
C46   C     C_R   0.469980 0.177794 0.149145 0.551360
C47   C     C_R   0.030456 0.677367 0.851107 0.544834
C48   C     C_R   0.970367 0.677756 0.149464 0.545534
C49   C     C_3   0.498489 0.402055 0.455510 -0.269570
C50   C     C_3   0.500824 0.400138 0.535613 -0.272913
C51   C     C_3   0.011757 0.899637 0.452870 -0.269133
C52   C     C_3   0.013615 0.900225 0.533032 -0.266495
C53   C     C_R   0.761932 0.436029 0.429080 0.018982
C54   C     C_R   0.248390 0.408541 0.578354 0.015972
C55   C     C_R   0.250999 0.911170 0.422099 0.014924
C56   C     C_R   0.751474 0.899061 0.581326 0.015822
C57   C     C_R   0.819412 0.398525 0.469392 0.040641
C58   C     C_R   0.204197 0.328024 0.541678 0.020154
C59   C     C_R   0.291686 0.823855 0.457389 0.020261
C60   C     C_R   0.707852 0.817360 0.544645 0.028153
C61   C     C_R   0.815982 0.390318 0.542193 0.019823
C62   C     C_R   0.206846 0.320177 0.468836 0.039758
C63   C     C_R   0.289480 0.814693 0.530336 0.045014
C64   C     C_R   0.711138 0.808493 0.471765 0.045418
C65   C     C_R   0.699426 0.474226 0.539133 -0.149271
C66   C     C_R   0.304211 0.458950 0.466020 -0.161845
C67   C     C_R   0.199670 0.967944 0.535837 -0.156433
C68   C     C_R   0.810698 0.941685 0.469792 -0.165555
C69   C     C_R   0.703141 0.481682 0.464838 -0.151086
C70   C     C_R   0.302284 0.466266 0.540353 -0.161165
C71   C     C_R   0.201403 0.977426 0.461666 -0.154671
C72   C     C_R   0.808459 0.949062 0.544306 -0.169126
C73   C     C_3   0.861193 0.284484 0.462123 -0.275397
C74   C     C_3   0.125896 0.316964 0.541162 -0.268469
C75   C     C_3   0.369417 0.805271 0.457064 -0.269494
C76   C     C_3   0.629828 0.803130 0.543439 -0.269606
C77   C     C_3   0.858454 0.275561 0.542087 -0.270624
C78   C     C_3   0.129260 0.311219 0.461044 -0.275607
C79   C     C_3   0.366744 0.798565 0.537017 -0.271598
C80   C     C_3   0.633885 0.796463 0.463319 -0.272691
C81   C     C_R   0.753775 0.418267 0.577834 0.015866
C82   C     C_R   0.253657 0.390234 0.429374 0.021372
C83   C     C_R   0.246467 0.890122 0.570903 0.020943
C84   C     C_R   0.758045 0.878459 0.432453 0.019524
C85   C     C_R   0.738257 0.364843 0.852277 0.545780
C86   C     C_R   0.264127 0.354810 0.144186 0.548576
C87   C     C_R   0.238281 0.865118 0.852187 0.536940
C88   C     C_R   0.761712 0.864745 0.147692 0.547617
C89   C     C_R   0.728418 0.952916 0.648371 0.547569
C90   C     C_R   0.272254 0.955506 0.352568 0.550382
C91   C     C_R   0.227734 0.454917 0.647613 0.548868
C92   C     C_R   0.773613 0.458846 0.354061 0.546654
C93   C     C_R   0.531882 0.176607 0.643253 0.545602
C94   C     C_R   0.471728 0.176445 0.354040 0.550954
C95   C     C_R   0.031287 0.676599 0.643744 0.546391
C96   C     C_R   0.971016 0.675938 0.354441 0.553715
C97   C     C_R   0.739716 0.362903 0.646652 0.547316
C98   C     C_R   0.261195 0.359701 0.354714 0.546927
C99   C     C_R   0.238893 0.859807 0.645440 0.545469
C100  C     C_R   0.762466 0.855549 0.356308 0.545466
C101  C     C_2   0.496942 0.168859 0.920679 -0.118188
C102  C     C_2   0.500830 0.170544 0.078222 -0.113005
C103  C     C_2   0.000089 0.666846 0.922118 -0.127887
C104  C     C_2   0.003102 0.670533 0.079511 -0.126958
C105  C     C_2   0.495149 0.069193 0.038657 -0.164313
C106  C     C_2   0.506517 0.069310 0.961226 -0.166467
C107  C     C_2   0.000459 0.568565 0.040293 -0.165253
C108  C     C_2   0.014825 0.569805 0.963456 -0.167837
C109  C     C_R   0.765730 0.445609 0.067737 0.022175
C110  C     C_R   0.251515 0.408255 0.920883 0.015378
C111  C     C_R   0.265280 0.943908 0.067973 0.019245
C112  C     C_R   0.735044 0.943263 0.931851 0.021701
Cr1   Cr    Cr6+3 0.769260 0.163750 0.750730 1.010781
Cr2   Cr    Cr6+3 0.230740 0.163750 0.249270 1.011686
Cr3   Cr    Cr6+3 0.269260 0.663750 0.750730 1.007688
Cr4   Cr    Cr6+3 0.730740 0.663750 0.249270 1.013931
Cr5   Cr    Cr6+3 0.612640 0.009910 0.748780 1.007316
Cr6   Cr    Cr6+3 0.387360 0.009910 0.251220 1.004178
Cr7   Cr    Cr6+3 0.112640 0.509910 0.748780 1.006836
Cr8   Cr    Cr6+3 0.887360 0.509910 0.251220 1.010653
Cr9   Cr    Cr6+3 0.614190 0.322400 0.747710 1.012288
Cr10  Cr    Cr6+3 0.385810 0.322400 0.252290 1.012216
Cr11  Cr    Cr6+3 0.114190 0.822400 0.747710 1.009520
Cr12  Cr    Cr6+3 0.885810 0.822400 0.252290 1.007752
H1    H     H_    0.482154 0.983062 0.063515 0.135403
H2    H     H_    0.524339 0.985021 0.937391 0.139475
H3    H     H_    0.987279 0.481996 0.064639 0.142850
H4    H     H_    0.039251 0.489085 0.941095 0.158047
H5    H     H_    0.958442 0.916128 0.432236 0.165013
H6    H     H_    0.054238 0.960699 0.555678 0.140263
H7    H     H_    0.444176 0.407166 0.435441 0.169828
H8    H     H_    0.537564 0.467629 0.558614 0.132761
H9    H     H_    0.535017 0.469394 0.431776 0.120693
H10   H     H_    0.448195 0.398921 0.560593 0.136710
H11   H     H_    0.052791 0.957602 0.428477 0.126808
H12   H     H_    0.961146 0.910241 0.557600 0.134963
H13   H     H_    0.914754 0.300115 0.441517 0.132619
H14   H     H_    0.099397 0.400141 0.560394 0.173278
H15   H     H_    0.397991 0.886408 0.438424 0.166162
H16   H     H_    0.602449 0.885390 0.562044 0.170031
H17   H     H_    0.831565 0.211028 0.434547 0.136772
H18   H     H_    0.107589 0.230628 0.565770 0.121799
H19   H     H_    0.384873 0.718103 0.431496 0.126099
H20   H     H_    0.612392 0.716580 0.568395 0.123912
H21   H     H_    0.827584 0.196431 0.560098 0.167679
H22   H     H_    0.111328 0.222795 0.439040 0.128624
H23   H     H_    0.382434 0.708746 0.558376 0.133470
H24   H     H_    0.617295 0.707277 0.441480 0.132133
H25   H     H_    0.910331 0.287373 0.568184 0.127047
H26   H     H_    0.106558 0.392528 0.434379 0.142113
H27   H     H_    0.392037 0.877351 0.563881 0.133761
H28   H     H_    0.610744 0.876558 0.435980 0.138780
H29   H     H_    0.518167 0.255209 0.054372 0.105697
H30   H     H_    0.475051 0.251595 0.943200 0.111020
H31   H     H_    0.019871 0.755541 0.055682 0.105386
H32   H     H_    0.974792 0.746547 0.944314 0.100822
H33   H     H_    0.875370 0.405677 0.047842 0.136388
H34   H     H_    0.177933 0.257752 0.922844 0.137379
H35   H     H_    0.374706 0.903974 0.047859 0.134517
H36   H     H_    0.627467 0.887421 0.950315 0.132937
H37   H     H_    0.096132 0.999576 0.072529 0.138625
H38   H     H_    0.901348 0.023460 0.930473 0.141879
H39   H     H_    0.596927 0.506277 0.071814 0.142734
H40   H     H_    0.266208 0.660443 0.954930 0.158833
H41   H     H_    0.631438 0.346729 0.079514 0.133027
H42   H     H_    0.362951 0.636210 0.943996 0.142072
H43   H     H_    0.132391 0.841022 0.079399 0.132899
H44   H     H_    0.872729 0.860663 0.921405 0.131288
H45   H     H_    0.618202 0.320451 0.953883 0.156118
H46   H     H_    0.373959 0.602151 0.069121 0.140515
H47   H     H_    0.119201 0.816215 0.953645 0.154794
H48   H     H_    0.885338 0.834029 0.047233 0.156474
H49   H     H_    0.582483 0.479365 0.946295 0.143327
H50   H     H_    0.277585 0.629198 0.079892 0.137029
H51   H     H_    0.081696 0.974032 0.946906 0.141273
H52   H     H_    0.915198 0.996427 0.056035 0.140448
H53   H     H_    0.500906 0.976718 0.562062 0.112729
H54   H     H_    0.499275 0.972772 0.431436 0.117442
H55   H     H_    0.986321 0.480320 0.566209 0.119170
H56   H     H_    0.977901 0.474140 0.436552 0.134771
O1    O     O_R   0.784290 0.290360 0.830540 -0.521743
O2    O     O_R   0.215710 0.290360 0.169460 -0.528394
O3    O     O_R   0.284290 0.790360 0.830540 -0.531755
O4    O     O_R   0.715710 0.790360 0.169460 -0.522842
O5    O     O_R   0.554690 0.080440 0.673480 -0.509389
O6    O     O_R   0.445310 0.080440 0.326520 -0.510553
O7    O     O_R   0.054690 0.580440 0.673480 -0.510016
O8    O     O_R   0.945310 0.580440 0.326520 -0.509478
O9    O     O_R   0.543980 0.282110 0.666770 -0.518559
O10   O     O_R   0.456020 0.282110 0.333230 -0.527065
O11   O     O_R   0.043980 0.782110 0.666770 -0.519007
O12   O     O_R   0.956020 0.782110 0.333230 -0.526144
O13   O     O_R   0.679070 0.374030 0.674430 -0.505765
O14   O     O_R   0.320930 0.374030 0.325570 -0.508231
O15   O     O_R   0.179070 0.874030 0.674430 -0.504791
O16   O     O_R   0.820930 0.874030 0.325570 -0.508092
O17   O     O_3   0.665360 0.165350 0.749070 -0.247749
O18   O     O_3   0.334640 0.165350 0.250930 -0.249259
O19   O     O_3   0.165360 0.665350 0.749070 -0.247338
O20   O     O_3   0.834640 0.665350 0.250930 -0.250334
O21   O     O_R   0.762610 0.041070 0.825230 -0.495677
O22   O     O_R   0.237390 0.041070 0.174770 -0.500648
O23   O     O_R   0.262610 0.541070 0.825230 -0.501839
O24   O     O_R   0.737390 0.541070 0.174770 -0.495617
O25   O     O_R   0.667390 0.924160 0.829970 -0.527961
O26   O     O_R   0.332610 0.924160 0.170030 -0.529250
O27   O     O_R   0.167390 0.424160 0.829970 -0.526439
O28   O     O_R   0.832610 0.424160 0.170030 -0.526711
O29   O     O_R   0.553980 0.081420 0.821780 -0.498605
O30   O     O_R   0.446020 0.081420 0.178220 -0.500989
O31   O     O_R   0.053980 0.581420 0.821780 -0.495671
O32   O     O_R   0.946020 0.581420 0.178220 -0.497916
O33   O     O_R   0.543210 0.283170 0.826740 -0.521870
O34   O     O_R   0.456790 0.283170 0.173260 -0.517080
O35   O     O_R   0.043210 0.783170 0.826740 -0.523484
O36   O     O_R   0.956790 0.783170 0.173260 -0.525280
O37   O     O_R   0.678350 0.375000 0.822720 -0.501165
O38   O     O_R   0.321650 0.375000 0.177280 -0.495201
O39   O     O_R   0.178350 0.875000 0.822720 -0.499630
O40   O     O_R   0.821650 0.875000 0.177280 -0.499787
O41   O     O_R   0.785060 0.289300 0.670580 -0.524637
O42   O     O_R   0.214940 0.289300 0.329420 -0.517169
O43   O     O_R   0.285060 0.789300 0.670580 -0.518038
O44   O     O_R   0.714940 0.789300 0.329420 -0.519285
O45   O     O_R   0.763330 0.040090 0.676940 -0.508171
O46   O     O_R   0.236670 0.040090 0.323060 -0.506405
O47   O     O_R   0.263330 0.540090 0.676940 -0.504967
O48   O     O_R   0.736670 0.540090 0.323060 -0.506094
O49   O     O_R   0.668160 0.923110 0.670000 -0.522701
O50   O     O_R   0.331840 0.923110 0.330000 -0.522723
O51   O     O_R   0.168160 0.423110 0.670000 -0.524304
O52   O     O_R   0.831840 0.423110 0.330000 -0.517254
H57   H     H_    0.652087 0.502432 0.565476 0.122377
H58   H     H_    0.343312 0.509866 0.437201 0.114228
H59   H     H_    0.164432 0.024946 0.565943 0.115389
H60   H     H_    0.851206 0.989810 0.441448 0.115422
H61   H     H_    0.659460 0.518140 0.435221 0.118642
H62   H     H_    0.339137 0.524450 0.567514 0.123733
H63   H     H_    0.168708 0.044536 0.436121 0.128274
H64   H     H_    0.847426 0.002369 0.572073 0.114635
H65   H     H_    0.862653 0.388497 0.920294 0.138991
H66   H     H_    0.186204 0.227778 0.049926 0.150278
H67   H     H_    0.362525 0.890884 0.920145 0.135114
H68   H     H_    0.638275 0.875561 0.077609 0.137509

loop_
_geom_bond_atom_site_label_1
_geom_bond_atom_site_label_2
_ccdc_geom_bond_type
Cr8   O32   S    
C39   C51   S    
C4    C109  S    
C48   O36   A    
C67   C83   A    
C21   H39   S    
C47   O31   A    
C73   H13   S    
C3    O23   A    
C41   C42   A    
C14   C18   A    
C35   C39   A    
C2    O22   A    
C34   C93   S    
C53   C69   A    
C33   C94   S    
Cr8   O52   S    
C75   H19   S    
Cr12  O40   S    
C51   H5    S    
C9    C25   S    
C73   H17   S    
C35   C96   S    
C95   O11   A    
C15   C19   A    
C74   H14   S    
C67   H59   S    
Cr11  O35   S    
C81   C97   S    
C66   H58   S    
Cr7   O19   S    
C33   C42   A    
C13   C29   A    
Cr6   O26   S    
C14   C30   A    
C55   C90   S    
Cr5   O25   S    
C8    C112  A    
C1    C112  S    
C87   O3    A    
Cr4   O20   S    
C65   C69   A    
C4    O24   A    
Cr2   O46   S    
C92   O52   A    
C3    C110  S    
C97   O13   A    
C6    C22   S    
C99   O15   A    
C24   H38   S    
C92   O48   A    
C21   H41   S    
C98   O14   A    
C102  C105  D    
C86   O38   A    
C57   C73   S    
C85   O37   A    
Cr10  O18   S    
C64   C84   A    
C21   C25   S    
C69   H61   S    
C68   H60   S    
Cr8   O20   S    
C14   H66   S    
C51   H11   S    
C28   H48   S    
Cr1   O1    S    
C48   O32   A    
C7    C111  A    
C56   C72   A    
C47   O35   A    
C89   O45   A    
C45   O33   A    
C107  C108  S    
Cr2   O22   S    
C4    O28   A    
C103  C108  D    
C2    O26   A    
C40   C52   S    
C87   O39   A    
C30   C86   S    
C17   H33   S    
C98   O42   A    
C29   C85   S    
C8    C12   A    
C88   O40   A    
C19   C111  A    
C10   C26   S    
C76   H16   S    
C74   H18   S    
C1    O21   A    
C83   C99   S    
C12   C32   A    
C6    C110  A    
C48   C104  S    
C44   H56   S    
C34   C41   A    
Cr11  O39   S    
Cr10  O14   S    
C64   C80   S    
C91   O51   A    
Cr8   O8    S    
Cr9   O13   S    
Cr4   O24   S    
C90   O46   A    
C60   C64   A    
Cr10  O10   S    
C15   H67   S    
C23   C27   S    
C100  O16   A    
Cr6   O6    S    
C27   H51   S    
C99   O43   A    
C2    C111  S    
C61   C77   S    
C31   C87   S    
C82   C98   S    
C95   O7    A    
C51   C52   S    
C68   C84   A    
C76   C80   S    
C36   C40   A    
C47   C103  S    
C24   H44   S    
C13   H65   S    
C50   H10   S    
C77   H25   S    
C39   C40   A    
C71   H63   S    
C53   C57   A    
C45   C101  S    
C63   C79   S    
C46   O34   A    
C46   O30   A    
C106  H2    S    
Cr3   O19   S    
C60   C76   S    
C45   O29   A    
Cr10  O34   S    
C16   H68   S    
Cr3   O23   S    
C68   C72   A    
Cr8   O28   S    
Cr4   O44   S    
C7    C11   A    
C43   C44   A    
C94   O10   A    
Cr3   O47   S    
C37   C38   A    
C18   H34   S    
C25   H49   S    
C66   C82   A    
C49   H7    S    
C10   C30   A    
Cr1   O45   S    
C54   C70   A    
C11   C27   S    
C16   C20   A    
C43   H55   S    
Cr12  O16   S    
C53   C92   S    
C72   H64   S    
C5    C21   S    
C78   H26   S    
Cr2   O42   S    
Cr11  O11   S    
C57   C61   A    
C35   C44   A    
C102  H29   S    
Cr9   O17   S    
C37   C49   S    
C22   C26   S    
C50   H8    S    
C58   C62   A    
C23   H43   S    
C76   H20   S    
C56   C89   S    
Cr4   O48   S    
Cr5   O5    S    
Cr1   O21   S    
C74   C78   S    
C52   H12   S    
C59   C63   A    
C32   C88   S    
Cr7   O27   S    
C78   H22   S    
Cr2   O2    S    
Cr6   O18   S    
C59   C75   S    
Cr12  O12   S    
Cr5   O17   S    
C55   C59   A    
C58   C74   S    
C24   C28   S    
C79   H27   S    
Cr12  O36   S    
C65   H57   S    
C101  C106  D    
C80   H28   S    
C26   H50   S    
C49   H9    S    
C85   O1    A    
C93   O9    A    
Cr10  O38   S    
C91   O47   A    
C34   C38   A    
Cr9   O37   S    
Cr2   O18   S    
C62   C78   S    
C28   H52   S    
C94   O6    A    
C5    C9    A    
C17   C109  A    
Cr11  O19   S    
C84   C100  S    
C79   H23   S    
C15   C31   A    
Cr1   O41   S    
C38   C50   S    
Cr7   O51   S    
C16   C32   A    
C70   H62   S    
C105  C106  S    
Cr12  O20   S    
Cr7   O31   S    
C105  H1    S    
C107  H3    S    
Cr6   O30   S    
C52   H6    S    
C96   O12   A    
Cr5   O29   S    
C22   H40   S    
C25   H45   S    
C19   H35   S    
C54   C91   S    
C89   O49   A    
C75   H15   S    
Cr9   O9    S    
C9    C29   A    
Cr11  O15   S    
C36   C95   S    
C66   C70   A    
C77   H21   S    
C5    C109  A    
C101  H30   S    
C42   H54   S    
C41   H53   S    
C7    C23   S    
Cr4   O4    S    
Cr5   O49   S    
C3    O27   A    
C8    C24   S    
C97   O41   A    
Cr1   O17   S    
C67   C71   A    
C1    O25   A    
C23   H37   S    
C104  H31   S    
C62   C82   A    
C33   C37   A    
C88   O4    A    
C6    C10   A    
Cr3   O43   S    
C11   C31   A    
C13   C17   A    
C22   H42   S    
C56   C60   A    
C103  H32   S    
C80   H24   S    
C54   C58   A    
C26   H46   S    
C73   C77   S    
C18   C110  A    
C49   C50   S    
C20   H36   S    
C20   C112  A    
C63   C83   A    
C86   O2    A    
C100  O44   A    
C65   C81   A    
C90   O50   A    
C36   C43   A    
C61   C81   A    
C108  H4    S    
Cr7   O7    S    
C12   C28   S    
C27   H47   S    
C75   C79   S    
C96   O8    A    
C104  C107  D    
C55   C71   A    
Cr3   O3    S    
Cr6   O50   S    
Cr9   O33   S    
C46   C102  S    
C93   O5    A    
