data_mof_unit_21332.cif
_audit_creation_date              2012-12-10T20:48:48-0500
_audit_creation_method            fapswitch 2.2
_symmetry_space_group_name_H-M    P1
_symmetry_Int_Tables_number       1
_space_group_crystal_system       triclinic
_cell_length_a                    15.766221
_cell_length_b                    9.167756
_cell_length_c                    8.11007
_cell_angle_alpha                 90.039981
_cell_angle_beta                  90.126429
_cell_angle_gamma                 91.860128
_cell_volume                      1171.61563698

loop_
_atom_site_label
_atom_site_type_symbol
_atom_type_description
_atom_site_fract_x
_atom_site_fract_y
_atom_site_fract_z
_atom_type_partial_charge
C1    C     C_R   0.499855 0.217568 0.499962 0.921275
C2    C     C_3   0.041794 0.422753 0.357122 -0.030301
C3    C     C_3   0.949583 0.487775 0.668565 -0.068443
C4    C     C_3   0.944028 0.424182 0.365047 -0.002638
C5    C     C_1   0.750448 0.524852 0.500189 -0.047366
C6    C     C_1   0.249247 0.492764 0.499307 -0.071760
C7    C     C_3   0.083430 0.518265 0.498049 -0.186197
C8    C     C_3   0.917365 0.538530 0.495064 -0.185580
C9    C     C_3   0.958569 0.696328 0.446172 0.394628
C10   C     C_3   0.063235 0.687463 0.470572 0.393288
C11   C     C_1   0.825573 0.537525 0.498571 0.195909
C12   C     C_1   0.174240 0.499137 0.498788 0.148084
C13   C     C_R   0.337881 0.494495 0.499810 0.906908
C14   C     C_R   0.662082 0.505844 0.500159 0.898670
C15   C     C_1   0.499983 0.935287 0.500045 -0.120343
C16   C     C_1   0.499909 0.064673 0.499947 -0.131558
C17   C     C_R   0.500084 0.782400 0.500035 0.949202
C18   C     C_3   0.046314 0.466166 0.667166 -0.005463
H1    H     H_    0.057912 0.471959 0.238433 0.199162
H2    H     H_    0.074100 0.533923 0.767619 0.214833
H3    H     H_    0.920863 0.456856 0.242771 0.160984
H4    H     H_    0.940447 0.576953 0.754534 0.196080
H5    H     H_    0.188226 0.988275 0.624558 0.392141
H6    H     H_    0.201642 0.599150 0.162409 0.359066
H7    H     H_    0.951287 0.042400 0.672219 0.419102
H8    H     H_    0.942049 0.601173 0.022193 0.363060
I1    I     I_    0.872346 0.324213 0.800265 -0.200050
I2    I     I_    0.872129 0.219709 0.358590 -0.038743
I3    I     I_    0.092117 0.264390 0.765313 -0.126359
I4    I     I_    0.098153 0.217814 0.307028 -0.029360
N1    N     N_1   0.500000 0.500030 0.073640 -0.011185
N2    N     N_1   0.500000 0.500030 0.926360 -0.010812
O1    O     O_R   0.500000 0.285340 0.636850 -0.614849
O2    O     O_2   0.187928 0.732934 0.709746 -0.309328
O3    O     O_3   0.128868 0.966741 0.589704 -0.420570
O4    O     O_2   0.095122 0.895231 0.225849 -0.091462
O5    O     O_2   0.217542 0.802654 0.362404 -0.300667
O6    O     O_3   0.146922 0.645226 0.139336 -0.497407
O7    O     O_2   0.822242 0.873332 0.487663 -0.223710
O8    O     O_2   0.885581 0.798279 0.742056 -0.278656
O9    O     O_3   0.965420 0.993470 0.567581 -0.409424
O10   O     O_2   0.834554 0.698003 0.205187 -0.307474
O11   O     O_2   0.933485 0.904170 0.204580 -0.095200
O12   O     O_R   0.500000 0.285340 0.363150 -0.612911
O13   O     O_3   0.983362 0.661396 0.086250 -0.493808
O14   O     O_R   0.377140 0.500000 0.636930 -0.600810
O15   O     O_R   0.377140 0.500000 0.363070 -0.621882
O16   O     O_R   0.622860 0.500000 0.636930 -0.606008
O17   O     O_R   0.622860 0.500000 0.363070 -0.600929
O18   O     O_R   0.500000 0.714650 0.636900 -0.608893
O19   O     O_R   0.500000 0.714650 0.363100 -0.605328
O20   O     O_2   0.047756 0.798064 0.794478 -0.179969
S1    S     S_3+6 0.106219 0.794429 0.649214 0.115507
S2    S     S_3+6 0.130653 0.760244 0.297401 0.138879
S3    S     S_3+6 0.905663 0.839341 0.566851 0.131597
S4    S     S_3+6 0.926261 0.742302 0.232482 0.131681
Zn1   Zn    Zn3+2 0.500000 0.499990 0.682780 1.058925
Zn2   Zn    Zn3+2 0.500000 0.499990 0.317220 1.056467

loop_
_geom_bond_atom_site_label_1
_geom_bond_atom_site_label_2
_ccdc_geom_bond_type
C17   O18   A    
C7    C10   S    
C2    C4    S    
C9    S3    S    
O3    S1    S    
C9    C10   S    
C1    O12   A    
H5    O3    S    
N1    N2    T    
O6    S2    S    
C2    I4    S    
C4    C8    S    
C7    C18   S    
C17   O19   A    
C3    I1    S    
C1    O1    A    
O16   Zn1   S    
C1    C16   S    
H7    O9    S    
O15   Zn2   S    
C4    H3    S    
C5    C14   S    
C13   O14   A    
N2    Zn1   S    
O2    S1    D    
C8    C11   S    
O5    S2    D    
N1    Zn2   S    
C4    I2    S    
C5    C11   T    
C18   H2    S    
O14   Zn1   S    
C6    C12   T    
C7    C12   S    
C10   S2    S    
C14   O17   A    
O4    S2    D    
C15   C16   T    
C18   I3    S    
H6    O6    S    
O11   S4    D    
O20   S1    D    
C3    C18   S    
C15   C17   S    
C3    C8    S    
O19   Zn2   S    
C9    S4    S    
C10   S1    S    
C14   O16   A    
O9    S3    S    
C3    H4    S    
O1    Zn1   S    
H8    O13   S    
O10   S4    D    
C2    H1    S    
O18   Zn1   S    
C13   O15   A    
O7    S3    D    
O17   Zn2   S    
C2    C7    S    
O13   S4    S    
O12   Zn2   S    
C8    C9    S    
C6    C13   S    
O8    S3    D    
