data_mof_unit_56456.cif
_audit_creation_date              2012-12-10T17:27:51-0500
_audit_creation_method            fapswitch 2.2
_symmetry_space_group_name_H-M    P1
_symmetry_Int_Tables_number       1
_space_group_crystal_system       triclinic
_cell_length_a                    10.650179
_cell_length_b                    11.999585
_cell_length_c                    12.890374
_cell_angle_alpha                 94.325287
_cell_angle_beta                  90.447286
_cell_angle_gamma                 84.756994
_cell_volume                      1635.79526658

loop_
_atom_site_label
_atom_site_type_symbol
_atom_type_description
_atom_site_fract_x
_atom_site_fract_y
_atom_site_fract_z
_atom_type_partial_charge
C1    C     C_R   0.495494 0.523387 0.700712 0.918128
C2    C     C_R   0.548672 0.626763 0.867948 -0.198839
C3    C     C_R   0.440556 0.455649 0.865560 0.613606
C4    C     C_R   0.739472 0.495934 0.485037 0.932594
C5    C     C_R   0.459365 0.450374 0.972616 -0.104681
C6    C     C_R   0.527589 0.533595 0.025137 -0.046407
C7    C     C_R   0.546791 0.533757 0.130711 0.659404
C8    C     C_R   0.418695 0.376004 0.138773 -0.213308
C9    C     C_R   0.409413 0.367479 0.029387 -0.100576
C10   C     C_R   0.389560 0.957148 0.399087 0.564592
C11   C     C_R   0.401545 0.840554 0.405804 -0.156894
C12   C     C_R   0.950087 0.390423 0.491919 -0.043541
C13   C     C_R   0.550116 0.857177 0.543201 0.747386
C14   C     C_R   0.541973 0.975509 0.537875 -0.268072
C15   C     C_R   0.459094 0.025281 0.465288 -0.211581
C16   C     C_R   0.497655 0.476756 0.299580 0.992371
C17   C     C_R   0.450827 0.142331 0.457857 0.081719
C18   C     C_R   0.603656 0.161834 0.590454 -0.018986
C19   C     C_R   0.614565 0.045729 0.601470 0.646716
C20   C     C_R   0.259589 0.502385 0.510528 0.916349
C21   C     C_R   0.912441 0.279747 0.477076 0.612111
C22   C     C_R   0.977311 0.191282 0.527544 -0.149652
C23   C     C_R   0.874443 0.487977 0.465611 -0.134578
C24   C     C_R   0.082211 0.213763 0.588994 -0.245852
C25   C     C_R   0.128746 0.318512 0.591413 -0.149050
C26   C     C_R   0.068581 0.404678 0.535015 0.022965
C27   C     C_2   0.866803 0.680089 0.392003 1.000194
C28   C     C_2   0.345447 0.273924 0.976616 1.107986
C29   C     C_2   0.578573 0.729710 0.821587 1.078291
C30   C     C_2   0.343387 0.773025 0.321822 1.121895
C31   C     C_2   0.936078 0.076003 0.518671 1.028328
C32   C     C_2   0.349898 0.302005 0.201231 1.004654
C33   C     C_R   0.930130 0.587470 0.449290 -0.076094
C34   C     C_R   0.053114 0.595622 0.480382 -0.194543
C35   C     C_R   0.124268 0.503803 0.517593 -0.089760
C36   C     C_R   0.488480 0.459787 0.187944 -0.267195
C37   C     C_R   0.491218 0.539147 0.812951 -0.230906
C38   C     C_R   0.570458 0.620717 0.973133 -0.122084
F1    F     F_    0.368791 0.383369 0.811131 -0.672420
F2    F     F_    0.313097 0.003178 0.325531 -0.609556
F3    F     F_    0.695813 0.003354 0.673266 -0.593025
F4    F     F_    0.635702 0.805993 0.606437 -0.588493
F5    F     F_    0.820563 0.256510 0.407013 -0.606351
F6    F     F_    0.618945 0.610022 0.178998 -0.599653
H1    H     H_    0.387489 0.181750 0.402801 0.193495
H2    H     H_    0.201661 0.681212 0.274701 0.346349
H3    H     H_    0.953000 0.921041 0.571643 0.404176
H4    H     H_    0.218398 0.291417 0.311182 0.356018
H5    H     H_    0.660036 0.215575 0.638891 0.155588
H6    H     H_    0.132098 0.149026 0.631673 0.224719
H7    H     H_    0.211672 0.331657 0.638181 0.224808
H8    H     H_    0.095441 0.672348 0.470251 0.249662
H9    H     H_    0.616479 0.687486 0.015173 0.235016
H10   H     H_    0.856000 0.843135 0.362344 0.387465
H11   H     H_    0.360856 0.134166 0.878607 0.358645
H12   H     H_    0.509114 0.876209 0.767065 0.375439
N1    N     N_R   0.523130 0.207800 0.519340 -0.141527
N2    N     N_R   0.476870 0.792180 0.480660 -0.218407
O1    O     O_R   0.506170 0.421690 0.658830 -0.585372
O2    O     O_R   0.904307 0.788656 0.407834 -0.778728
O3    O     O_2   0.233288 0.266952 0.991700 -0.572117
O4    O     O_R   0.414410 0.193659 0.910242 -0.726207
O5    O     O_2   0.687031 0.755520 0.822269 -0.520344
O6    O     O_R   0.480206 0.802015 0.785466 -0.751915
O7    O     O_2   0.388826 0.766104 0.234491 -0.551281
O8    O     O_R   0.232609 0.724198 0.339208 -0.801866
O9    O     O_2   0.853708 0.051100 0.456860 -0.555845
O10   O     O_R   0.991356 0.995295 0.582015 -0.760770
O11   O     O_2   0.369552 0.199988 0.187215 -0.535975
O12   O     O_R   0.491330 0.609320 0.646410 -0.583657
O13   O     O_R   0.261327 0.349765 0.275004 -0.797159
O14   O     O_R   0.690660 0.406170 0.506210 -0.591571
O15   O     O_R   0.675810 0.593790 0.493790 -0.568662
O16   O     O_R   0.508670 0.390680 0.353590 -0.603902
O17   O     O_R   0.493830 0.578310 0.341170 -0.574132
O18   O     O_R   0.324190 0.406210 0.506210 -0.632994
O19   O     O_R   0.309340 0.593830 0.493790 -0.608081
O20   O     O_2   0.785602 0.660576 0.327441 -0.524574
Zn1   Zn    Zn3+2 0.509910 0.374720 0.508290 1.033628
Zn2   Zn    Zn3+2 0.490090 0.625280 0.491710 1.082885

loop_
_geom_bond_atom_site_label_1
_geom_bond_atom_site_label_2
_ccdc_geom_bond_type
C29   O5    D    
C16   O17   A    
C7    C36   A    
N1    Zn1   S    
O18   Zn1   S    
C27   O20   D    
H10   O2    S    
C27   C33   S    
C31   O9    D    
C12   C23   A    
C20   O19   A    
C2    C29   S    
C16   O16   A    
C17   H1    S    
H2    O8    S    
O14   Zn1   S    
C10   C15   A    
C1    O1    A    
C5    C6    A    
H11   O4    S    
C20   O18   A    
C10   F2    S    
C34   C35   A    
C8    C36   A    
C21   F5    S    
C20   C35   S    
C11   C30   S    
C8    C9    A    
C23   C33   A    
H12   O6    S    
C11   N2    A    
O17   Zn2   S    
C1    C37   S    
C28   O3    D    
C18   H5    S    
C29   O6    S    
C3    F1    S    
C13   C14   A    
C13   F4    S    
C32   O13   S    
C24   H6    S    
C31   O10   S    
C22   C31   S    
O12   Zn2   S    
C8    C32   S    
C24   C25   A    
O1    Zn1   S    
C4    C23   S    
C18   C19   A    
C13   N2    A    
C25   C26   A    
C12   C21   A    
C12   C26   A    
C25   H7    S    
C5    C9    A    
C2    C38   A    
C18   N1    A    
C6    C38   A    
C33   C34   A    
C7    F6    S    
C4    O15   A    
C30   O8    S    
O16   Zn1   S    
C22   C24   A    
H4    O13   S    
H3    O10   S    
C4    O14   A    
O19   Zn2   S    
C15   C17   A    
C32   O11   D    
C14   C19   A    
C3    C5    A    
C6    C7    A    
N2    Zn2   S    
C34   H8    S    
C1    O12   A    
C27   O2    S    
C16   C36   S    
C2    C37   A    
C38   H9    S    
O15   Zn2   S    
C30   O7    D    
C10   C11   A    
C26   C35   A    
C3    C37   A    
C14   C15   A    
C21   C22   A    
C19   F3    S    
C9    C28   S    
C17   N1    A    
C28   O4    S    
