data_mof_unit_23934.cif
_audit_creation_date              2012-12-11T15:50:22-0500
_audit_creation_method            fapswitch 2.2
_symmetry_space_group_name_H-M    P1
_symmetry_Int_Tables_number       1
_space_group_crystal_system       triclinic
_cell_length_a                    18.954504
_cell_length_b                    10.937738
_cell_length_c                    18.767796
_cell_angle_alpha                 90.032278
_cell_angle_beta                  91.270488
_cell_angle_gamma                 90.164431
_cell_volume                      3889.95486109

loop_
_atom_site_label
_atom_site_type_symbol
_atom_type_description
_atom_site_fract_x
_atom_site_fract_y
_atom_site_fract_z
_atom_type_partial_charge
C1    C     C_R   0.274163 0.038915 0.855145 0.546296
C2    C     C_R   0.726512 0.040373 0.145487 0.539298
C3    C     C_R   0.774163 0.538915 0.855145 0.546296
C4    C     C_R   0.226512 0.540373 0.145487 0.539298
C5    C     C_3   0.554129 0.740783 0.959108 -0.125699
C6    C     C_3   0.504276 0.716464 0.021421 -0.102167
C7    C     C_3   0.054129 0.240783 0.959108 -0.125699
C8    C     C_3   0.004276 0.216464 0.021421 -0.102167
C9    C     C_R   0.241501 0.577368 0.072931 0.016720
C10   C     C_R   0.760568 0.572467 0.928532 0.018192
C11   C     C_R   0.741501 0.077368 0.072931 0.016720
C12   C     C_R   0.260568 0.072467 0.928532 0.018192
C13   C     C_R   0.305688 0.554509 0.040122 0.007110
C14   C     C_R   0.696450 0.549074 0.961207 -0.008073
C15   C     C_R   0.805688 0.054509 0.040122 0.007110
C16   C     C_R   0.196450 0.049074 0.961207 -0.008073
C17   C     C_R   0.311358 0.564404 0.966629 0.022808
C18   C     C_R   0.690368 0.559479 0.034589 0.024655
C19   C     C_R   0.811358 0.064404 0.966629 0.022808
C20   C     C_R   0.190368 0.059479 0.034589 0.024655
C21   C     C_R   0.188480 0.618442 0.956701 -0.179585
C22   C     C_R   0.813751 0.612196 0.045070 -0.174784
C23   C     C_R   0.688480 0.118442 0.956701 -0.179585
C24   C     C_R   0.313751 0.112196 0.045070 -0.174784
C25   C     C_R   0.183992 0.616393 0.030059 -0.174567
C26   C     C_R   0.818711 0.608619 0.971680 -0.166032
C27   C     C_R   0.683992 0.116393 0.030059 -0.174567
C28   C     C_R   0.318711 0.108619 0.971680 -0.166032
C29   C     C_3   0.352204 0.445099 0.043941 -0.271323
C30   C     C_3   0.650922 0.438121 0.957457 -0.272491
C31   C     C_3   0.852204 0.945099 0.043941 -0.271323
C32   C     C_3   0.150922 0.938121 0.957457 -0.272491
C33   C     C_3   0.358483 0.455288 0.963741 -0.279626
C34   C     C_3   0.644403 0.448467 0.037537 -0.275163
C35   C     C_3   0.858483 0.955288 0.963741 -0.279626
C36   C     C_3   0.144403 0.948467 0.037537 -0.275163
C37   C     C_R   0.251977 0.591059 0.923609 0.015619
C38   C     C_R   0.749437 0.587260 0.077692 0.019148
C39   C     C_R   0.751977 0.091059 0.923609 0.015619
C40   C     C_R   0.249437 0.087260 0.077692 0.019148
C41   C     C_R   0.517627 0.829905 0.430366 0.018508
C42   C     C_R   0.506242 0.829736 0.579494 0.018313
C43   C     C_R   0.017627 0.329905 0.430366 0.018508
C44   C     C_R   0.006242 0.329736 0.579494 0.018313
C45   C     C_R   0.471776 0.822059 0.854687 0.544476
C46   C     C_R   0.560658 0.817140 0.137553 0.563267
C47   C     C_R   0.971776 0.322059 0.854687 0.544476
C48   C     C_R   0.060658 0.317140 0.137553 0.563267
C49   C     C_R   0.523665 0.722103 0.469396 0.040062
C50   C     C_R   0.518835 0.721252 0.542135 0.027044
C51   C     C_R   0.023665 0.222103 0.469396 0.040062
C52   C     C_R   0.018835 0.221252 0.542135 0.027044
C53   C     C_R   0.513100 0.941034 0.542813 -0.169083
C54   C     C_R   0.517557 0.941163 0.468146 -0.163830
C55   C     C_R   0.013100 0.441034 0.542813 -0.169083
C56   C     C_R   0.017557 0.441163 0.468146 -0.163830
C57   C     C_3   0.484684 0.604527 0.459917 -0.278566
C58   C     C_3   0.479880 0.601626 0.540144 -0.269265
C59   C     C_3   0.984684 0.104527 0.459917 -0.278565
C60   C     C_3   0.979880 0.101626 0.540144 -0.269265
C61   C     C_R   0.253052 0.592818 0.421214 0.016438
C62   C     C_R   0.748365 0.607440 0.582004 0.019050
C63   C     C_R   0.753052 0.092818 0.421214 0.016438
C64   C     C_R   0.248365 0.107439 0.582004 0.019050
C65   C     C_R   0.217368 0.688436 0.453609 0.015993
C66   C     C_R   0.797163 0.679471 0.545554 0.021471
C67   C     C_R   0.717368 0.188436 0.453609 0.015993
C68   C     C_R   0.297163 0.179471 0.545554 0.021471
C69   C     C_R   0.217321 0.695374 0.526254 0.050324
C70   C     C_R   0.793622 0.685506 0.473007 0.036677
C71   C     C_R   0.717321 0.195374 0.526254 0.050324
C72   C     C_R   0.293622 0.185506 0.473007 0.036677
C73   C     C_R   0.297884 0.526229 0.536791 -0.175614
C74   C     C_R   0.683964 0.574608 0.471408 -0.152983
C75   C     C_R   0.797884 0.026229 0.536791 -0.175614
C76   C     C_R   0.183964 0.074608 0.471408 -0.152983
C77   C     C_R   0.299050 0.519475 0.462889 -0.166018
C78   C     C_R   0.686891 0.568775 0.545767 -0.156067
C79   C     C_R   0.799050 0.019475 0.462889 -0.166017
C80   C     C_R   0.186891 0.068775 0.545767 -0.156067
C81   C     C_3   0.142179 0.730916 0.447783 -0.271644
C82   C     C_3   0.876532 0.676499 0.544460 -0.269230
C83   C     C_3   0.642179 0.230917 0.447783 -0.271644
C84   C     C_3   0.376532 0.176499 0.544460 -0.269230
C85   C     C_3   0.142118 0.734566 0.528170 -0.266284
C86   C     C_3   0.871492 0.683136 0.464364 -0.278753
C87   C     C_3   0.642118 0.234566 0.528170 -0.266284
C88   C     C_3   0.371492 0.183136 0.464364 -0.278752
C89   C     C_R   0.260913 0.635719 0.851480 0.542057
C90   C     C_R   0.739413 0.634734 0.148962 0.537977
C91   C     C_R   0.760913 0.135719 0.851480 0.542057
C92   C     C_R   0.239413 0.134734 0.148962 0.537977
C93   C     C_R   0.253141 0.610047 0.568813 0.026142
C94   C     C_R   0.741526 0.622879 0.434529 0.022841
C95   C     C_R   0.753141 0.110047 0.568813 0.026142
C96   C     C_R   0.241527 0.122879 0.434529 0.022841
C97   C     C_R   0.270630 0.049263 0.647533 0.550414
C98   C     C_R   0.729286 0.046692 0.353331 0.556739
C99   C     C_R   0.770630 0.549263 0.647533 0.550414
C100  C     C_R   0.229286 0.546692 0.353331 0.556739
C101  C     C_R   0.471110 0.823364 0.647696 0.544990
C102  C     C_R   0.532903 0.823364 0.354862 0.554553
C103  C     C_R   0.971111 0.323364 0.647696 0.544990
C104  C     C_R   0.032903 0.323363 0.354862 0.554553
C105  C     C_R   0.259972 0.638389 0.643020 0.545194
C106  C     C_R   0.738268 0.643098 0.358928 0.550034
C107  C     C_R   0.759972 0.138389 0.643020 0.545194
C108  C     C_R   0.238268 0.143098 0.358928 0.550034
C109  C     C_3   0.484278 0.913698 0.030402 -0.111354
C110  C     C_3   0.533932 0.938036 0.967538 -0.125514
C111  C     C_3   0.984278 0.413698 0.030402 -0.111354
C112  C     C_3   0.033932 0.438036 0.967538 -0.125514
C113  C     C_3   0.449811 0.806100 0.989236 -0.103858
C114  C     C_3   0.588982 0.848347 0.000445 -0.138003
C115  C     C_3   0.949810 0.306100 0.989236 -0.103858
C116  C     C_3   0.088982 0.348347 0.000445 -0.138003
C117  C     C_3   0.500029 0.830015 0.927632 0.051010
C118  C     C_3   0.538659 0.824032 0.061979 0.052859
C119  C     C_3   0.000029 0.330015 0.927632 0.051010
C120  C     C_3   0.038659 0.324033 0.061979 0.052859
Cr1   Cr    Cr6+3 0.229640 0.835880 0.747370 1.005400
Cr2   Cr    Cr6+3 0.770360 0.835880 0.252630 1.002806
Cr3   Cr    Cr6+3 0.729640 0.335880 0.747370 1.005400
Cr4   Cr    Cr6+3 0.270360 0.335880 0.252630 1.002806
Cr5   Cr    Cr6+3 0.387390 0.989720 0.750850 1.004905
Cr6   Cr    Cr6+3 0.612610 0.989720 0.249150 1.005456
Cr7   Cr    Cr6+3 0.887390 0.489720 0.750850 1.004905
Cr8   Cr    Cr6+3 0.112610 0.489720 0.249150 1.005456
Cr9   Cr    Cr6+3 0.385770 0.677220 0.749340 1.008442
Cr10  Cr    Cr6+3 0.614230 0.677220 0.250660 1.007645
Cr11  Cr    Cr6+3 0.885770 0.177220 0.749340 1.008442
Cr12  Cr    Cr6+3 0.114230 0.177220 0.250660 1.007645
H1    H     H_    0.392133 0.789937 0.983239 0.122525
H2    H     H_    0.646730 0.863386 0.006599 0.119252
H3    H     H_    0.892133 0.289937 0.983239 0.122525
H4    H     H_    0.146730 0.363386 0.006599 0.119252
H5    H     H_    0.509459 0.026939 0.570902 0.113601
H6    H     H_    0.517994 0.027175 0.440039 0.117760
H7    H     H_    0.009459 0.526939 0.570902 0.113601
H8    H     H_    0.017994 0.527175 0.440039 0.117760
H9    H     H_    0.017656 0.030057 0.438395 0.130769
H10   H     H_    0.925089 0.110183 0.558329 0.175829
H11   H     H_    0.517656 0.530057 0.438395 0.130769
H12   H     H_    0.425089 0.610183 0.558329 0.175829
H13   H     H_    0.432914 0.617058 0.431980 0.143192
H14   H     H_    0.510817 0.526282 0.565221 0.122486
H15   H     H_    0.932914 0.117058 0.431980 0.143192
H16   H     H_    0.010818 0.026282 0.565221 0.122486
H17   H     H_    0.330590 0.465173 0.568612 0.122819
H18   H     H_    0.638564 0.537936 0.442984 0.127630
H19   H     H_    0.830589 0.965173 0.568612 0.122819
H20   H     H_    0.138564 0.037936 0.442984 0.127630
H21   H     H_    0.330184 0.448445 0.439095 0.141163
H22   H     H_    0.644892 0.524432 0.574001 0.117404
H23   H     H_    0.830184 0.948445 0.439095 0.141163
H24   H     H_    0.144892 0.024432 0.574001 0.117404
H25   H     H_    0.104483 0.662537 0.426085 0.163691
H26   H     H_    0.898315 0.587973 0.562643 0.173835
H27   H     H_    0.604483 0.162537 0.426085 0.163691
H28   H     H_    0.398315 0.087973 0.562643 0.173835
H29   H     H_    0.137783 0.822597 0.422794 0.126655
H30   H     H_    0.901102 0.758953 0.569365 0.125091
H31   H     H_    0.637783 0.322597 0.422794 0.126655
H32   H     H_    0.401102 0.258953 0.569365 0.125091
H33   H     H_    0.135751 0.827363 0.550111 0.140994
H34   H     H_    0.892973 0.769508 0.442580 0.133580
H35   H     H_    0.635751 0.327363 0.550111 0.140994
H36   H     H_    0.392973 0.269508 0.442580 0.133580
H37   H     H_    0.107587 0.664097 0.552018 0.133813
H38   H     H_    0.889548 0.598552 0.437484 0.139350
H39   H     H_    0.607587 0.164097 0.552018 0.133813
H40   H     H_    0.389548 0.098552 0.437484 0.139349
H41   H     H_    0.455918 0.984168 0.061069 0.117865
H42   H     H_    0.543525 0.028638 0.943299 0.105991
H43   H     H_    0.955918 0.484168 0.061069 0.117865
H44   H     H_    0.043526 0.528638 0.943299 0.105991
H45   H     H_    0.580886 0.672440 0.925844 0.124601
H46   H     H_    0.491859 0.625356 0.043910 0.118424
H47   H     H_    0.080886 0.172440 0.925844 0.124601
H48   H     H_    0.991859 0.125356 0.043910 0.118424
H49   H     H_    0.142456 0.646787 0.925868 0.129935
H50   H     H_    0.860020 0.639421 0.076161 0.130254
H51   H     H_    0.642456 0.146787 0.925868 0.129935
H52   H     H_    0.360020 0.139421 0.076161 0.130254
H53   H     H_    0.133031 0.636533 0.052227 0.146035
H54   H     H_    0.869950 0.627082 0.949523 0.143358
H55   H     H_    0.633031 0.136533 0.052227 0.146035
H56   H     H_    0.369950 0.127082 0.949523 0.143358
H57   H     H_    0.823517 0.861909 0.060793 0.171690
H58   H     H_    0.180871 0.856984 0.940502 0.176905
H59   H     H_    0.323517 0.361909 0.060793 0.171690
H60   H     H_    0.680871 0.356984 0.940502 0.176905
H61   H     H_    0.412574 0.479981 0.946945 0.142021
H62   H     H_    0.590064 0.470744 0.054256 0.134468
H63   H     H_    0.912574 0.979981 0.946945 0.142021
H64   H     H_    0.090064 0.970744 0.054256 0.134468
H65   H     H_    0.333876 0.377454 0.934122 0.141263
H66   H     H_    0.669829 0.372074 0.067416 0.144937
H67   H     H_    0.833876 0.877454 0.934122 0.141263
H68   H     H_    0.169829 0.872074 0.067416 0.144937
O1    O     O_R   0.214300 0.709080 0.827500 -0.534950
O2    O     O_R   0.785700 0.709080 0.172500 -0.532055
O3    O     O_R   0.714300 0.209080 0.827500 -0.534950
O4    O     O_R   0.285700 0.209080 0.172500 -0.532055
O5    O     O_R   0.445900 0.919370 0.676500 -0.510526
O6    O     O_R   0.554100 0.919370 0.323500 -0.503286
O7    O     O_R   0.945900 0.419370 0.676500 -0.510526
O8    O     O_R   0.054100 0.419370 0.323500 -0.503286
O9    O     O_R   0.456660 0.717710 0.669820 -0.525559
O10   O     O_R   0.543340 0.717710 0.330180 -0.516215
O11   O     O_R   0.956660 0.217710 0.669820 -0.525559
O12   O     O_R   0.043340 0.217710 0.330180 -0.516215
O13   O     O_R   0.320590 0.625770 0.672930 -0.512096
O14   O     O_R   0.679410 0.625770 0.327070 -0.510719
O15   O     O_R   0.820590 0.125770 0.672930 -0.512096
O16   O     O_R   0.179410 0.125770 0.327070 -0.510719
O17   O     O_3   0.334270 0.834280 0.749190 -0.245574
O18   O     O_3   0.665730 0.834280 0.250810 -0.268010
O19   O     O_3   0.834270 0.334280 0.749190 -0.245574
O20   O     O_3   0.165730 0.334280 0.250810 -0.268010
O21   O     O_R   0.236190 0.958390 0.823150 -0.504464
O22   O     O_R   0.763810 0.958390 0.176850 -0.504050
O23   O     O_R   0.736190 0.458390 0.823150 -0.504464
O24   O     O_R   0.263810 0.458390 0.176850 -0.504050
O25   O     O_R   0.332090 0.075280 0.831290 -0.530172
O26   O     O_R   0.667910 0.075280 0.168710 -0.535739
O27   O     O_R   0.832090 0.575280 0.831290 -0.530172
O28   O     O_R   0.167910 0.575280 0.168710 -0.535739
O29   O     O_R   0.446280 0.918040 0.826620 -0.506500
O30   O     O_R   0.553720 0.918040 0.173380 -0.503487
O31   O     O_R   0.946280 0.418040 0.826620 -0.506500
O32   O     O_R   0.053720 0.418040 0.173380 -0.503487
O33   O     O_R   0.457080 0.716270 0.831760 -0.522826
O34   O     O_R   0.542920 0.716270 0.168240 -0.520859
O35   O     O_R   0.957080 0.216270 0.831760 -0.522826
O36   O     O_R   0.042920 0.216270 0.168240 -0.520859
O37   O     O_R   0.320980 0.624440 0.823040 -0.496885
O38   O     O_R   0.679020 0.624440 0.176960 -0.512226
O39   O     O_R   0.820980 0.124440 0.823040 -0.496885
O40   O     O_R   0.179020 0.124440 0.176960 -0.512226
O41   O     O_R   0.213880 0.710510 0.665560 -0.519461
O42   O     O_R   0.786120 0.710510 0.334440 -0.518356
O43   O     O_R   0.713880 0.210510 0.665560 -0.519461
O44   O     O_R   0.286120 0.210510 0.334440 -0.518356
O45   O     O_R   0.235800 0.959720 0.673040 -0.504879
O46   O     O_R   0.764200 0.959720 0.326960 -0.508751
O47   O     O_R   0.735800 0.459720 0.673040 -0.504879
O48   O     O_R   0.264200 0.459720 0.326960 -0.508751
O49   O     O_R   0.331670 0.076720 0.669350 -0.527310
O50   O     O_R   0.668330 0.076720 0.330650 -0.525102
O51   O     O_R   0.831670 0.576720 0.669350 -0.527310
O52   O     O_R   0.168330 0.576720 0.330650 -0.525102
H69   H     H_    0.402517 0.463720 0.073515 0.129748
H70   H     H_    0.600423 0.454029 0.927772 0.125759
H71   H     H_    0.902517 0.963719 0.073515 0.129748
H72   H     H_    0.100423 0.954029 0.927772 0.125759

loop_
_geom_bond_atom_site_label_1
_geom_bond_atom_site_label_2
_ccdc_geom_bond_type
C83   C87   S    
C55   C56   A    
Cr4   O20   S    
C67   C83   S    
C88   H40   S    
C57   H13   S    
C5    C114  S    
C24   H52   S    
Cr1   O21   S    
C64   C80   A    
C14   C18   A    
C89   O1    A    
C111  C112  S    
Cr12  O12   S    
C73   C93   A    
C39   C91   S    
Cr3   O43   S    
C84   H28   S    
Cr7   O19   S    
C7    C8    S    
C48   C120  S    
C63   C79   A    
C53   C54   A    
C21   H49   S    
C8    C120  S    
C33   H65   S    
Cr8   O52   S    
C55   H7    S    
C17   C33   S    
C23   C39   A    
C12   C28   A    
C53   H5    S    
C46   O34   A    
C13   C29   S    
Cr6   O30   S    
C45   O33   A    
Cr6   O50   S    
C98   O46   A    
C63   C98   S    
C69   C93   A    
C28   H56   S    
C42   C53   A    
C97   O45   A    
C5    C6    S    
C56   H8    S    
C72   C96   A    
C109  H41   S    
C71   C95   A    
C76   H20   S    
C19   C39   A    
C45   C117  S    
C25   H53   S    
C22   C38   A    
C29   C33   S    
C2    O22   A    
C49   C57   S    
C41   C102  S    
C46   C118  S    
Cr11  O19   S    
C41   C49   A    
Cr10  O18   S    
C9    C13   A    
C43   C104  S    
C1    O21   A    
Cr9   O17   S    
C83   H27   S    
C52   C60   S    
C8    C115  S    
C60   H10   S    
Cr5   O5    S    
C11   C15   A    
Cr10  O38   S    
C12   C16   A    
C75   H19   S    
C88   H36   S    
C86   H34   S    
C3    O23   A    
C76   C80   A    
C30   H70   S    
Cr4   O24   S    
Cr12  O16   S    
C104  O8    A    
C30   H60   S    
Cr4   O44   S    
Cr8   O20   S    
Cr7   O51   S    
C84   H32   S    
C35   H63   S    
Cr2   O46   S    
C6    C113  S    
C93   C105  S    
C34   H62   S    
Cr1   O45   S    
C96   C108  S    
Cr2   O22   S    
C33   H61   S    
C59   C60   S    
Cr8   O32   S    
C113  H1    S    
C6    H46   S    
Cr7   O27   S    
C4    O24   A    
C46   O30   A    
C107  O43   A    
Cr6   O26   S    
C1    C12   S    
C45   O29   A    
C106  O42   A    
Cr5   O25   S    
C2    C11   S    
C101  O5    A    
C110  C117  S    
C105  O41   A    
C72   C88   S    
C44   C103  S    
C109  C118  S    
C80   H24   S    
C47   O35   A    
C110  H42   S    
C111  C115  S    
C106  O14   A    
C63   C67   A    
C81   H25   S    
C90   O38   A    
C75   C95   A    
C29   H69   S    
C68   C84   S    
C35   H67   S    
C7    C119  S    
C62   C66   A    
Cr7   O7    S    
Cr2   O42   S    
C21   C25   A    
C10   C14   A    
C3    O27   A    
C103  O11   A    
C37   C89   S    
C98   O50   A    
C30   C34   S    
C102  O10   A    
C27   H55   S    
C82   H30   S    
C101  O9    A    
C14   C30   S    
Cr3   O23   S    
Cr10  O34   S    
C85   H37   S    
C116  C120  S    
C115  C119  S    
C5    C117  S    
C68   C72   A    
Cr12  O20   S    
C50   C58   S    
C7    C116  S    
Cr4   O48   S    
C15   C19   A    
C36   H64   S    
Cr11  O15   S    
C23   H51   S    
C100  O48   A    
C89   O37   A    
C66   C82   S    
C102  O6    A    
C38   C90   S    
C8    H48   S    
C65   C81   S    
C114  C118  S    
C11   C27   A    
C16   C20   A    
C87   H39   S    
C108  O44   A    
Cr7   O31   S    
C10   C26   A    
C114  H2    S    
C32   H58   S    
C31   H71   S    
C82   H26   S    
C108  O16   A    
C40   C92   S    
C92   O40   A    
C18   C34   S    
C5    H45   S    
C29   H59   S    
C48   O36   A    
Cr11  O35   S    
C95   C107  S    
C83   H31   S    
C42   C50   A    
Cr9   O13   S    
C71   C87   S    
C47   O31   A    
C99   O51   A    
C64   C97   S    
C112  H44   S    
Cr4   O4    S    
C23   C27   A    
Cr11  O11   S    
C77   H21   S    
C111  H43   S    
Cr10  O10   S    
C61   C100  S    
C51   C59   S    
C17   C37   A    
Cr9   O9    S    
C48   O32   A    
C70   C86   S    
C42   C101  S    
C64   C68   A    
C110  C114  S    
C112  C116  S    
C69   C85   S    
C2    O26   A    
Cr1   O41   S    
C113  C117  S    
C1    O25   A    
C65   C69   A    
C61   C77   A    
Cr3   O19   S    
C94   C106  S    
C73   C77   A    
Cr2   O18   S    
C75   C79   A    
Cr9   O37   S    
C86   H38   S    
Cr1   O17   S    
C62   C78   A    
C78   H22   S    
C24   C28   A    
C103  O7    A    
C100  O52   A    
C105  O13   A    
C92   O4    A    
C44   C52   A    
C9    C25   A    
C112  C119  S    
C97   O49   A    
C32   C36   S    
C15   C31   S    
C36   H68   S    
C116  H4    S    
C109  C113  S    
C16   C32   S    
C87   H35   S    
C60   H16   S    
C31   H57   S    
Cr5   O29   S    
C13   C17   A    
C58   H14   S    
C7    H47   S    
C85   H33   S    
Cr2   O2    S    
Cr5   O49   S    
C18   C38   A    
C74   H18   S    
Cr1   O1    S    
C51   C52   A    
C22   H50   S    
C3    C10   S    
C82   C86   S    
C109  C110  S    
C76   C96   A    
C81   H29   S    
C26   H54   S    
C44   C55   A    
C43   C51   A    
C57   C58   S    
C54   H6    S    
C84   C88   S    
C115  H3    S    
Cr6   O6    S    
C20   C40   A    
Cr9   O33   S    
C31   C35   S    
C47   C119  S    
C24   C40   A    
Cr12  O36   S    
C6    C118  S    
Cr10  O14   S    
C67   C71   A    
C4    O28   A    
C61   C65   A    
Cr12  O40   S    
Cr8   O28   S    
C91   O3    A    
C41   C54   A    
Cr3   O47   S    
Cr11  O39   S    
C79   H23   S    
C62   C99   S    
C20   C36   S    
C73   H17   S    
C58   H12   S    
C43   C56   A    
C32   H72   S    
C21   C37   A    
C66   C70   A    
C59   H9    S    
C34   H66   S    
C49   C50   A    
C22   C26   A    
C91   O39   A    
C74   C94   A    
C70   C94   A    
C104  O12   A    
C111  C120  S    
C19   C35   S    
Cr8   O8    S    
Cr3   O3    S    
C4    C9    S    
C99   O47   A    
C107  O15   A    
C81   C85   S    
Cr6   O18   S    
C57   H11   S    
C59   H15   S    
C74   C78   A    
C90   O2    A    
Cr5   O17   S    
