data_mof_unit_12767.cif
_audit_creation_date              2012-12-10T16:42:58-0500
_audit_creation_method            fapswitch 2.2
_symmetry_space_group_name_H-M    P1
_symmetry_Int_Tables_number       1
_space_group_crystal_system       triclinic
_cell_length_a                    7.537498
_cell_length_b                    8.690251
_cell_length_c                    12.958171
_cell_angle_alpha                 86.85725
_cell_angle_beta                  78.743188
_cell_angle_gamma                 102.615425
_cell_volume                      808.146652146

loop_
_atom_site_label
_atom_site_type_symbol
_atom_type_description
_atom_site_fract_x
_atom_site_fract_y
_atom_site_fract_z
_atom_type_partial_charge
C1    C     C_R   0.453983 0.200225 0.505385 0.854729
C2    C     C_R   0.546017 0.799775 0.494615 0.854729
C3    C     C_R   0.465867 0.495958 0.701282 0.798573
C4    C     C_R   0.534133 0.504042 0.298718 0.798573
C5    C     C_R   0.553809 0.507459 0.184725 -0.033166
C6    C     C_R   0.446191 0.492541 0.815275 -0.033166
C7    C     C_R   0.251261 0.455579 0.990920 -0.203969
C8    C     C_R   0.748739 0.544421 0.009080 -0.203969
C9    C     C_R   0.268895 0.460302 0.882077 -0.170834
C10   C     C_R   0.731105 0.539698 0.117923 -0.170834
C11   C     C_R   0.605854 0.520607 0.857816 -0.250001
C12   C     C_R   0.394146 0.479393 0.142184 -0.250001
C13   C     C_R   0.589338 0.516403 0.966477 0.172019
C14   C     C_R   0.410662 0.483597 0.033523 0.172019
C15   C     C_2   0.433802 0.033737 0.525371 -0.037930
C16   C     C_2   0.566198 0.966263 0.474629 -0.037928
Cu1   Cu    Cu3+1 0.686350 0.517570 0.488220 1.005733
Cu2   Cu    Cu3+1 0.313650 0.482430 0.511780 1.005732
H1    H     H_    0.256759 0.454080 0.193346 0.160594
H2    H     H_    0.743241 0.545920 0.806654 0.160593
H3    H     H_    0.856080 0.562190 0.149591 0.157388
H4    H     H_    0.143920 0.437810 0.850409 0.157388
H5    H     H_    0.113640 0.429728 0.041631 0.144162
H6    H     H_    0.886360 0.570272 0.958368 0.144162
N1    N     N_2   0.033570 0.455950 0.529530 -0.215357
N2    N     N_2   0.966430 0.544050 0.470470 -0.215356
O1    O     O_R   0.621060 0.286250 0.492350 -0.601653
O2    O     O_R   0.378940 0.713750 0.507650 -0.601656
O3    O     O_R   0.306310 0.256580 0.512240 -0.513236
O4    O     O_R   0.693690 0.743420 0.487760 -0.513235
O5    O     O_R   0.631800 0.512400 0.642670 -0.621062
O6    O     O_R   0.368200 0.487600 0.357330 -0.621062
O7    O     O_R   0.317060 0.482730 0.662570 -0.594239
O8    O     O_R   0.682940 0.517270 0.337430 -0.594238
C17   C     C_2   0.912343 0.318051 0.588817 0.726414
H7    H     H_    0.802033 0.325537 0.653725 0.000371
O9    O     O_2   0.937308 0.187412 0.570580 -0.511567
C18   C     C_2   0.087657 0.681950 0.411183 0.726410
H8    H     H_    0.197969 0.674465 0.346276 0.000374
O10   O     O_2   0.062688 0.812588 0.429419 -0.511567
I1    I     I_    0.219254 0.922973 0.659645 -0.266968
I2    I     I_    0.780746 0.077027 0.340355 -0.266966

loop_
_geom_bond_atom_site_label_1
_geom_bond_atom_site_label_2
_ccdc_geom_bond_type
C18   O10   D    
C8    C13   A    
C1    C15   S    
C2    C16   S    
C17   H7    S    
C2    O4    A    
C3    C6    S    
C6    C9    A    
C1    O3    A    
Cu1   Cu2   S    
C5    C10   A    
Cu2   O3    S    
C13   C14   A    
C3    O5    A    
Cu1   O4    S    
C11   C13   A    
C4    O6    A    
Cu2   N1    S    
N1    C17   S    
C7    H5    S    
Cu1   N2    S    
C12   H1    S    
C17   O9    D    
C12   C14   A    
C7    C9    A    
C10   H3    S    
C18   H8    S    
Cu1   O5    S    
Cu2   O7    S    
C4    O8    A    
C11   H2    S    
Cu2   O6    S    
Cu1   O8    S    
C3    O7    A    
C15   C16   D    
Cu1   O1    S    
C16   I2    S    
Cu2   O2    S    
C15   I1    S    
C5    C12   A    
C8    C10   A    
C9    H4    S    
C6    C11   A    
C1    O1    A    
N2    C18   S    
C2    O2    A    
C8    H6    S    
N1    N2    D    
C7    C14   A    
C4    C5    S    
