data_mof_unit_51038.cif
_audit_creation_date              2012-12-10T16:53:11-0500
_audit_creation_method            fapswitch 2.2
_symmetry_space_group_name_H-M    P1
_symmetry_Int_Tables_number       1
_space_group_crystal_system       triclinic
_cell_length_a                    10.792693
_cell_length_b                    10.908376
_cell_length_c                    9.698392
_cell_angle_alpha                 89.578553
_cell_angle_beta                  89.618699
_cell_angle_gamma                 90.767809
_cell_volume                      1141.639547

loop_
_atom_site_label
_atom_site_type_symbol
_atom_type_description
_atom_site_fract_x
_atom_site_fract_y
_atom_site_fract_z
_atom_type_partial_charge
C1    C     C_R   0.506132 0.265283 0.500105 0.834635
C2    C     C_R   0.063236 0.400434 0.587151 0.098730
C3    C     C_R   0.128548 0.485238 0.501257 -0.105528
C4    C     C_R   0.065319 0.563090 0.411986 -0.190188
C5    C     C_R   0.937596 0.562820 0.411029 -0.214189
C6    C     C_R   0.870756 0.484546 0.499215 -0.091682
C7    C     C_2   0.552505 0.931568 0.407562 -0.377295
C8    C     C_2   0.481074 0.867502 0.497046 0.263601
C9    C     C_2   0.538365 0.065506 0.387568 0.526338
C10   C     C_2   0.524658 0.133531 0.502143 -0.328723
C11   C     C_2   0.414267 0.446126 0.923559 -0.049930
C12   C     C_R   0.262527 0.494578 0.500555 0.788804
C13   C     C_2   0.427162 0.430136 0.078000 0.100439
C14   C     C_R   0.494900 0.734658 0.499724 0.749905
C15   C     C_R   0.737269 0.494916 0.499705 0.774990
C16   C     C_R   0.124649 0.313956 0.671095 -0.180145
C17   C     C_R   0.057668 0.232320 0.755022 -0.144780
C18   C     C_R   0.929003 0.230704 0.752232 -0.137797
C19   C     C_R   0.866404 0.311941 0.666904 -0.182539
C20   C     C_R   0.932086 0.399776 0.585603 0.101612
Cu1   Cu    Cu3+1 0.500020 0.500020 0.638630 0.921898
Cu2   Cu    Cu3+1 0.499980 0.499980 0.361370 0.992058
H1    H     H_    0.115262 0.626948 0.345075 0.161966
H2    H     H_    0.531052 0.091181 0.603621 0.133631
H3    H     H_    0.332334 0.408002 0.875117 0.130146
H4    H     H_    0.584056 0.511392 0.890594 0.236893
H5    H     H_    0.373264 0.357657 0.127920 0.100464
H6    H     H_    0.224287 0.306526 0.671667 0.148531
H7    H     H_    0.105752 0.168787 0.821176 0.137241
H8    H     H_    0.877421 0.165074 0.815078 0.133742
H9    H     H_    0.766674 0.303128 0.664173 0.148830
H10   H     H_    0.890567 0.626653 0.343740 0.134937
H11   H     H_    0.622642 0.884881 0.347391 0.102929
N1    N     N_2   0.498640 0.498660 0.846910 -0.260845
N2    N     N_2   0.498610 0.498630 0.153040 -0.009125
O1    O     O_R   0.500020 0.321960 0.617040 -0.608720
O2    O     O_R   0.499980 0.321920 0.382900 -0.525651
O3    O     O_R   0.319670 0.500020 0.617100 -0.588018
O4    O     O_R   0.319630 0.499980 0.382950 -0.574937
O5    O     O_R   0.500020 0.678080 0.617100 -0.592719
O6    O     O_R   0.499980 0.678040 0.382960 -0.567612
O7    O     O_R   0.680370 0.500020 0.617050 -0.590985
O8    O     O_R   0.680330 0.499980 0.382900 -0.608800
O9    O     O_3   0.527474 0.608558 0.095015 -0.491771
C21   C     C_3   0.654376 0.633352 0.117759 0.196457
H12   H     H_    0.711808 0.549674 0.106893 0.128691
H13   H     H_    0.668400 0.673279 0.220988 0.175557
C22   C     C_3   0.700637 0.728457 0.013005 -0.926529
H14   H     H_    0.639796 0.809617 0.014190 0.250175
H15   H     H_    0.796524 0.757947 0.038928 0.211318
H16   H     H_    0.701155 0.689811 0.907525 0.255682
O10   O     O_3   0.379924 0.923528 0.559501 -0.588147
C23   C     C_3   0.365401 0.886210 0.698433 0.100914
H17   H     H_    0.456015 0.882892 0.752937 0.145477
H18   H     H_    0.317823 0.795229 0.704108 0.181215
C24   C     C_3   0.284552 0.977968 0.772679 -0.838978
H19   H     H_    0.191688 0.980136 0.724172 0.256698
H20   H     H_    0.273747 0.950956 0.882777 0.211636
H21   H     H_    0.327738 0.070898 0.766685 0.244157
O11   O     O_3   0.542997 0.123611 0.258275 -0.564554
C25   C     C_3   0.551242 0.041549 0.146817 0.074661
H22   H     H_    0.476557 0.970127 0.152141 0.168053
H23   H     H_    0.643989 0.998407 0.145470 0.141018
C26   C     C_3   0.536546 0.112311 0.012213 -0.808882
H24   H     H_    0.607784 0.186529 0.004227 0.249768
H25   H     H_    0.547781 0.049442 0.923598 0.198342
H26   H     H_    0.442992 0.153229 0.007638 0.236927

loop_
_geom_bond_atom_site_label_1
_geom_bond_atom_site_label_2
_ccdc_geom_bond_type
C16   H6    S    
C25   C26   S    
C23   H17   S    
C18   H8    S    
C2    C16   A    
C9    C10   D    
C8    O10   S    
Cu2   O8    S    
Cu1   N1    S    
C24   H21   S    
C1    O2    A    
C9    O11   S    
C19   H9    S    
C26   H24   S    
C5    H10   S    
C12   O4    A    
C22   H15   S    
C2    C3    A    
C15   O8    A    
C7    C8    D    
Cu1   O1    S    
Cu1   Cu2   S    
C24   H19   S    
N2    O9    S    
C7    H11   S    
C5    C6    A    
Cu1   O5    S    
C6    C20   A    
C14   O6    A    
Cu2   O4    S    
Cu1   O3    S    
C22   H14   S    
C24   H20   S    
C13   N2    D    
C23   H18   S    
C12   O3    A    
C25   H22   S    
C22   H16   S    
C16   C17   A    
C23   C24   S    
Cu2   O6    S    
Cu2   N2    S    
C11   H3    S    
C2    C20   A    
C3    C4    A    
C26   H26   S    
C11   C13   S    
C17   H7    S    
O10   C23   S    
C15   O7    A    
C17   C18   A    
C18   C19   A    
C1    C10   S    
C21   H13   S    
C7    C9    S    
C4    H1    S    
Cu1   O7    S    
C4    C5    A    
C8    C14   S    
C3    C12   S    
C21   C22   S    
C10   H2    S    
C6    C15   S    
C21   H12   S    
Cu2   O2    S    
C14   O5    A    
H4    N1    S    
C11   N1    D    
C13   H5    S    
O9    C21   S    
C19   C20   A    
C1    O1    A    
O11   C25   S    
C25   H23   S    
C26   H25   S    
