data_mof_unit_10874.cif
_audit_creation_date              2012-12-10T17:51:59-0500
_audit_creation_method            fapswitch 2.2
_symmetry_space_group_name_H-M    P1
_symmetry_Int_Tables_number       1
_space_group_crystal_system       triclinic
_cell_length_a                    14.793001
_cell_length_b                    14.635745
_cell_length_c                    19.291208
_cell_angle_alpha                 74.112024
_cell_angle_beta                  101.906679
_cell_angle_gamma                 115.770389
_cell_volume                      3599.1697515

loop_
_atom_site_label
_atom_site_type_symbol
_atom_type_description
_atom_site_fract_x
_atom_site_fract_y
_atom_site_fract_z
_atom_type_partial_charge
C1    C     C_R   0.879854 0.310680 0.512644 0.806732
C2    C     C_R   0.119018 0.688902 0.491038 0.777738
C3    C     C_R   0.808642 0.199883 0.529436 -0.109971
C4    C     C_R   0.183460 0.800451 0.490065 -0.102684
C5    C     C_R   0.762833 0.026355 0.603866 -0.220087
C6    C     C_R   0.217295 0.983286 0.445921 -0.254650
C7    C     C_R   0.837098 0.118684 0.570369 0.037711
C8    C     C_R   0.148214 0.880003 0.457847 -0.006534
C9    C     C_R   0.705759 0.178463 0.511398 -0.270456
C10   C     C_R   0.283395 0.828511 0.521659 -0.238116
C11   C     C_R   0.630231 0.084962 0.542265 0.076703
C12   C     C_R   0.351695 0.933436 0.515783 0.083397
C13   C     C_R   0.660302 0.009588 0.591895 0.084143
C14   C     C_R   0.319339 0.011306 0.472676 0.090335
C15   C     C_R   0.525757 0.063442 0.523321 0.048636
C16   C     C_R   0.453463 0.961924 0.546974 0.048004
C17   C     C_R   0.484773 0.892557 0.601988 -0.258602
C18   C     C_R   0.491275 0.139604 0.481037 -0.263640
C19   C     C_R   0.586713 0.916412 0.625541 -0.030977
C20   C     C_R   0.389656 0.115298 0.457047 -0.011727
C21   C     C_R   0.697979 0.626332 0.353992 0.272880
C22   C     C_R   0.270593 0.316246 0.619070 0.267718
C23   C     C_R   0.999526 0.499514 0.631998 0.866052
C24   C     C_R   0.997293 0.495569 0.367926 0.841070
C25   C     C_R   0.787622 0.615989 0.384952 0.095301
C26   C     C_R   0.194985 0.353859 0.600068 0.046742
C27   C     C_R   0.714120 0.512130 0.494270 0.094472
C28   C     C_R   0.289875 0.490970 0.509425 0.090320
C29   C     C_R   0.617476 0.512682 0.462942 -0.110450
C30   C     C_R   0.360713 0.445108 0.518611 -0.115293
C31   C     C_R   0.612639 0.575961 0.393094 0.049225
C32   C     C_R   0.352623 0.359801 0.577100 0.039497
C33   C     C_R   0.526509 0.457034 0.499192 0.101901
C34   C     C_R   0.443286 0.485596 0.474739 0.113947
C35   C     C_R   0.440293 0.544338 0.403849 -0.205722
C36   C     C_R   0.510551 0.366414 0.553242 -0.216720
C37   C     C_R   0.522307 0.587294 0.363539 -0.134658
C38   C     C_R   0.426197 0.319123 0.591705 -0.138972
C39   C     C_R   0.995642 0.410064 0.761691 0.316190
C40   C     C_R   0.903121 0.476095 0.243499 0.339502
C41   C     C_R   0.995078 0.410287 0.834165 0.344400
C42   C     C_R   0.904283 0.478711 0.170401 0.347932
C43   C     C_R   0.996273 0.497968 0.852411 -0.144646
C44   C     C_R   0.992588 0.490453 0.145459 -0.130367
C45   C     C_R   0.999395 0.586073 0.797614 -0.025531
C46   C     C_R   0.079698 0.497836 0.194356 -0.013150
C47   C     C_R   0.001424 0.585152 0.725742 -0.286007
C48   C     C_R   0.077483 0.494707 0.267014 -0.309990
C49   C     C_R   0.998794 0.497884 0.707671 -0.158303
C50   C     C_R   0.991917 0.488212 0.291969 -0.194965
C51   C     C_R   0.992872 0.494145 0.068713 0.456437
C52   C     C_R   0.995213 0.497158 0.928456 0.459245
Cu1   Cu    Cu3+1 0.081740 0.475680 0.518680 0.962018
Cu2   Cu    Cu3+1 0.918260 0.524320 0.481320 0.973912
H1    H     H_    0.514344 0.631056 0.309210 0.187410
H2    H     H_    0.418852 0.249454 0.632509 0.198307
H3    H     H_    0.128853 0.316295 0.629393 0.206954
H4    H     H_    0.851816 0.651621 0.353756 0.180035
H5    H     H_    0.371598 0.550875 0.376439 0.134939
H6    H     H_    0.557578 0.324978 0.561759 0.141235
H7    H     H_    0.003198 0.652118 0.683368 0.154135
H8    H     H_    0.143501 0.496638 0.304077 0.157082
H9    H     H_    0.308001 0.767008 0.548381 0.172023
H10   H     H_    0.686679 0.237064 0.472139 0.173575
H11   H     H_    0.784471 0.964138 0.635536 0.143091
H12   H     H_    0.189261 0.041699 0.416639 0.152056
H13   H     H_    0.430459 0.819764 0.628513 0.158848
H14   H     H_    0.541221 0.220312 0.467511 0.150311
N1    N     N_R   0.923123 0.418275 0.968063 -0.173099
N2    N     N_R   0.064795 0.573450 0.029046 -0.209357
N3    N     N_R   0.922199 0.416592 0.037113 -0.164713
N4    N     N_R   0.065920 0.574949 0.959962 -0.207598
N5    N     N_R   0.795420 0.560800 0.453240 -0.225187
N6    N     N_R   0.204580 0.439200 0.546760 -0.226472
O1    O     O_R   0.977910 0.338110 0.524620 -0.570126
O2    O     O_R   0.022090 0.661890 0.475380 -0.580630
O3    O     O_R   0.839850 0.379180 0.493080 -0.576667
O4    O     O_R   0.160150 0.620820 0.506920 -0.569988
O5    O     O_R   0.069040 0.479450 0.615630 -0.546883
O6    O     O_R   0.930960 0.520550 0.384370 -0.534337
O7    O     O_R   0.930990 0.520520 0.584090 -0.576569
O8    O     O_R   0.069010 0.479480 0.415910 -0.603900
Cl1   Cl    Cl    0.987520 0.297572 0.738455 -0.579658
Cl2   Cl    Cl    0.787144 0.451367 0.272871 -0.530393
C53   C     C_R   0.326407 0.604976 0.477983 0.178386
C54   C     C_R   0.415643 0.671245 0.511428 -0.188692
C55   C     C_R   0.465778 0.774526 0.476933 -0.147449
C56   C     C_R   0.424612 0.814914 0.410377 -0.076124
C57   C     C_R   0.334966 0.751056 0.377119 -0.171406
C58   C     C_R   0.287465 0.646500 0.409894 -0.132324
H15   H     H_    0.448739 0.640498 0.562659 0.129369
H16   H     H_    0.536990 0.823231 0.501452 0.142621
H17   H     H_    0.462799 0.895261 0.384245 0.138968
H18   H     H_    0.304108 0.781554 0.324645 0.137484
H19   H     H_    0.224701 0.597981 0.379817 0.134004
C59   C     C_R   0.732668 0.482886 0.574321 0.169273
C60   C     C_R   0.744736 0.553080 0.616163 -0.149009
C61   C     C_R   0.757371 0.526376 0.691764 -0.141215
C62   C     C_R   0.756065 0.428698 0.726453 -0.087368
C63   C     C_R   0.744436 0.358315 0.685539 -0.139870
C64   C     C_R   0.733711 0.385413 0.609912 -0.121421
H20   H     H_    0.743522 0.628153 0.590215 0.107072
H21   H     H_    0.768806 0.581630 0.723537 0.129134
H22   H     H_    0.765413 0.408110 0.785012 0.147270
H23   H     H_    0.743588 0.282649 0.712395 0.168085
H24   H     H_    0.720750 0.328308 0.579603 0.136526
Cl3   Cl    Cl    0.695829 0.700561 0.265066 -0.630946
Cl4   Cl    Cl    0.261045 0.217115 0.697144 -0.646516
Cl5   Cl    Cl    0.996972 0.301456 0.902021 -0.512794
Cl6   Cl    Cl    0.795380 0.472551 0.109276 -0.507635
C65   C     C_R   0.997586 0.678837 0.813402 0.144078
C66   C     C_R   0.917182 0.670249 0.846471 -0.147799
C67   C     C_R   0.916700 0.757924 0.861973 -0.104695
C68   C     C_R   0.995879 0.854668 0.844240 -0.088872
C69   C     C_R   0.075849 0.863888 0.811115 -0.140509
C70   C     C_R   0.076476 0.776557 0.795177 -0.141237
H25   H     H_    0.855103 0.595802 0.860248 0.131539
H26   H     H_    0.855212 0.750863 0.888063 0.145558
H27   H     H_    0.995454 0.922413 0.856398 0.161946
H28   H     H_    0.137656 0.938671 0.798135 0.169530
H29   H     H_    0.139057 0.784764 0.769638 0.137081
C71   C     C_R   0.174352 0.508612 0.171509 0.127418
C72   C     C_R   0.174539 0.434880 0.137729 -0.127681
C73   C     C_R   0.264299 0.445449 0.116943 -0.126661
C74   C     C_R   0.354567 0.528897 0.130308 -0.101409
C75   C     C_R   0.355316 0.601860 0.164614 -0.126503
C76   C     C_R   0.265698 0.591890 0.185228 -0.166030
H30   H     H_    0.105457 0.369020 0.127935 0.152401
H31   H     H_    0.263995 0.388537 0.090897 0.163821
H32   H     H_    0.424047 0.536637 0.114507 0.167589
H33   H     H_    0.425367 0.666121 0.175292 0.164454
H34   H     H_    0.267420 0.649084 0.211749 0.134800
C77   C     C_R   0.613565 0.842584 0.686259 0.103952
C78   C     C_R   0.640184 0.863199 0.756244 -0.121459
C79   C     C_R   0.660426 0.790914 0.814475 -0.127147
C80   C     C_R   0.653332 0.697552 0.803151 -0.106658
C81   C     C_R   0.627899 0.677309 0.733410 -0.127415
C82   C     C_R   0.609647 0.750276 0.674946 -0.168275
H35   H     H_    0.644106 0.934508 0.765707 0.147548
H36   H     H_    0.680542 0.806748 0.868463 0.152595
H37   H     H_    0.667631 0.640975 0.848345 0.143336
H38   H     H_    0.621559 0.604825 0.724647 0.140303
H39   H     H_    0.593051 0.735159 0.621064 0.116533
C83   C     C_R   0.361046 0.199721 0.410775 0.099735
C84   C     C_R   0.297916 0.231416 0.434508 -0.155791
C85   C     C_R   0.266027 0.306369 0.388920 -0.147866
C86   C     C_R   0.300322 0.353107 0.320509 -0.113639
C87   C     C_R   0.366314 0.324898 0.297438 -0.090325
C88   C     C_R   0.396398 0.248105 0.342282 -0.126652
H40   H     H_    0.272954 0.197354 0.487983 0.139243
H41   H     H_    0.215962 0.329385 0.407021 0.139211
H42   H     H_    0.276945 0.412303 0.286053 0.143544
H43   H     H_    0.393645 0.361953 0.244685 0.152743
H44   H     H_    0.446187 0.225494 0.323406 0.151411
C89   C     C_R   0.040215 0.861719 0.441465 0.131342
C90   C     C_R   0.000610 0.890225 0.370247 -0.180328
C91   C     C_R   0.902448 0.886051 0.356499 -0.104967
C92   C     C_R   0.843523 0.854094 0.413668 -0.120549
C93   C     C_R   0.882483 0.825747 0.484667 -0.147731
C94   C     C_R   0.980461 0.829513 0.498664 -0.082013
H45   H     H_    0.046409 0.917473 0.325738 0.145221
H46   H     H_    0.872379 0.908548 0.301571 0.184879
H47   H     H_    0.767734 0.851398 0.402950 0.148593
H48   H     H_    0.837407 0.802661 0.528944 0.121005
H49   H     H_    0.010813 0.810118 0.554144 0.107655
C95   C     C_R   0.936272 0.117648 0.568137 0.111564
C96   C     C_R   0.971897 0.139589 0.500686 -0.109837
C97   C     C_R   0.051457 0.115249 0.495632 -0.154213
C98   C     C_R   0.095962 0.068587 0.557649 -0.124129
C99   C     C_R   0.062526 0.048336 0.624923 -0.072792
C100  C     C_R   0.984043 0.073830 0.630536 -0.127924
H50   H     H_    0.934562 0.170200 0.451467 0.125422
H51   H     H_    0.076156 0.129293 0.443255 0.139124
H52   H     H_    0.155505 0.046752 0.553736 0.136429
H53   H     H_    0.096704 0.011532 0.672643 0.159350
H54   H     H_    0.957481 0.054960 0.683042 0.160365

loop_
_geom_bond_atom_site_label_1
_geom_bond_atom_site_label_2
_ccdc_geom_bond_type
C15   C18   A    
C55   C56   A    
C91   C92   A    
C77   C78   A    
C27   C29   A    
C9    H10   S    
C1    O3    A    
C98   C99   A    
C20   C83   S    
C65   C66   A    
C4    C8    A    
C28   N6    A    
C10   H9    S    
C84   C85   A    
C72   C73   A    
C39   C41   A    
Cu1   O1    S    
Cu1   Cu2   S    
C21   C31   A    
C63   H23   S    
C80   H37   S    
C22   C32   A    
C3    C9    A    
C90   C91   A    
Cu1   O5    S    
C67   C68   A    
C3    C7    A    
C54   H15   S    
C66   H25   S    
C22   Cl4   S    
C43   C52   S    
C23   C49   S    
C99   C100  A    
C18   H14   S    
C61   H21   S    
C29   C33   A    
C57   H18   S    
C33   C36   A    
C18   C20   A    
C35   H5    S    
C34   C35   A    
C71   C76   A    
N1    N3    A    
C8    C89   S    
C24   O8    A    
C76   H34   S    
C52   N1    A    
C86   C87   A    
C17   C19   A    
C84   H40   S    
C11   C15   A    
C74   H32   S    
C24   O6    A    
C12   C16   A    
C16   C17   A    
C98   H52   S    
C65   C70   A    
C51   N2    A    
C32   C38   A    
C5    C13   A    
C60   H20   S    
Cu2   O3    S    
C67   H26   S    
C48   C50   A    
C62   H22   S    
C77   C82   A    
C41   Cl5   S    
C55   H16   S    
C41   C43   A    
C27   C59   S    
C97   H51   S    
C42   C44   A    
C66   C67   A    
C44   C46   A    
C60   C61   A    
C89   C90   A    
Cu2   O6    S    
C99   H53   S    
C45   C47   A    
C24   C50   S    
C79   H36   S    
C46   C48   A    
C17   H13   S    
C81   H38   S    
C70   H29   S    
C30   C34   A    
C1    O1    A    
C14   C20   A    
C79   C80   A    
C59   C64   A    
C87   C88   A    
C47   C49   A    
C96   C97   A    
C5    C7    A    
C13   C19   A    
C54   C55   A    
C83   C84   A    
C6    C8    A    
C53   C54   A    
C31   C37   A    
Cu1   O8    S    
C1    C3    S    
C2    C4    S    
C88   H44   S    
C83   C88   A    
C52   N4    A    
C6    C14   A    
Cu2   N5    S    
C43   C45   A    
C48   H8    S    
C93   C94   A    
C6    H12   S    
C59   C60   A    
C45   C65   S    
C33   C34   A    
C40   Cl2   S    
C94   H49   S    
C9    C11   A    
C21   Cl3   S    
C10   C12   A    
C92   H47   S    
Cu2   O2    S    
C44   C51   S    
C5    H11   S    
C97   C98   A    
C39   C49   A    
C7    C95   S    
C12   C14   A    
C90   H45   S    
C69   H28   S    
C74   C75   A    
C25   H4    S    
C4    C10   A    
C36   C38   A    
C57   C58   A    
C78   H35   S    
C2    O2    A    
C2    O4    A    
C69   C70   A    
C85   C86   A    
C100  H54   S    
C64   H24   S    
C21   C25   A    
C56   H17   S    
C23   O7    A    
C35   C37   A    
C89   C94   A    
C68   H27   S    
C80   C81   A    
C36   H6    S    
C58   H19   S    
C47   H7    S    
C53   C58   A    
C51   N3    A    
C68   C69   A    
C96   H50   S    
C19   C77   S    
C81   C82   A    
C78   C79   A    
C62   C63   A    
C82   H39   S    
C28   C30   A    
Cu1   O4    S    
C42   Cl6   S    
C39   Cl1   S    
C29   C31   A    
C30   C32   A    
C11   C13   A    
C72   H30   S    
C92   C93   A    
C95   C96   A    
C75   H33   S    
C75   C76   A    
C40   C50   A    
C40   C42   A    
C63   C64   A    
C26   N6    A    
C73   H31   S    
C86   H42   S    
C25   N5    A    
C26   H3    S    
C85   H41   S    
C37   H1    S    
C95   C100  A    
C38   H2    S    
C56   C57   A    
C61   C62   A    
C22   C26   A    
C28   C53   S    
C71   C72   A    
C93   H48   S    
C46   C71   S    
N2    N4    A    
C23   O5    A    
C87   H43   S    
C27   N5    A    
C91   H46   S    
Cu2   O7    S    
C15   C16   A    
C73   C74   A    
Cu1   N6    S    
