data_mof_unit_23387.cif
_audit_creation_date              2012-12-10T17:57:26-0500
_audit_creation_method            fapswitch 2.2
_symmetry_space_group_name_H-M    P1
_symmetry_Int_Tables_number       1
_space_group_crystal_system       triclinic
_cell_length_a                    9.521922
_cell_length_b                    10.83187
_cell_length_c                    13.357053
_cell_angle_alpha                 90.330183
_cell_angle_beta                  72.577636
_cell_angle_gamma                 90.136387
_cell_volume                      1314.42557805

loop_
_atom_site_label
_atom_site_type_symbol
_atom_type_description
_atom_site_fract_x
_atom_site_fract_y
_atom_site_fract_z
_atom_type_partial_charge
C1    C     C_R   0.500115 0.737924 0.500047 0.800373
C2    C     C_R   0.423434 0.469779 0.983889 0.035165
C3    C     C_R   0.459544 0.445065 0.874665 0.055569
C4    C     C_R   0.532571 0.444467 0.034654 0.063801
C5    C     C_R   0.656538 0.370002 0.983994 0.061574
C6    C     C_R   0.674424 0.328334 0.881601 -0.241969
C7    C     C_R   0.579401 0.366938 0.827342 -0.164991
C8    C     C_R   0.526889 0.498167 0.131342 -0.295054
C9    C     C_R   0.739593 0.380737 0.139806 0.143296
C10   C     C_R   0.372495 0.496196 0.816073 -0.166621
C11   C     C_R   0.629137 0.936463 0.496399 -0.176392
C12   C     C_R   0.421218 0.496737 0.700529 0.813587
C13   C     C_R   0.629058 0.064182 0.496291 -0.192454
C14   C     C_R   0.500017 0.128252 0.499683 -0.014665
C15   C     C_R   0.371130 0.063598 0.503033 -0.181561
C16   C     C_R   0.371183 0.935881 0.503219 -0.188313
C17   C     C_R   0.500179 0.871793 0.499940 -0.021238
C18   C     C_R   0.899111 0.578534 0.564442 0.287768
C19   C     C_R   0.048317 0.577990 0.564197 -0.082568
C20   C     C_R   0.100862 0.421361 0.436276 -0.028632
C21   C     C_R   0.952014 0.421049 0.436645 -0.080021
C22   C     C_R   0.499949 0.262085 0.499833 0.768522
C23   C     C_R   0.578698 0.492718 0.299764 0.810862
C24   C     C_R   0.760100 0.338947 0.037009 0.172436
C25   C     C_R   0.622165 0.461933 0.187197 -0.155752
C26   C     C_R   0.240804 0.556169 0.868154 -0.224576
C27   C     C_R   0.191805 0.562962 0.976925 0.220166
C28   C     C_R   0.279263 0.516726 0.036452 0.109286
Cu1   Cu    Cu3+1 0.359340 0.499980 0.500000 0.937111
Cu2   Cu    Cu3+1 0.640660 0.500020 0.500000 0.951743
H1    H     H_    0.270271 0.111412 0.505693 0.147882
H2    H     H_    0.083941 0.640176 0.615511 0.120397
H3    H     H_    0.917008 0.356908 0.386685 0.128175
H4    H     H_    0.447571 0.569049 0.165354 0.167876
H5    H     H_    0.599097 0.331292 0.748616 0.162702
N1    N     N_R   0.147940 0.499970 0.499970 -0.164617
N2    N     N_R   0.852060 0.500060 0.499990 -0.152452
O1    O     O_R   0.381250 0.680340 0.500010 -0.591095
O2    O     O_R   0.618820 0.680370 0.500010 -0.555267
O3    O     O_R   0.323240 0.499950 0.650980 -0.581673
O4    O     O_R   0.560810 0.499980 0.650980 -0.553062
O5    O     O_R   0.381180 0.319630 0.499990 -0.586735
O6    O     O_R   0.618750 0.319660 0.499990 -0.602489
O7    O     O_R   0.439190 0.500020 0.349020 -0.577101
O8    O     O_R   0.676760 0.500050 0.349020 -0.589259
N3    N     N_3   0.836802 0.335584 0.195066 -0.553413
H6    H     H_    0.774547 0.290408 0.262850 0.214449
H7    H     H_    0.892259 0.410230 0.215626 0.237517
H8    H     H_    0.729947 0.112455 0.493431 0.146879
H9    H     H_    0.270298 0.887624 0.506046 0.146899
N4    N     N_3   0.797185 0.661047 0.632976 -0.528953
H10   H     H_    0.795287 0.641574 0.709955 0.199521
H11   H     H_    0.836870 0.750993 0.615981 0.176626
H12   H     H_    0.178070 0.358172 0.385271 0.128752
H13   H     H_    0.764567 0.268613 0.840869 0.141553
N5    N     N_3   0.885582 0.262636 0.989111 -0.554864
H14   H     H_    0.849004 0.177345 0.969599 0.211540
H15   H     H_    0.949842 0.305747 0.920849 0.217450
H16   H     H_    0.173549 0.596353 0.824110 0.170172
N6    N     N_3   0.208400 0.499599 0.146797 -0.622110
H17   H     H_    0.254067 0.425943 0.176480 0.236218
H18   H     H_    0.212568 0.581631 0.187333 0.214448
N7    N     N_3   0.051104 0.617699 0.026252 -0.592225
H19   H     H_    0.065588 0.690284 0.074153 0.220619
H20   H     H_    0.983547 0.551585 0.073820 0.249320
H21   H     H_    0.730069 0.888682 0.493505 0.149865

loop_
_geom_bond_atom_site_label_1
_geom_bond_atom_site_label_2
_ccdc_geom_bond_type
Cu1   O1    S    
C12   O3    A    
C2    C4    A    
N7    H20   S    
Cu2   O4    S    
C15   H1    S    
C12   O4    A    
C23   O8    A    
Cu1   O5    S    
C24   N5    S    
C26   H16   S    
Cu2   O8    S    
C1    C17   S    
C22   O6    A    
C11   H21   S    
C6    H13   S    
C4    C8    A    
C10   C26   A    
C28   N6    S    
C2    C3    A    
C9    C25   A    
C9    N3    S    
C9    C24   A    
C3    C10   A    
C8    H4    S    
C13   C14   A    
C20   C21   A    
C8    C25   A    
C11   C13   A    
Cu1   N1    S    
C14   C22   S    
C26   C27   A    
Cu1   Cu2   S    
C5    C24   A    
C27   N7    S    
C1    O1    A    
C13   H8    S    
C19   H2    S    
C10   C12   S    
Cu1   O3    S    
C20   H12   S    
C18   N2    A    
N5    H15   S    
Cu2   O2    S    
C6    C7    A    
C3    C7    A    
C19   N1    A    
C23   C25   S    
Cu1   O7    S    
C5    C6    A    
N3    H7    S    
Cu2   O6    S    
C21   H3    S    
C15   C16   A    
C1    O2    A    
N4    H10   S    
C20   N1    A    
C4    C5    A    
C21   N2    A    
N5    H14   S    
N6    H18   S    
C18   C19   A    
C22   O5    A    
C27   C28   A    
C18   N4    S    
N3    H6    S    
C16   C17   A    
C2    C28   A    
C14   C15   A    
C7    H5    S    
C11   C17   A    
C23   O7    A    
N7    H19   S    
Cu2   N2    S    
C16   H9    S    
N6    H17   S    
N4    H11   S    
