data_mof_unit_23564.cif
_audit_creation_date              2012-12-10T17:44:29-0500
_audit_creation_method            fapswitch 2.2
_symmetry_space_group_name_H-M    P1
_symmetry_Int_Tables_number       1
_space_group_crystal_system       triclinic
_cell_length_a                    9.964646
_cell_length_b                    10.617412
_cell_length_c                    15.478268
_cell_angle_alpha                 92.667408
_cell_angle_beta                  67.674679
_cell_angle_gamma                 85.972799
_cell_volume                      1506.32696996

loop_
_atom_site_label
_atom_site_type_symbol
_atom_type_description
_atom_site_fract_x
_atom_site_fract_y
_atom_site_fract_z
_atom_type_partial_charge
C1    C     C_R   0.499974 0.739258 0.491244 0.928289
C2    C     C_R   0.423608 0.532577 0.910568 0.128177
C3    C     C_R   0.279297 0.584431 0.965514 0.145626
C4    C     C_R   0.533135 0.530766 0.948252 0.112538
C5    C     C_R   0.492682 0.568566 0.044500 0.074245
C6    C     C_R   0.348596 0.623717 0.096653 -0.112017
C7    C     C_R   0.244196 0.631341 0.057549 -0.189688
C8    C     C_R   0.682153 0.494497 0.892577 -0.155614
C9    C     C_R   0.784499 0.478591 0.932632 -0.249027
C10   C     C_R   0.741696 0.496628 0.029158 0.165054
C11   C     C_R   0.596522 0.545241 0.085709 0.092415
C12   C     C_R   0.409058 0.497655 0.675754 0.853787
C13   C     C_R   0.840980 0.461896 0.070314 -0.212134
C14   C     C_R   0.794733 0.466452 0.167385 -0.143452
C15   C     C_R   0.556597 0.557309 0.182758 -0.141518
C16   C     C_R   0.228062 0.920294 0.520165 -0.196559
C17   C     C_R   0.104811 0.008597 0.559878 0.484882
C18   C     C_R   0.110960 0.116056 0.613003 -0.241115
C19   C     C_R   0.244096 0.145332 0.613459 -0.205311
C20   C     C_R   0.372904 0.072874 0.553423 0.114914
C21   C     C_R   0.364238 0.950850 0.520179 -0.023827
C22   C     C_R   0.495944 0.872295 0.475994 -0.213283
C23   C     C_R   0.501169 0.260471 0.505846 0.910022
C24   C     C_R   0.628176 0.925997 0.432638 0.371163
C25   C     C_R   0.631607 0.053879 0.452305 -0.208115
C26   C     C_R   0.505580 0.126393 0.512800 -0.137525
C27   C     C_R   0.771425 0.655010 0.636452 -0.258737
C28   C     C_R   0.792283 0.724245 0.708853 0.461256
C29   C     C_R   0.934002 0.723057 0.709196 -0.008413
C30   C     C_R   0.049886 0.653705 0.635354 -0.235631
C31   C     C_R   0.027549 0.575229 0.567320 0.072281
C32   C     C_R   0.883705 0.575120 0.567620 0.123385
C33   C     C_R   0.968882 0.428173 0.436164 -0.102508
C34   C     C_R   0.591458 0.501743 0.324370 0.912633
C35   C     C_R   0.112084 0.426361 0.434551 0.467545
C36   C     C_R   0.352964 0.504855 0.777803 -0.017884
C37   C     C_R   0.650309 0.509723 0.223363 -0.035411
C38   C     C_R   0.172281 0.590163 0.926961 -0.210106
C39   C     C_R   0.209275 0.550392 0.833013 -0.232603
C40   C     C_R   0.453991 0.484694 0.818957 -0.172106
H1    H     H_    0.134982 0.673385 0.099937 0.194147
H2    H     H_    0.951723 0.424261 0.027576 0.156283
H3    H     H_    0.220464 0.837412 0.479637 0.214139
H4    H     H_    0.015380 0.182203 0.648019 0.177071
H5    H     H_    0.247776 0.233281 0.650550 0.157995
H6    H     H_    0.728493 0.099479 0.414492 0.220719
H7    H     H_    0.946187 0.372901 0.383651 0.189458
H8    H     H_    0.666833 0.670456 0.633417 0.247945
H9    H     H_    0.449636 0.596263 0.229423 0.175129
H10   H     H_    0.158058 0.662471 0.631733 0.217110
H11   H     H_    0.869773 0.432081 0.198399 0.175523
H12   H     H_    0.896380 0.446408 0.888146 0.143607
H13   H     H_    0.061770 0.629739 0.968392 0.158952
H14   H     H_    0.127933 0.559372 0.802771 0.146315
H15   H     H_    0.558403 0.435869 0.776118 0.145962
H16   H     H_    0.312764 0.663894 0.167818 0.177977
H17   H     H_    0.724099 0.478736 0.817363 0.137353
N1    N     N_R   0.856800 0.501200 0.500850 -0.128170
N2    N     N_R   0.142390 0.501280 0.500880 -0.177184
O1    O     O_R   0.385310 0.683220 0.500000 -0.654935
O2    O     O_R   0.614640 0.683250 0.500010 -0.590481
O3    O     O_R   0.319840 0.499980 0.632240 -0.662149
O4    O     O_R   0.549160 0.500000 0.632250 -0.625005
O5    O     O_R   0.385360 0.316750 0.499990 -0.548852
O6    O     O_R   0.614690 0.316780 0.500000 -0.608742
O7    O     O_R   0.450840 0.500000 0.367750 -0.553314
O8    O     O_R   0.680160 0.500020 0.367760 -0.594242
Zn1   Zn    Zn3+2 0.346880 0.499980 0.499990 0.992857
Zn2   Zn    Zn3+2 0.653120 0.500020 0.500010 1.009696
S1    S     S_3+6 0.773992 0.845418 0.334850 0.049746
O9    O     O_2   0.854704 0.742304 0.364276 -0.223404
O10   O     O_2   0.712764 0.786628 0.269256 -0.347555
O11   O     O_3   0.893287 0.946900 0.277384 -0.483209
H18   H     H_    0.844000 0.996394 0.243327 0.350523
S2    S     S_3+6 0.951894 0.997716 0.530851 0.022338
O12   O     O_2   0.817727 0.060415 0.608720 -0.320655
O13   O     O_2   0.976016 0.064635 0.443576 -0.222655
O14   O     O_3   0.930373 0.845994 0.510188 -0.543293
H19   H     H_    0.825171 0.846118 0.523228 0.396501
S3    S     S_3+6 0.637588 0.814597 0.793832 -0.012423
O15   O     O_2   0.632080 0.797114 0.890850 -0.334470
O16   O     O_2   0.645611 0.952282 0.776192 -0.271520
O17   O     O_3   0.483506 0.770069 0.786271 -0.595137
H20   H     H_    0.403420 0.820342 0.838232 0.389654
C41   C     C_3   0.966793 0.786633 0.788404 -0.409548
C42   C     C_3   0.935190 0.931700 0.800734 -0.220638
C43   C     C_3   0.048930 0.996209 0.826346 -0.900732
H21   H     H_    0.051354 0.962916 0.892776 0.277603
H22   H     H_    0.158710 0.974769 0.769752 0.277104
H23   H     H_    0.021067 0.100411 0.835697 0.257459
H24   H     H_    0.931487 0.968557 0.736029 0.256412
H25   H     H_    0.827638 0.958713 0.858152 0.281586
H26   H     H_    0.904733 0.745393 0.855040 0.225404
H27   H     H_    0.083487 0.763263 0.775566 0.200835
S4    S     S_3+6 0.242175 0.334739 0.333660 0.056315
O18   O     O_2   0.168925 0.228124 0.308254 -0.259214
O19   O     O_2   0.283416 0.419152 0.254317 -0.351273
O20   O     O_3   0.394613 0.268682 0.341140 -0.524798
H28   H     H_    0.457611 0.235297 0.276411 0.368245

loop_
_geom_bond_atom_site_label_1
_geom_bond_atom_site_label_2
_ccdc_geom_bond_type
C27   H8    S    
O7    Zn1   S    
C43   H21   S    
C16   C21   A    
C34   C37   S    
O11   H18   S    
C19   C20   A    
C32   N1    A    
C4    C8    A    
C34   O7    A    
S4    O20   S    
C24   S1    S    
C31   C32   A    
C41   C42   S    
C33   N1    A    
O17   H20   S    
O5    Zn1   S    
C28   C29   A    
C5    C11   A    
C3    C7    A    
C42   H24   S    
C5    C6    A    
C8    H17   S    
C39   H14   S    
C35   N2    A    
C18   C19   A    
C23   C26   S    
C31   N2    A    
C15   C37   A    
C41   H26   S    
O4    Zn2   S    
C3    C38   A    
C8    C9    A    
S1    O9    D    
C12   C36   S    
C9    C10   A    
C29   C41   S    
C7    H1    S    
C30   H10   S    
C1    C22   S    
C21   C22   A    
C9    H12   S    
C11   C15   A    
S3    O17   S    
C13   H2    S    
C36   C40   A    
C24   C25   A    
S3    O16   D    
C1    O1    A    
C12   O4    A    
C42   C43   S    
C16   C17   A    
C25   C26   A    
O8    Zn2   S    
C2    C4    A    
S2    O12   D    
C29   C30   A    
C18   H4    S    
N2    Zn1   S    
C12   O3    A    
C41   H27   S    
C14   H11   S    
C30   C31   A    
C40   H15   S    
S1    O11   S    
C19   H5    S    
C17   C18   A    
S2    O13   D    
C16   H3    S    
C23   O5    A    
C43   H22   S    
C33   H7    S    
C22   C24   A    
O2    Zn2   S    
C27   C32   A    
O14   H19   S    
C36   C39   A    
C6    H16   S    
S3    O15   D    
C10   C13   A    
C1    O2    A    
C34   O8    A    
S4    O19   D    
N1    Zn2   S    
C6    C7    A    
C35   S4    S    
O3    Zn1   S    
C23   O6    A    
C2    C3    A    
S4    O18   D    
C42   H25   S    
C14   C37   A    
C38   C39   A    
C38   H13   S    
C20   C26   A    
O6    Zn2   S    
C33   C35   A    
C15   H9    S    
C28   S3    S    
S2    O14   S    
C10   C11   A    
C2    C40   A    
C4    C5    A    
C20   C21   A    
O1    Zn1   S    
O20   H28   S    
C43   H23   S    
C27   C28   A    
C17   S2    S    
S1    O10   D    
C13   C14   A    
C25   H6    S    
