data_mof_unit_33671.cif
_audit_creation_date              2012-12-10T17:08:41-0500
_audit_creation_method            fapswitch 2.2
_symmetry_space_group_name_H-M    P1
_symmetry_Int_Tables_number       1
_space_group_crystal_system       triclinic
_cell_length_a                    15.734896
_cell_length_b                    10.902311
_cell_length_c                    10.063423
_cell_angle_alpha                 89.439294
_cell_angle_beta                  91.191166
_cell_angle_gamma                 89.149135
_cell_volume                      1725.69593712

loop_
_atom_site_label
_atom_site_type_symbol
_atom_type_description
_atom_site_fract_x
_atom_site_fract_y
_atom_site_fract_z
_atom_type_partial_charge
C1    C     C_R   0.497251 0.263715 0.500067 0.932323
C2    C     C_3   0.954801 0.473310 0.638951 -0.498080
C3    C     C_3   0.917238 0.519540 0.504045 0.170420
C4    C     C_3   0.942544 0.657024 0.480065 -0.196885
C5    C     C_3   0.044828 0.678426 0.488259 -0.036074
C6    C     C_1   0.825550 0.507682 0.506085 -0.043314
C7    C     C_1   0.175364 0.530506 0.497526 -0.117603
C8    C     C_1   0.250409 0.517619 0.496154 -0.220287
C9    C     C_2   0.502008 0.939355 0.390671 -0.033877
C10   C     C_2   0.515940 0.867796 0.500373 -0.206421
C11   C     C_2   0.513833 0.070530 0.395529 -0.225766
C12   C     C_R   0.338597 0.502826 0.498737 0.912650
C13   C     C_2   0.485709 0.134734 0.498100 -0.319626
C14   C     C_2   0.552478 0.563513 0.926099 -0.124524
C15   C     C_2   0.555753 0.557450 0.075978 -0.103812
C16   C     C_R   0.502091 0.737269 0.499449 0.874633
C17   C     C_R   0.661584 0.498775 0.501316 0.903129
C18   C     C_3   0.054309 0.466788 0.635850 0.054574
C19   C     C_3   0.048297 0.464990 0.373316 -0.201838
C20   C     C_3   0.953132 0.434696 0.393079 -0.223812
C21   C     C_1   0.750398 0.501766 0.504641 -0.174574
C22   C     C_3   0.083639 0.537486 0.501707 0.127705
H1    H     H_    0.927995 0.381737 0.663485 0.166681
H2    H     H_    0.928256 0.530639 0.715984 0.166827
H3    H     H_    0.924154 0.664699 0.375475 0.125354
H4    H     H_    0.542976 0.115106 0.311040 0.175549
H5    H     H_    0.451619 0.093248 0.579314 0.161307
H6    H     H_    0.597608 0.622525 0.877726 0.167472
H7    H     H_    0.461559 0.440110 0.897223 0.153918
H8    H     H_    0.606844 0.605460 0.126225 0.166059
H9    H     H_    0.449883 0.461669 0.100960 0.150716
H10   H     H_    0.049334 0.530901 0.289403 0.141974
H11   H     H_    0.949141 0.342440 0.438102 0.141961
N1    N     N_2   0.500900 0.501330 0.852150 -0.196940
N2    N     N_2   0.500920 0.501360 0.147810 -0.195092
O1    O     O_R   0.499990 0.319060 0.613040 -0.616461
O2    O     O_R   0.500010 0.319100 0.386900 -0.615680
O3    O     O_R   0.377130 0.499990 0.613120 -0.622522
O4    O     O_R   0.377160 0.500030 0.386980 -0.618117
O5    O     O_R   0.499990 0.680900 0.613100 -0.603205
O6    O     O_R   0.500010 0.680940 0.386960 -0.606102
O7    O     O_R   0.622840 0.499970 0.613020 -0.613909
O8    O     O_R   0.622870 0.500010 0.386880 -0.608754
Zn1   Zn    Zn3+2 0.499980 0.499970 0.650990 0.946789
Zn2   Zn    Zn3+2 0.500020 0.500030 0.349010 0.947201
C23   C     C_R   0.100780 0.504893 0.768025 0.099984
C24   C     C_R   0.060863 0.564449 0.875349 -0.126124
C25   C     C_R   0.107905 0.602222 0.986312 -0.119537
C26   C     C_R   0.195476 0.583295 0.993996 -0.140119
C27   C     C_R   0.235116 0.514066 0.897979 -0.142209
C28   C     C_R   0.188156 0.471806 0.789365 -0.144773
H12   H     H_    0.994184 0.583431 0.879269 0.103750
H13   H     H_    0.075872 0.646033 0.066843 0.151717
H14   H     H_    0.232300 0.617810 0.077013 0.141230
H15   H     H_    0.302274 0.492274 0.907921 0.130727
H16   H     H_    0.221332 0.413310 0.721213 0.156480
C29   C     C_1   0.473023 0.893441 0.263017 0.201535
N3    N     N_1   0.449890 0.857254 0.160937 -0.221680
C30   C     C_1   0.550539 0.914892 0.624867 0.190875
N4    N     N_1   0.576846 0.951600 0.724838 -0.225966
C31   C     C_1   0.077695 0.334774 0.627723 0.135777
N5    N     N_1   0.098876 0.232943 0.625508 -0.239153
C32   C     C_R   0.103083 0.357203 0.320731 0.151130
C33   C     C_R   0.084234 0.231692 0.338396 -0.109229
C34   C     C_R   0.141520 0.140599 0.300062 -0.130660
C35   C     C_R   0.215134 0.170994 0.233289 -0.129459
C36   C     C_R   0.231971 0.293572 0.205960 -0.110576
C37   C     C_R   0.176562 0.385321 0.249324 -0.127071
H17   H     H_    0.028416 0.200201 0.387458 0.115404
H18   H     H_    0.128874 0.046372 0.325166 0.173766
H19   H     H_    0.259204 0.099791 0.203368 0.134749
H20   H     H_    0.288975 0.317938 0.154035 0.129153
H21   H     H_    0.192918 0.479715 0.232818 0.134829
C38   C     C_R   0.900262 0.428791 0.262620 0.154262
C39   C     C_R   0.899397 0.522656 0.164669 -0.152449
C40   C     C_R   0.848018 0.514102 0.050171 -0.154219
C41   C     C_R   0.797240 0.411881 0.030507 -0.107478
C42   C     C_R   0.797880 0.317591 0.125191 -0.119512
C43   C     C_R   0.848937 0.325648 0.240021 -0.150449
H22   H     H_    0.938315 0.602573 0.173833 0.104468
H23   H     H_    0.847635 0.587036 0.976354 0.118988
H24   H     H_    0.757494 0.405689 0.941789 0.132124
H25   H     H_    0.758490 0.238193 0.109923 0.124032
H26   H     H_    0.847430 0.251463 0.312258 0.105603
C44   C     C_R   0.071092 0.772096 0.598079 0.112246
C45   C     C_R   0.032708 0.890796 0.595879 -0.131644
C46   C     C_R   0.049193 0.975202 0.695608 -0.116560
C47   C     C_R   0.115586 0.953827 0.786200 -0.121084
C48   C     C_R   0.164906 0.847395 0.776451 -0.128058
C49   C     C_R   0.143887 0.758844 0.682132 -0.146102
H27   H     H_    0.987094 0.917795 0.518987 0.141532
H28   H     H_    0.010994 0.058132 0.700617 0.148173
H29   H     H_    0.130760 0.022219 0.859746 0.130581
H30   H     H_    0.220126 0.833604 0.841108 0.141149
H31   H     H_    0.187879 0.684167 0.673949 0.155684
C50   C     C_R   0.078456 0.746077 0.360385 0.090929
C51   C     C_R   0.024889 0.809833 0.266020 -0.229536
C52   C     C_R   0.058276 0.870960 0.156336 -0.152998
C53   C     C_R   0.145777 0.874763 0.139785 -0.122913
C54   C     C_R   0.200078 0.823905 0.236438 -0.191822
C55   C     C_R   0.167049 0.764435 0.346705 -0.126571
H32   H     H_    0.957358 0.820017 0.276432 0.120163
H33   H     H_    0.016096 0.917231 0.085095 0.138421
H34   H     H_    0.171933 0.923587 0.056828 0.128555
H35   H     H_    0.268076 0.834370 0.228478 0.151132
H36   H     H_    0.211961 0.740231 0.424777 0.138823
C56   C     C_R   0.882087 0.749058 0.548065 0.137352
C57   C     C_R   0.822844 0.818197 0.469525 -0.195917
C58   C     C_R   0.771027 0.907653 0.526541 -0.137528
C59   C     C_R   0.776385 0.928566 0.662895 -0.097494
C60   C     C_R   0.831189 0.857209 0.743178 -0.161413
C61   C     C_R   0.883078 0.767636 0.686733 -0.121279
H37   H     H_    0.817374 0.804593 0.363318 0.117230
H38   H     H_    0.727361 0.961811 0.464604 0.135576
H39   H     H_    0.738614 0.000782 0.706400 0.144451
H40   H     H_    0.835497 0.873844 0.848962 0.124499
H41   H     H_    0.929255 0.722418 0.750645 0.120535

loop_
_geom_bond_atom_site_label_1
_geom_bond_atom_site_label_2
_ccdc_geom_bond_type
C46   C47   A    
C2    C18   S    
C56   C61   A    
C19   C20   S    
C3    C6    S    
C4    H3    S    
C7    C8    T    
C41   C42   A    
C54   H35   S    
C28   H16   S    
C45   H27   S    
C61   H41   S    
C34   H18   S    
C57   C58   A    
C36   H20   S    
C23   C24   A    
C48   H30   S    
C59   C60   A    
C17   O7    A    
C42   H25   S    
C5    C22   S    
C35   H19   S    
C19   C32   S    
C56   C57   A    
C60   H40   S    
C9    C10   D    
C51   H32   S    
C1    O2    A    
O4    Zn2   S    
C5    C44   S    
C35   C36   A    
C30   N4    T    
C26   H14   S    
C18   C22   S    
C46   H28   S    
O7    Zn1   S    
C19   H10   S    
C18   C23   S    
C15   N2    D    
C51   C52   A    
C25   H13   S    
C4    C56   S    
C38   C39   A    
C36   C37   A    
C24   C25   A    
C49   H31   S    
C19   C22   S    
N1    Zn1   S    
C40   C41   A    
C42   C43   A    
C11   H4    S    
C37   H21   S    
C44   C45   A    
C6    C21   T    
C23   C28   A    
C17   C21   S    
C57   H37   S    
C39   C40   A    
C17   O8    A    
O3    Zn1   S    
C9    C11   S    
C53   C54   A    
C8    C12   S    
C50   C51   A    
C27   C28   A    
C20   C38   S    
C3    C20   S    
C33   H17   S    
O8    Zn2   S    
C58   H38   S    
C16   O5    A    
C20   H11   S    
C25   C26   A    
C26   C27   A    
C38   C43   A    
C2    H2    S    
H9    N2    S    
O1    Zn1   S    
C1    C13   S    
O2    Zn2   S    
C3    C4    S    
N2    Zn2   S    
C5    C50   S    
C15   H8    S    
C39   H22   S    
C55   H36   S    
C47   H29   S    
C53   H34   S    
C60   C61   A    
C45   C46   A    
C4    C5    S    
C40   H23   S    
C14   N1    D    
C44   C49   A    
C18   C31   S    
C24   H12   S    
C7    C22   S    
C32   C37   A    
C27   H15   S    
C33   C34   A    
C12   O4    A    
C2    C3    S    
C10   C16   S    
C58   C59   A    
C11   C13   D    
C29   N3    T    
C43   H26   S    
C41   H24   S    
H7    N1    S    
C54   C55   A    
C10   C30   S    
C9    C29   S    
C34   C35   A    
C12   O3    A    
C31   N5    T    
C32   C33   A    
O5    Zn1   S    
C47   C48   A    
C52   C53   A    
C2    H1    S    
O6    Zn2   S    
C14   C15   S    
C13   H5    S    
C14   H6    S    
C48   C49   A    
C50   C55   A    
C59   H39   S    
C52   H33   S    
C1    O1    A    
C16   O6    A    
