data_mof_unit_11997.cif
_audit_creation_date              2012-12-11T15:14:47-0500
_audit_creation_method            fapswitch 2.2
_symmetry_space_group_name_H-M    P1
_symmetry_Int_Tables_number       1
_space_group_crystal_system       triclinic
_cell_length_a                    22.198928
_cell_length_b                    7.347581
_cell_length_c                    19.388043
_cell_angle_alpha                 90.000258
_cell_angle_beta                  98.661455
_cell_angle_gamma                 89.998172
_cell_volume                      3126.28778708

loop_
_atom_site_label
_atom_site_type_symbol
_atom_type_description
_atom_site_fract_x
_atom_site_fract_y
_atom_site_fract_z
_atom_type_partial_charge
O1    O     O_R   0.448470 0.506130 0.415700 -0.527757
O2    O     O_R   0.551530 0.006130 0.584300 -0.527443
O3    O     O_R   0.436320 0.174490 0.555800 -0.532328
O4    O     O_R   0.563680 0.674490 0.444200 -0.532215
C1    C     C_R   0.422117 0.342432 0.575908 0.687573
C2    C     C_R   0.577906 0.842435 0.424124 0.687849
O5    O     O_R   0.441350 0.176340 0.414480 -0.533876
O6    O     O_R   0.558650 0.676340 0.585520 -0.533982
O7    O     O_R   0.556600 0.007100 0.441970 -0.512314
O8    O     O_R   0.443400 0.507100 0.558030 -0.512396
C3    C     C_R   0.423985 0.346739 0.392217 0.728014
C4    C     C_R   0.576004 0.846729 0.607775 0.724800
O9    O     O_3   0.537810 0.339550 0.509190 -0.367872
O10   O     O_3   0.462190 0.839550 0.490810 -0.367904
V1    V     V_3+5 0.492990 0.064280 0.498300 1.594049
V2    V     V_3+5 0.507010 0.564280 0.501700 1.593853
C5    C     C_R   0.869683 0.862872 0.698718 0.416906
C6    C     C_R   0.129615 0.366881 0.301730 0.415879
C7    C     C_R   0.886269 0.932220 0.822530 -0.171852
C8    C     C_R   0.113642 0.432312 0.177557 -0.176470
C9    C     C_R   0.595179 0.810928 0.734305 -0.262743
C10   C     C_R   0.404151 0.310770 0.265510 -0.281331
C11   C     C_R   0.625830 0.847029 0.801119 0.369339
C12   C     C_R   0.373002 0.347236 0.198922 0.360372
C13   C     C_R   0.683934 0.930738 0.809366 0.209463
C14   C     C_R   0.315285 0.432103 0.191364 0.313225
C15   C     C_R   0.716377 0.932613 0.751084 -0.033113
C16   C     C_R   0.283128 0.432927 0.249647 -0.059656
C17   C     C_R   0.681195 0.926084 0.682465 -0.041875
C18   C     C_R   0.318461 0.426212 0.318101 -0.049264
C19   C     C_R   0.782022 0.933930 0.757182 0.046690
C20   C     C_R   0.217590 0.433806 0.243420 0.053816
C21   C     C_R   0.808560 0.921449 0.695350 -0.139556
C22   C     C_R   0.190919 0.423770 0.305179 -0.139322
C23   C     C_R   0.774638 0.981701 0.632770 0.256338
C24   C     C_R   0.225020 0.483745 0.367742 0.256842
C25   C     C_R   0.710623 0.987853 0.626400 0.057378
C26   C     C_R   0.289109 0.488325 0.374191 0.062443
C27   C     C_R   0.822777 0.935720 0.821071 -0.129496
C28   C     C_R   0.177176 0.432370 0.179273 -0.123436
C29   C     C_R   0.909520 0.880813 0.761955 0.078830
C30   C     C_R   0.090009 0.384503 0.238292 0.081491
C31   C     C_R   0.619073 0.862661 0.674667 -0.113218
C32   C     C_R   0.380648 0.362786 0.325492 -0.110819
H1    H     H_    0.807200 0.937443 0.870468 0.163086
H2    H     H_    0.193262 0.427950 0.130015 0.180977
H3    H     H_    0.549653 0.754013 0.728495 0.165245
H4    H     H_    0.449508 0.252782 0.270788 0.168357
C33   C     C_3   0.771531 0.802121 0.295368 0.288427
C34   C     C_3   0.228344 0.302539 0.704237 0.286728
C35   C     C_3   0.788723 0.996289 0.275145 0.099393
C36   C     C_3   0.211135 0.496712 0.724412 0.102305
C37   C     C_1   0.871050 0.953266 0.116052 -0.078508
C38   C     C_1   0.128741 0.453383 0.883695 -0.102228
C39   C     C_1   0.622300 0.840994 0.376219 -0.028993
C40   C     C_1   0.377732 0.340999 0.623831 -0.028881
C41   C     C_3   0.764501 0.742336 0.217748 0.320523
C42   C     C_3   0.235053 0.242615 0.781811 0.323144
C43   C     C_3   0.782080 0.936720 0.197493 -0.307491
C44   C     C_3   0.217527 0.437075 0.802041 -0.303928
C45   C     C_3   0.695961 0.798523 0.207073 0.169492
C46   C     C_3   0.303645 0.298420 0.792823 0.170339
C47   C     C_3   0.703216 0.856790 0.284972 -0.374851
C48   C     C_3   0.296693 0.356827 0.714943 -0.377074
C49   C     C_3   0.713792 0.991721 0.186429 0.250308
C50   C     C_3   0.285840 0.491750 0.813370 0.253246
C51   C     C_3   0.720326 0.050014 0.264006 0.353400
C52   C     C_3   0.279560 0.550093 0.735823 0.355077
C53   C     C_1   0.830197 0.956102 0.151669 0.307990
C54   C     C_1   0.169473 0.456388 0.847926 0.293640
C55   C     C_1   0.658853 0.838592 0.335357 0.215186
C56   C     C_1   0.341157 0.338611 0.664671 0.215674
O11   O     O_R   0.056650 0.288730 0.942060 -0.535186
O12   O     O_R   0.943350 0.788730 0.057940 -0.538346
O13   O     O_R   0.058660 0.616870 0.085540 -0.527787
O14   O     O_R   0.941340 0.116870 0.914460 -0.524720
C57   C     C_R   0.072611 0.447609 0.110273 0.724133
C58   C     C_R   0.927466 0.947646 0.889679 0.729967
O15   O     O_R   0.063700 0.618520 0.944220 -0.528963
O16   O     O_R   0.936300 0.118520 0.055780 -0.523857
O17   O     O_R   0.948460 0.787610 0.915680 -0.532778
O18   O     O_R   0.051540 0.287610 0.084320 -0.531098
C59   C     C_R   0.079692 0.451761 0.925971 0.688765
C60   C     C_R   0.920255 0.951745 0.073970 0.694680
O19   O     O_3   0.962230 0.453430 0.990860 -0.374862
O20   O     O_3   0.037770 0.953430 0.009140 -0.376581
V3    V     V_3+5 0.007010 0.728750 0.001700 1.555852
V4    V     V_3+5 0.992990 0.228750 0.998300 1.574619
I1    I     I_    0.004261 0.822375 0.767478 -0.113813
I2    I     I_    0.995111 0.329152 0.232625 -0.113970
S1    S     S_3+6 0.815007 0.695366 0.369981 0.132913
O21   O     O_2   0.818283 0.823387 0.430702 -0.280597
O22   O     O_2   0.787122 0.520076 0.388957 -0.272249
O23   O     O_3   0.885821 0.655055 0.352896 -0.430540
H5    H     H_    0.908438 0.607396 0.397153 0.402033
S2    S     S_3+6 0.185235 0.196182 0.629320 0.132815
O24   O     O_2   0.182827 0.324021 0.568647 -0.281008
O25   O     O_2   0.212961 0.020223 0.610786 -0.272047
O26   O     O_3   0.114063 0.157412 0.645504 -0.429940
H6    H     H_    0.091726 0.110052 0.601046 0.401445
S3    S     S_3+6 0.683941 0.228040 0.305034 0.138670
O27   O     O_2   0.615987 0.209655 0.286392 -0.325339
O28   O     O_2   0.701325 0.210259 0.382685 -0.294846
O29   O     O_3   0.704447 0.432175 0.281502 -0.410231
H7    H     H_    0.685511 0.511652 0.313063 0.379389
S4    S     S_3+6 0.316065 0.728150 0.694979 0.139073
O30   O     O_2   0.384002 0.709777 0.713819 -0.325916
O31   O     O_2   0.298854 0.710468 0.617308 -0.295037
O32   O     O_3   0.295453 0.932215 0.718466 -0.410013
H8    H     H_    0.314491 0.011765 0.687022 0.379143
S5    S     S_3+6 0.676603 0.110521 0.111076 0.272638
O33   O     O_2   0.718964 0.245393 0.085814 -0.190192
O34   O     O_2   0.657263 0.976509 0.053577 -0.191522
O35   O     O_3   0.614749 0.218066 0.131037 -0.414505
H9    H     H_    0.589500 0.244937 0.085579 0.431681
S6    S     S_3+6 0.322935 0.610996 0.888649 0.249064
O36   O     O_2   0.280881 0.748398 0.912914 -0.220726
O37   O     O_2   0.341254 0.477680 0.946679 -0.193176
O38   O     O_3   0.385460 0.715621 0.869114 -0.412699
H10   H     H_    0.410048 0.744932 0.914726 0.434050
S7    S     S_3+6 0.629498 0.685670 0.161682 0.239382
O39   O     O_2   0.645454 0.595626 0.097304 -0.157103
O40   O     O_2   0.604715 0.546152 0.206350 -0.268904
O41   O     O_3   0.573937 0.838530 0.138202 -0.395051
H11   H     H_    0.565490 0.891131 0.182802 0.349387
S8    S     S_3+6 0.369804 0.185152 0.838738 0.243071
O42   O     O_2   0.353337 0.095321 0.902907 -0.153564
O43   O     O_2   0.394803 0.045370 0.794356 -0.269051
O44   O     O_3   0.425402 0.337547 0.862688 -0.391945
H12   H     H_    0.434533 0.388974 0.818189 0.352095
S9    S     S_3+6 0.800784 0.559312 0.178579 0.152826
O45   O     O_2   0.784615 0.376538 0.203952 -0.251812
O46   O     O_2   0.782322 0.569287 0.100804 -0.278533
O47   O     O_3   0.876509 0.586770 0.197820 -0.476358
H13   H     H_    0.892381 0.562593 0.153622 0.348564
S10   S     S_3+6 0.198105 0.059655 0.820245 0.153506
O48   O     O_2   0.214560 0.876899 0.795125 -0.252001
O49   O     O_2   0.215611 0.069245 0.898157 -0.275422
O50   O     O_3   0.122460 0.087465 0.799732 -0.473787
H14   H     H_    0.106001 0.065559 0.843718 0.348371
I3    I     I_    0.823323 0.120934 0.559982 0.024538
I4    I     I_    0.176645 0.624733 0.440391 0.023072
S11   S     S_3+6 0.891052 0.722951 0.631258 0.102521
O51   O     O_2   0.936565 0.821493 0.594805 -0.258458
O52   O     O_2   0.919565 0.550684 0.662840 -0.298201
O53   O     O_3   0.829821 0.666346 0.573118 -0.467379
H15   H     H_    0.845172 0.577065 0.541661 0.413967
S12   S     S_3+6 0.107741 0.228212 0.369249 0.102461
O54   O     O_2   0.062654 0.328589 0.405743 -0.258996
O55   O     O_2   0.078545 0.056746 0.337756 -0.298395
O56   O     O_3   0.168810 0.169786 0.427300 -0.466336
H16   H     H_    0.153308 0.079623 0.458306 0.413338
S13   S     S_3+6 0.702639 0.089500 0.879344 0.156075
O57   O     O_2   0.745183 0.232579 0.859209 -0.308186
O58   O     O_2   0.645848 0.183292 0.894152 -0.184302
O59   O     O_3   0.735700 0.986151 0.952996 -0.423186
H17   H     H_    0.739468 0.856115 0.941066 0.347403
S14   S     S_3+6 0.296344 0.590944 0.121715 0.129759
O60   O     O_2   0.253269 0.732767 0.141777 -0.336691
O61   O     O_2   0.352766 0.685888 0.106353 -0.194776
O62   O     O_3   0.263811 0.481752 0.049275 -0.444794
H18   H     H_    0.236807 0.572767 0.022559 0.377883
S15   S     S_3+6 0.588587 0.785238 0.872505 0.214716
O63   O     O_2   0.634084 0.728390 0.933971 -0.202393
O64   O     O_2   0.552136 0.943189 0.893186 -0.216729
O65   O     O_3   0.541190 0.609370 0.849786 -0.444742
H19   H     H_    0.501968 0.665424 0.829329 0.368555
S16   S     S_3+6 0.407829 0.281123 0.126358 0.236552
O66   O     O_2   0.360144 0.225690 0.066701 -0.167246
O67   O     O_2   0.444326 0.436394 0.103616 -0.218138
O68   O     O_3   0.454532 0.103096 0.148012 -0.444183
H20   H     H_    0.494269 0.157437 0.167620 0.364880
I5    I     I_    0.666482 0.157857 0.546068 -0.173554
I6    I     I_    0.333584 0.657314 0.454575 -0.173062
I7    I     I_    0.862479 0.152586 0.329830 0.136652
I8    I     I_    0.137481 0.652796 0.669345 0.139821

loop_
_geom_bond_atom_site_label_1
_geom_bond_atom_site_label_2
_ccdc_geom_bond_type
C42   C46   S    
S11   O53   S    
C29   I1    S    
O68   H20   S    
S8    O42   D    
C33   C47   S    
C15   C17   A    
C34   C48   S    
C1    C40   S    
C50   C52   S    
S5    O33   D    
O1    C3    A    
S12   O56   S    
C2    C39   S    
O16   C60   A    
S9    O47   S    
O2    C4    A    
C2    O7    A    
O15   V3    S    
O35   H9    S    
S9    O46   D    
O5    C3    A    
S3    O27   D    
C50   S6    S    
C8    C57   S    
C37   C60   S    
C48   C52   S    
O59   H17   S    
S15   O64   D    
C12   C14   A    
O44   H12   S    
C4    C31   S    
C6    S12   S    
C6    C30   A    
C8    C28   A    
C26   I6    S    
S4    O30   D    
C42   C44   S    
S11   O51   D    
S2    O26   S    
C33   C41   S    
S6    O36   D    
C18   C26   A    
C45   S7    S    
C45   C47   S    
C24   I4    S    
C49   S5    S    
S7    O41   S    
C46   C48   S    
C36   C44   S    
S14   O62   S    
C9    C31   A    
S16   O68   S    
C10   C32   A    
S15   O63   D    
C19   C27   A    
C33   C35   S    
S2    O25   D    
C34   C36   S    
O56   H16   S    
C19   C21   A    
O12   V3    S    
S13   O58   D    
O14   V4    S    
C36   C52   S    
C27   H1    S    
S16   O67   D    
C44   C50   S    
O6    V2    S    
C17   C31   A    
S14   O61   D    
C18   C32   A    
C5    C21   A    
C33   S1    S    
S10   O50   S    
C38   C59   S    
O62   H18   S    
C11   S15   S    
O50   H14   S    
C47   C51   S    
C46   C50   S    
C15   C19   A    
C34   C42   S    
C16   C20   A    
S15   O65   S    
S12   O54   D    
C12   S16   S    
S10   O49   D    
O12   C60   A    
S1    O21   D    
C46   S8    S    
O20   V3    S    
S8    O44   S    
C49   C51   S    
C37   C53   T    
C13   S13   S    
C30   I2    S    
C20   C22   A    
O4    V2    S    
C40   C56   T    
C28   H2    S    
O11   V4    S    
C52   S4    S    
S1    O22   D    
O13   C57   A    
O26   H6    S    
C38   C54   T    
C44   C54   S    
O6    C4    A    
S2    O24   D    
C3    C32   S    
S5    O34   D    
O1    V2    S    
C35   C51   S    
S13   O59   S    
C35   I7    S    
O2    V1    S    
C6    C22   A    
S7    O39   D    
O17   V3    S    
C7    C27   A    
C23   I3    S    
S12   O55   D    
O13   V3    S    
S16   O66   D    
C43   C53   S    
C10   H4    S    
S3    O29   S    
C9    C11   A    
S14   O60   D    
C10   C12   A    
O4    C2    A    
C35   C43   S    
S9    O45   D    
C20   C28   A    
O3    V1    S    
C51   S3    S    
O53   H15   S    
O19   V4    S    
S11   O52   D    
C36   I8    S    
S8    O43   D    
C23   C25   A    
C41   S9    S    
O14   C58   A    
S10   O48   D    
O3    C1    A    
O29   H7    S    
C8    C30   A    
O38   H10   S    
C41   C45   S    
O47   H13   S    
C13   C15   A    
C14   C16   A    
S6    O38   S    
C5    S11   S    
C7    C58   S    
C42   S10   S    
C16   C18   A    
O7    V1    S    
C1    O8    A    
O16   V4    S    
O8    V2    S    
O32   H8    S    
C43   C49   S    
S1    O23   S    
O15   C59   A    
C58   O17   A    
C34   S2    S    
O65   H19   S    
S4    O31   D    
C57   O18   A    
O18   V4    S    
O5    V1    S    
C21   C23   A    
S6    O37   D    
C14   S14   S    
S5    O35   S    
C22   C24   A    
C48   C56   S    
O23   H5    S    
C5    C29   A    
S7    O40   D    
C41   C43   S    
C24   C26   A    
C25   I5    S    
C45   C49   S    
C11   C13   A    
S3    O28   D    
O9    V2    S    
C17   C25   A    
O10   V1    S    
S13   O57   D    
C47   C55   S    
O11   C59   A    
C39   C55   T    
C7    C29   A    
O41   H11   S    
C9    H3    S    
S4    O32   S    
