data_mof_unit_34030.cif
_audit_creation_date              2012-12-10T18:42:41-0500
_audit_creation_method            fapswitch 2.2
_symmetry_space_group_name_H-M    P1
_symmetry_Int_Tables_number       1
_space_group_crystal_system       triclinic
_cell_length_a                    10.840352
_cell_length_b                    15.103859
_cell_length_c                    13.881408
_cell_angle_alpha                 90.238571
_cell_angle_beta                  90.092947
_cell_angle_gamma                 90.76132
_cell_volume                      2272.59533

loop_
_atom_site_label
_atom_site_type_symbol
_atom_type_description
_atom_site_fract_x
_atom_site_fract_y
_atom_site_fract_z
_atom_type_partial_charge
C1    C     C_R   0.504524 0.329775 0.499385 0.878600
C2    C     C_R   0.506745 0.669978 0.500148 0.897540
C3    C     C_R   0.871401 0.496337 0.501362 -0.034537
C4    C     C_R   0.128219 0.505901 0.499068 -0.038404
C5    C     C_R   0.938640 0.470438 0.583582 0.091149
C6    C     C_R   0.060597 0.532912 0.417417 0.070145
C7    C     C_R   0.482153 0.092435 0.576761 -0.122229
C8    C     C_R   0.462931 0.905411 0.427370 -0.111108
C9    C     C_R   0.474804 0.184046 0.576741 -0.190714
C10   C     C_R   0.456927 0.813689 0.428737 -0.206640
C11   C     C_R   0.515483 0.233002 0.497114 -0.153569
C12   C     C_R   0.519402 0.766489 0.499720 -0.196029
C13   C     C_R   0.566884 0.188395 0.416861 0.337578
C14   C     C_R   0.594988 0.812140 0.566915 0.298434
C15   C     C_R   0.574581 0.095949 0.417284 0.378055
C16   C     C_R   0.600579 0.904857 0.566249 0.397012
C17   C     C_R   0.530223 0.048089 0.496999 -0.046604
C18   C     C_R   0.532069 0.951380 0.496951 -0.062651
C19   C     C_R   0.586084 0.551298 0.108329 -0.364934
C20   C     C_R   0.454432 0.429079 0.893714 -0.337262
C21   C     C_R   0.583458 0.552349 0.210547 0.677287
C22   C     C_R   0.451878 0.429565 0.792285 0.670254
C23   C     C_R   0.262257 0.503519 0.499661 0.802967
C24   C     C_R   0.737647 0.497632 0.500388 0.857482
C25   C     C_R   0.415709 0.450055 0.209093 0.061152
C26   C     C_R   0.545464 0.571577 0.790872 0.022373
C27   C     C_R   0.412460 0.450873 0.107913 -0.270663
C28   C     C_R   0.544626 0.574569 0.892372 -0.283271
C29   C     C_R   0.498619 0.501914 0.055188 0.106110
C30   C     C_R   0.499016 0.502258 0.946090 0.073187
C31   C     C_R   0.184798 0.705700 0.243623 0.358418
C32   C     C_R   0.765420 0.320373 0.758424 0.411145
C33   C     C_R   0.148584 0.665280 0.330539 0.324816
C34   C     C_R   0.823388 0.350204 0.673665 0.326292
C35   C     C_R   0.116422 0.574376 0.331130 -0.004865
C36   C     C_R   0.880070 0.434950 0.672145 -0.013544
C37   C     C_R   0.120364 0.525548 0.245009 -0.212439
C38   C     C_R   0.880632 0.487384 0.755894 -0.183837
C39   C     C_R   0.157443 0.566006 0.159442 -0.219472
C40   C     C_R   0.823888 0.456859 0.839806 -0.220276
C41   C     C_R   0.190050 0.655619 0.158802 -0.214029
C42   C     C_R   0.766071 0.373819 0.840960 -0.220677
C43   C     C_R   0.933041 0.526449 0.419338 -0.197779
C44   C     C_R   0.066087 0.477382 0.581812 -0.227345
Cu1   Cu    Cu3+1 0.500000 0.499990 0.596430 1.014216
Cu2   Cu    Cu3+1 0.500000 0.500010 0.403570 1.024950
H1    H     H_    0.217269 0.686557 0.091774 0.183822
H2    H     H_    0.721554 0.351023 0.906237 0.191087
H3    H     H_    0.657928 0.587296 0.070843 0.135986
H4    H     H_    0.423521 0.370033 0.930648 0.157446
H5    H     H_    0.349468 0.409880 0.248125 0.145285
H6    H     H_    0.582368 0.627352 0.752173 0.213648
H7    H     H_    0.341329 0.412313 0.071818 0.135649
H8    H     H_    0.578963 0.633799 0.927958 0.161212
H9    H     H_    0.092633 0.456383 0.243962 0.164179
H10   H     H_    0.923995 0.552413 0.755747 0.179211
H11   H     H_    0.159439 0.528049 0.093180 0.163435
H12   H     H_    0.823865 0.497939 0.903894 0.170262
H13   H     H_    0.881509 0.547973 0.356980 0.188403
H14   H     H_    0.116574 0.458913 0.645478 0.137706
H15   H     H_    0.448199 0.055811 0.638440 0.191020
H16   H     H_    0.411142 0.940831 0.373325 0.220068
H17   H     H_    0.435472 0.216450 0.638742 0.222221
H18   H     H_    0.401668 0.779255 0.375200 0.230066
N1    N     N_R   0.500000 0.500020 0.258690 -0.201229
N2    N     N_R   0.500000 0.499980 0.741310 -0.222247
O1    O     O_R   0.500010 0.371450 0.581430 -0.535063
O2    O     O_R   0.499990 0.628550 0.418570 -0.583096
O3    O     O_R   0.500010 0.371460 0.418560 -0.550221
O4    O     O_R   0.499990 0.628540 0.581440 -0.558925
O5    O     O_R   0.319640 0.500000 0.581430 -0.597719
O6    O     O_R   0.680360 0.500000 0.418570 -0.532761
O7    O     O_R   0.319640 0.500010 0.418560 -0.599738
O8    O     O_R   0.680360 0.499990 0.581440 -0.579184
O9    O     O_3   0.621067 0.052543 0.337426 -0.576897
C45   C     C_3   0.749087 0.039705 0.349939 0.078989
H19   H     H_    0.763419 0.976130 0.388134 0.118551
H20   H     H_    0.795231 0.094474 0.391415 0.168447
C46   C     C_3   0.810411 0.034711 0.251136 -0.311198
H21   H     H_    0.767759 0.979837 0.208647 0.225692
H22   H     H_    0.794974 0.097552 0.211783 0.264508
C47   C     C_3   0.949034 0.019913 0.260240 -0.845324
H23   H     H_    0.993943 0.077161 0.297331 0.264693
H24   H     H_    0.990015 0.012966 0.187390 0.276282
H25   H     H_    0.967444 0.958757 0.301728 0.280451
O10   O     O_3   0.666619 0.949018 0.637709 -0.562183
C48   C     C_3   0.781483 0.978024 0.600624 0.097651
H26   H     H_    0.768665 0.039337 0.558125 0.153407
H27   H     H_    0.825472 0.926515 0.554604 0.143893
C49   C     C_3   0.868628 0.999399 0.684393 -0.244728
H28   H     H_    0.824775 0.047898 0.733505 0.273209
H29   H     H_    0.886441 0.937953 0.725666 0.239048
C50   C     C_3   0.991046 0.038082 0.648765 -0.888260
H30   H     H_    0.037491 0.990285 0.600289 0.270894
H31   H     H_    0.052435 0.052311 0.711197 0.259348
H32   H     H_    0.975497 0.100828 0.609354 0.288040
O11   O     O_3   0.672308 0.597725 0.264076 -0.600330
C51   C     C_3   0.692562 0.685776 0.232681 0.015026
H33   H     H_    0.681943 0.729827 0.296391 0.186889
H34   H     H_    0.624980 0.709330 0.178097 0.131433
C52   C     C_3   0.824868 0.695749 0.195309 -0.358425
H35   H     H_    0.890367 0.674029 0.251748 0.239612
H36   H     H_    0.838080 0.653336 0.130750 0.213067
C53   C     C_3   0.855215 0.791501 0.169698 -0.838522
H37   H     H_    0.790581 0.815779 0.113856 0.251911
H38   H     H_    0.950791 0.796340 0.141415 0.286351
H39   H     H_    0.848545 0.833517 0.235133 0.263340
O12   O     O_3   0.409095 0.354665 0.745266 -0.587827
C54   C     C_3   0.278627 0.350103 0.747494 0.026808
H40   H     H_    0.233781 0.409668 0.779397 0.114097
H41   H     H_    0.246580 0.343694 0.671765 0.171839
C55   C     C_3   0.235533 0.267316 0.801683 -0.367406
H42   H     H_    0.279247 0.207831 0.769916 0.234752
H43   H     H_    0.263582 0.272410 0.878470 0.220871
C56   C     C_3   0.095482 0.256031 0.796206 -0.867885
H44   H     H_    0.049592 0.314253 0.828759 0.258968
H45   H     H_    0.066580 0.195812 0.836312 0.268692
H46   H     H_    0.065257 0.248643 0.720051 0.274393
Cl1   Cl    Cl    0.217134 0.819990 0.237365 -0.639529
Cl2   Cl    Cl    0.691097 0.216368 0.763457 -0.593867
Cl3   Cl    Cl    0.136216 0.729360 0.436646 -0.605245
Cl4   Cl    Cl    0.827073 0.281035 0.570889 -0.651739
Cl5   Cl    Cl    0.628806 0.244882 0.316031 -0.564680
Cl6   Cl    Cl    0.693006 0.755652 0.646606 -0.633922

loop_
_geom_bond_atom_site_label_1
_geom_bond_atom_site_label_2
_ccdc_geom_bond_type
C15   O9    S    
C48   H26   S    
C50   H30   S    
C32   Cl2   S    
C27   C29   A    
C1    C11   S    
C45   C46   S    
C2    C12   S    
C53   H38   S    
O11   C51   S    
C39   C41   A    
C20   C30   A    
Cu1   Cu2   S    
C6    C35   S    
C3    C43   A    
C52   H35   S    
C35   C37   A    
C45   H20   S    
C2    O2    A    
C54   H41   S    
C13   Cl5   S    
Cu1   O5    S    
C56   H44   S    
C39   H11   S    
C5    C36   S    
O12   C54   S    
C7    C9    A    
C55   H42   S    
Cu2   O3    S    
C20   H4    S    
C33   C35   A    
C22   N2    A    
C56   H45   S    
Cu1   O1    S    
C31   C33   A    
Cu2   O6    S    
C43   H13   S    
C40   C42   A    
C50   H31   S    
C33   Cl3   S    
C3    C24   S    
C23   O7    A    
C55   H43   S    
C53   H37   S    
C40   H12   S    
C14   Cl6   S    
C26   N2    A    
C23   O5    A    
C25   N1    A    
C45   H19   S    
Cu2   N1    S    
C4    C6    A    
C54   C55   S    
C46   H22   S    
C4    C23   S    
C28   H8    S    
O10   C48   S    
C4    C44   A    
C7    C17   A    
C1    O3    A    
Cu1   O8    S    
C32   C34   A    
O9    C45   S    
C25   H5    S    
Cu2   O2    S    
C29   C30   S    
C26   H6    S    
C21   O11   S    
C19   H3    S    
C49   H29   S    
C56   H46   S    
C17   C18   S    
C41   H1    S    
C16   C18   A    
C42   H2    S    
C44   H14   S    
C9    C11   A    
C31   Cl1   S    
C53   H39   S    
C10   C12   A    
C8    C10   A    
C5    C44   A    
C12   C14   A    
C51   H33   S    
C50   H32   S    
C47   H24   S    
C6    C43   A    
C13   C15   A    
C14   C16   A    
C25   C27   A    
C36   C38   A    
C19   C29   A    
C24   O6    A    
C49   C50   S    
C52   H36   S    
C15   C17   A    
C31   C41   A    
C21   N1    A    
Cu1   O4    S    
C9    H17   S    
C10   H18   S    
C20   C22   A    
C3    C5    A    
C46   C47   S    
C27   H7    S    
C52   C53   S    
C47   H25   S    
C26   C28   A    
C51   C52   S    
C48   H27   S    
C37   C39   A    
C54   H40   S    
C38   C40   A    
C11   C13   A    
C24   O8    A    
C49   H28   S    
C16   O10   S    
C22   O12   S    
C28   C30   A    
C1    O1    A    
C34   C36   A    
C55   C56   S    
C51   H34   S    
C8    C18   A    
C46   H21   S    
C37   H9    S    
C38   H10   S    
C34   Cl4   S    
C47   H23   S    
C48   C49   S    
Cu1   N2    S    
C32   C42   A    
C2    O4    A    
Cu2   O7    S    
C7    H15   S    
C8    H16   S    
C19   C21   A    
