data_mof_unit_8244.cif
_audit_creation_date              2012-10-26T19:20:17-0400
_audit_creation_method            fapswitch 2.2
_symmetry_space_group_name_H-M    P1
_symmetry_Int_Tables_number       1
_space_group_crystal_system       triclinic
_cell_length_a                    15.876121
_cell_length_b                    10.935073
_cell_length_c                    9.750404
_cell_angle_alpha                 87.685368
_cell_angle_beta                  89.181487
_cell_angle_gamma                 90.630574
_cell_volume                      1691.06661119

loop_
_atom_site_label
_atom_site_type_symbol
_atom_type_description
_atom_site_fract_x
_atom_site_fract_y
_atom_site_fract_z
_atom_type_partial_charge
C1    C     C_R   0.492582 0.266058 0.503279 0.546807
C2    C     C_2   0.511546 0.865459 0.486554 -0.008394
C3    C     C_2   0.474476 0.069538 0.403036 -0.123630
C4    C     C_R   0.340060 0.499321 0.500847 0.534719
C5    C     C_2   0.468572 0.137157 0.514581 0.206154
C6    C     C_2   0.503574 0.401558 0.926521 0.048894
C7    C     C_2   0.486250 0.403936 0.078995 0.051879
C8    C     C_R   0.500708 0.734305 0.496848 0.526918
C9    C     C_R   0.659921 0.500155 0.499130 0.553384
C10   C     C_3   0.970173 0.420472 0.593197 0.227746
C11   C     C_3   0.028291 0.388827 0.470901 -0.164979
C12   C     C_3   0.083562 0.501971 0.501216 -0.067768
C13   C     C_1   0.250514 0.500106 0.502469 0.095968
C14   C     C_1   0.749448 0.500615 0.497085 0.089314
C15   C     C_3   0.026064 0.531886 0.623550 0.217469
C16   C     C_1   0.945105 0.438078 0.239742 0.301643
C17   C     C_1   0.586942 0.913236 0.548863 0.238664
C18   C     C_3   0.972313 0.613475 0.527125 0.196769
C19   C     C_3   0.916481 0.501757 0.497094 -0.069719
C20   C     C_3   0.030191 0.583707 0.404803 0.207644
C21   C     C_3   0.974304 0.472039 0.375243 -0.092098
C22   C     C_1   0.175097 0.501014 0.502507 0.101765
C23   C     C_1   0.824868 0.501082 0.496289 0.085564
C24   C     C_2   0.459665 0.937608 0.410232 0.183986
Cu1   Cu    Cu3+1 0.500020 0.500020 0.638630 1.124349
Cu2   Cu    Cu3+1 0.499980 0.499980 0.361370 1.156057
H1    H     H_    0.051750 0.296396 0.448337 0.198881
H2    H     H_    0.013120 0.867003 0.691115 0.389807
H3    H     H_    0.003223 0.612538 0.980883 0.398970
H4    H     H_    0.331983 0.756967 0.495739 0.327223
H5    H     H_    0.519358 0.314969 0.882937 0.174206
H6    H     H_    0.462511 0.566795 0.884483 0.279458
H7    H     H_    0.463135 0.319704 0.129252 0.111824
H8    H     H_    0.494647 0.110102 0.304270 0.129636
H9    H     H_    0.353889 0.163009 0.838669 0.382299
H10   H     H_    0.654998 0.749519 0.165747 0.370866
H11   H     H_    0.980372 0.186542 0.870446 0.385082
H12   H     H_    0.019907 0.816821 0.126562 0.387613
N1    N     N_2   0.499090 0.498660 0.846910 -0.289124
N2    N     N_2   0.499070 0.498630 0.153040 -0.065019
N3    N     N_1   0.921959 0.410950 0.133073 -0.141721
N4    N     N_1   0.647224 0.951048 0.598282 -0.151209
O1    O     O_R   0.500010 0.321960 0.617040 -0.465423
O2    O     O_2   0.494792 0.051398 0.772387 -0.263015
O3    O     O_3   0.365007 0.190965 0.742156 -0.490270
O4    O     O_2   0.631948 0.567445 0.990152 -0.237501
O5    O     O_2   0.518404 0.716053 0.019010 -0.231582
O6    O     O_3   0.623076 0.681301 0.212820 -0.460855
O7    O     O_2   0.873574 0.373337 0.817720 -0.196969
O8    O     O_2   0.876854 0.217157 0.643864 -0.233558
O9    O     O_3   0.007961 0.240014 0.798261 -0.440536
O10   O     O_2   0.123285 0.786648 0.348697 -0.133743
O11   O     O_2   0.127052 0.626477 0.179541 -0.242059
O12   O     O_R   0.499990 0.321920 0.382900 -0.562264
O13   O     O_3   0.992349 0.759523 0.194884 -0.472213
O14   O     O_2   0.882024 0.808454 0.442960 -0.183577
O15   O     O_2   0.875137 0.750156 0.687678 -0.217129
O16   O     O_3   0.011955 0.858552 0.590418 -0.401758
O17   O     O_2   0.109654 0.464955 0.851721 -0.199909
O18   O     O_2   0.120385 0.680654 0.773489 -0.228036
O19   O     O_3   0.979573 0.603542 0.888534 -0.430146
O20   O     O_2   0.324764 0.991111 0.257670 -0.192889
O21   O     O_2   0.389159 0.793192 0.222607 -0.188170
O22   O     O_3   0.299582 0.819880 0.444451 -0.399465
O23   O     O_R   0.379090 0.500010 0.617050 -0.489870
O24   O     O_R   0.379060 0.499970 0.382910 -0.489281
O25   O     O_R   0.500010 0.678080 0.617100 -0.479676
O26   O     O_R   0.499990 0.678040 0.382960 -0.424094
O27   O     O_R   0.620940 0.500030 0.617090 -0.465487
O28   O     O_R   0.620910 0.499990 0.382950 -0.449892
O29   O     O_2   0.370275 0.968998 0.660520 -0.210435
S1    S     S_3+6 0.424482 0.081009 0.675391 0.061401
S2    S     S_3+6 0.568017 0.615850 0.089018 0.163109
S3    S     S_3+6 0.928393 0.310168 0.716227 0.103865
S4    S     S_3+6 0.072024 0.691684 0.279041 0.104316
S5    S     S_3+6 0.931960 0.760792 0.562998 0.141559
S6    S     S_3+6 0.062638 0.571005 0.788382 0.116470
S7    S     S_3+6 0.367499 0.884468 0.328219 0.131186

loop_
_geom_bond_atom_site_label_1
_geom_bond_atom_site_label_2
_ccdc_geom_bond_type
C15   C18   S    
C16   C21   S    
O14   S5    D    
H4    O22   S    
Cu1   O25   S    
O9    S3    S    
C1    O12   A    
O10   S4    D    
O17   S6    D    
O16   S5    S    
C1    C5    S    
O15   S5    D    
C19   C21   S    
C9    O27   A    
C5    S1    S    
C10   C15   S    
O8    S3    D    
C4    O23   A    
H11   O9    S    
C12   C22   S    
N2    S2    S    
C18   C19   S    
H6    N1    S    
C4    C13   S    
C17   N4    T    
C1    O1    A    
H12   O13   S    
O19   S6    S    
C7    N2    D    
H10   O6    S    
O13   S4    S    
C6    H5    S    
C2    C17   S    
C7    H7    S    
Cu1   O1    S    
C3    C24   S    
O11   S4    D    
Cu2   O12   S    
H3    O19   S    
O18   S6    D    
Cu2   O24   S    
Cu1   O23   S    
C9    O28   A    
O5    S2    D    
C3    H8    S    
Cu1   Cu2   S    
C11   C21   S    
C20   S4    S    
C14   C23   T    
C19   C23   S    
C9    C14   S    
C12   C15   S    
C11   H1    S    
C10   C19   S    
C12   C20   S    
C24   S7    S    
C8    O26   A    
C2    C24   D    
Cu2   O28   S    
Cu1   O27   S    
H9    O3    S    
C18   S5    S    
C6    N1    D    
O22   S7    S    
O6    S2    S    
O20   S7    D    
C2    C8    S    
C3    C5    D    
C11   C12   S    
C6    C7    S    
H2    O16   S    
Cu2   O26   S    
O29   S1    D    
Cu1   N1    S    
C4    O24   A    
C10   S3    S    
Cu2   N2    S    
C15   S6    S    
C13   C22   T    
O2    S1    D    
C18   C20   S    
C10   C11   S    
C20   C21   S    
C8    O25   A    
O7    S3    D    
C16   N3    T    
O4    S2    D    
O3    S1    S    
O21   S7    D    
