data_mof_unit_48257.cif
_audit_creation_date              2012-12-10T18:16:24-0500
_audit_creation_method            fapswitch 2.2
_symmetry_space_group_name_H-M    P1
_symmetry_Int_Tables_number       1
_space_group_crystal_system       triclinic
_cell_length_a                    12.593665
_cell_length_b                    13.125831
_cell_length_c                    27.735424
_cell_angle_alpha                 90.726982
_cell_angle_beta                  103.065562
_cell_angle_gamma                 82.23225
_cell_volume                      4424.30220791

loop_
_atom_site_label
_atom_site_type_symbol
_atom_type_description
_atom_site_fract_x
_atom_site_fract_y
_atom_site_fract_z
_atom_type_partial_charge
C1    C     C_R   0.438688 0.691354 0.496046 0.860324
C2    C     C_R   0.415666 0.478220 0.714011 -0.153960
C3    C     C_R   0.510338 0.498191 0.748064 0.334001
C4    C     C_R   0.504666 0.489045 0.898556 -0.091067
C5    C     C_R   0.468460 0.581168 0.870382 -0.012108
C6    C     C_R   0.429351 0.670477 0.892265 -0.134242
C7    C     C_R   0.544470 0.398494 0.875999 -0.045505
C8    C     C_R   0.504200 0.500565 0.646922 -0.080632
C9    C     C_R   0.496985 0.496392 0.353226 -0.041472
C10   C     C_R   0.445240 0.575117 0.020238 0.043460
C11   C     C_R   0.546438 0.399453 0.029868 0.055952
C12   C     C_R   0.501174 0.500385 0.593896 0.874062
C13   C     C_R   0.494650 0.487049 0.050177 0.075204
C14   C     C_R   0.386898 0.657177 0.041199 -0.217653
C15   C     C_R   0.383417 0.655280 0.090787 -0.136079
C16   C     C_R   0.437505 0.571483 0.121201 -0.021521
C17   C     C_R   0.492771 0.486839 0.101031 -0.054600
C18   C     C_R   0.546674 0.402263 0.131862 -0.020793
C19   C     C_R   0.545166 0.404338 0.182147 0.502719
C20   C     C_R   0.437796 0.570239 0.171641 0.504701
C21   C     C_R   0.591026 0.502208 0.286487 -0.104553
C22   C     C_R   0.592877 0.505690 0.336742 -0.218477
C23   C     C_R   0.561253 0.308735 0.506107 0.866504
C24   C     C_R   0.399468 0.483308 0.318753 -0.216703
C25   C     C_R   0.397895 0.480006 0.268512 -0.101761
C26   C     C_R   0.493588 0.489508 0.252409 0.320165
C27   C     C_R   0.455313 0.578246 0.970482 0.057028
C28   C     C_R   0.500706 0.488203 0.949250 0.071230
C29   C     C_R   0.542103 0.397686 0.978324 -0.001544
C30   C     C_R   0.422885 0.669275 0.941340 -0.218682
C31   C     C_R   0.578816 0.306165 0.904756 0.194959
C32   C     C_R   0.602448 0.317013 0.062162 -0.218078
C33   C     C_R   0.602082 0.318441 0.112137 -0.138019
C34   C     C_R   0.498969 0.499301 0.406129 0.866273
C35   C     C_R   0.576584 0.307434 0.954883 -0.207202
C36   C     C_R   0.703074 0.066745 0.573782 -0.182463
C37   C     C_R   0.597720 0.200359 0.516876 -0.056244
C38   C     C_R   0.299338 0.836972 0.460346 -0.182617
C39   C     C_R   0.271284 0.941250 0.449152 -0.136852
C40   C     C_R   0.345382 0.009241 0.468137 -0.182182
C41   C     C_R   0.447302 0.973918 0.500992 0.089344
C42   C     C_R   0.467029 0.871102 0.518087 0.094286
C43   C     C_R   0.530320 0.036996 0.517541 0.083363
C44   C     C_R   0.622732 0.002417 0.556274 0.172127
C45   C     C_R   0.472400 0.582450 0.820609 0.501850
C46   C     C_R   0.632097 0.905259 0.577647 -0.240276
C47   C     C_R   0.554984 0.840328 0.558864 -0.203175
C48   C     C_R   0.524467 0.133369 0.496130 -0.245229
C49   C     C_R   0.689471 0.166614 0.554724 -0.189771
C50   C     C_R   0.398905 0.801095 0.493410 -0.116556
C51   C     C_R   0.087440 0.345433 0.431948 -0.300912
C52   C     C_R   0.800288 0.629791 0.558717 -0.032253
C53   C     C_R   0.904851 0.659475 0.570411 -0.020917
C54   C     C_R   0.986003 0.610654 0.547910 -0.238346
C55   C     C_R   0.962613 0.531361 0.513725 -0.004273
C56   C     C_R   0.546415 0.404650 0.825291 0.511892
C57   C     C_R   0.854545 0.504383 0.503116 0.228889
C58   C     C_R   0.041703 0.477881 0.489767 -0.001223
C59   C     C_R   0.011037 0.399082 0.455878 0.191552
C60   C     C_R   0.904633 0.374027 0.446355 -0.284521
C61   C     C_R   0.827878 0.425664 0.469800 -0.205465
C62   C     C_R   0.150845 0.498679 0.498072 -0.050223
C63   C     C_R   0.193765 0.369756 0.441839 0.009883
C64   C     C_R   0.603151 0.520293 0.731848 0.239789
C65   C     C_R   0.599163 0.521253 0.681139 -0.228481
C66   C     C_R   0.412362 0.479418 0.663721 -0.209934
H1    H     H_    0.338078 0.463375 0.638110 0.172067
H2    H     H_    0.650627 0.251304 0.050343 0.143849
H3    H     H_    0.324467 0.475848 0.330501 0.163895
H4    H     H_    0.646133 0.253463 0.135344 0.189968
H5    H     H_    0.322519 0.470134 0.242036 0.141127
H6    H     H_    0.599246 0.234966 0.974781 0.144332
H7    H     H_    0.746611 0.218760 0.571299 0.162922
H8    H     H_    0.699789 0.878876 0.608435 0.158528
H9    H     H_    0.773386 0.041441 0.603594 0.153731
H10   H     H_    0.344587 0.461421 0.726751 0.145702
H11   H     H_    0.460077 0.160643 0.464466 0.140573
H12   H     H_    0.245048 0.784081 0.441830 0.161323
H13   H     H_    0.319546 0.089066 0.457477 0.130579
H14   H     H_    0.193966 0.968967 0.423943 0.146163
H15   H     H_    0.563829 0.766113 0.576922 0.154751
H16   H     H_    0.254258 0.328794 0.423909 0.127177
H17   H     H_    0.880564 0.313751 0.420737 0.162295
H18   H     H_    0.065242 0.285124 0.406065 0.146370
H19   H     H_    0.182118 0.556421 0.523184 0.128951
H20   H     H_    0.736768 0.666386 0.576087 0.132267
H21   H     H_    0.403237 0.742307 0.871458 0.190348
H22   H     H_    0.065914 0.636007 0.557863 0.145169
H23   H     H_    0.748172 0.401817 0.461236 0.213407
H24   H     H_    0.669238 0.515411 0.362554 0.169593
H25   H     H_    0.664998 0.509833 0.273902 0.140801
H26   H     H_    0.338311 0.720276 0.105225 0.190101
H27   H     H_    0.340664 0.723304 0.019961 0.144815
H28   H     H_    0.394846 0.742089 0.955742 0.143723
H29   H     H_    0.670529 0.538039 0.668568 0.168463
N1    N     N_R   0.510715 0.495266 0.799453 -0.356504
N2    N     N_R   0.491592 0.487681 0.200841 -0.356664
N3    N     N_R   0.222180 0.444690 0.474320 -0.102320
N4    N     N_R   0.776980 0.554780 0.525420 -0.134240
O1    O     O_R   0.366730 0.627160 0.487740 -0.616134
O2    O     O_2   0.386014 0.651253 0.191584 -0.558876
O3    O     O_2   0.583391 0.321973 0.801451 -0.561129
O4    O     O_2   0.596405 0.323804 0.212178 -0.562963
O5    O     O_R   0.544830 0.662520 0.504140 -0.607314
O6    O     O_R   0.410970 0.482310 0.563040 -0.617115
O7    O     O_R   0.589070 0.517670 0.579450 -0.631255
O8    O     O_R   0.455170 0.337480 0.495860 -0.610091
O9    O     O_R   0.633270 0.372840 0.512260 -0.637892
O10   O     O_R   0.410930 0.482330 0.420550 -0.620834
O11   O     O_R   0.589030 0.517690 0.436960 -0.632490
O12   O     O_2   0.438031 0.670054 0.793260 -0.555739
Zn1   Zn    Zn3+2 0.381080 0.476390 0.489050 0.946619
Zn2   Zn    Zn3+2 0.618920 0.523610 0.510950 0.935627
C67   C     C_3   0.706678 0.542804 0.767191 -0.868559
H30   H     H_    0.724102 0.620574 0.758865 0.242130
H31   H     H_    0.700830 0.540546 0.806443 0.242137
H32   H     H_    0.776719 0.485145 0.762719 0.243603
C68   C     C_3   0.617851 0.204350 0.883976 -0.771734
H33   H     H_    0.638970 0.141049 0.912136 0.202847
H34   H     H_    0.551906 0.181562 0.853623 0.265833
H35   H     H_    0.693499 0.210032 0.870547 0.266668
C69   C     C_1   0.928609 0.740171 0.605254 0.144583
N5    N     N_1   0.947645 0.805060 0.633229 -0.204180

loop_
_geom_bond_atom_site_label_1
_geom_bond_atom_site_label_2
_ccdc_geom_bond_type
C10   C27   A    
C58   C62   A    
C54   H22   S    
C21   C26   A    
C8    C66   A    
O8    Zn1   S    
C54   C55   A    
C67   H30   S    
C19   N2    A    
C53   C54   A    
C28   C29   A    
C63   N3    A    
C53   C69   S    
C21   H25   S    
C5    C6    A    
C60   H17   S    
C9    C22   A    
C15   C16   A    
C57   N4    A    
C18   C19   A    
C41   C42   A    
C68   H33   S    
C15   H26   S    
C62   N3    A    
C19   O4    S    
C20   N2    A    
C44   C46   A    
C16   C17   A    
C3    N1    S    
C25   H5    S    
C1    C50   S    
C14   H27   S    
C16   C20   A    
C32   H2    S    
C66   H1    S    
C59   C60   A    
C21   C22   A    
C27   C30   A    
C41   C43   A    
C7    C56   A    
C4    C7    A    
C1    O1    A    
C4    C28   A    
C61   H23   S    
C24   H3    S    
C38   C39   A    
C62   H19   S    
C7    C31   A    
O7    Zn2   S    
C51   C63   A    
C24   C25   A    
C10   C14   A    
O10   Zn1   S    
C39   C40   A    
C20   O2    S    
C38   H12   S    
C58   C59   A    
C23   C37   S    
C5    C45   A    
C6    H21   S    
C60   C61   A    
C68   H35   S    
O9    Zn2   S    
C43   C44   A    
C31   C68   S    
C36   H9    S    
C37   C49   A    
C1    O5    A    
C65   H29   S    
C8    C12   S    
C23   O8    A    
C48   H11   S    
C17   C18   A    
C22   H24   S    
C40   H13   S    
C37   C48   A    
O11   Zn2   S    
C33   H4    S    
C42   C50   A    
C40   C41   A    
C6    C30   A    
O6    Zn1   S    
C35   H6    S    
O1    Zn1   S    
C55   C57   A    
C9    C34   S    
C34   O11   A    
C31   C35   A    
C36   C44   A    
C51   C59   A    
C46   H8    S    
C2    H10   S    
C52   C53   A    
C43   C48   A    
C56   N1    A    
C46   C47   A    
C4    C5    A    
C2    C66   A    
C10   C13   A    
N4    Zn2   S    
C67   H31   S    
C45   O12   S    
C9    C24   A    
C57   C61   A    
C38   C50   A    
C29   C35   A    
C52   N4    A    
C13   C17   A    
C39   H14   S    
N3    Zn1   S    
C52   H20   S    
C2    C3    A    
C25   C26   A    
C56   O3    S    
C30   H28   S    
C32   C33   A    
C12   O7    A    
C11   C13   A    
C12   O6    A    
C23   O9    A    
C64   C65   A    
C49   H7    S    
C42   C47   A    
C47   H15   S    
C3    C64   A    
C18   C33   A    
C68   H34   S    
C67   H32   S    
C36   C49   A    
C26   N2    S    
O5    Zn2   S    
C8    C65   A    
C11   C29   A    
C64   C67   S    
C55   C58   A    
C27   C28   A    
C34   O10   A    
C14   C15   A    
C69   N5    T    
C45   N1    A    
C51   H18   S    
C63   H16   S    
C11   C32   A    
