data_mof_unit_6025.cif
_audit_creation_date              2012-12-10T18:19:59-0500
_audit_creation_method            fapswitch 2.2
_symmetry_space_group_name_H-M    P1
_symmetry_Int_Tables_number       1
_space_group_crystal_system       triclinic
_cell_length_a                    10.765372
_cell_length_b                    10.796347
_cell_length_c                    9.596947
_cell_angle_alpha                 91.931809
_cell_angle_beta                  89.080939
_cell_angle_gamma                 88.431976
_cell_volume                      1114.2093862

loop_
_atom_site_label
_atom_site_type_symbol
_atom_type_description
_atom_site_fract_x
_atom_site_fract_y
_atom_site_fract_z
_atom_type_partial_charge
C1    C     C_R   0.510483 0.260097 0.497493 0.857995
C2    C     C_R   0.489514 0.739903 0.502507 0.857993
C3    C     C_3   0.421315 0.977895 0.607285 0.059777
C4    C     C_3   0.578679 0.022105 0.392716 0.059775
C5    C     C_3   0.578835 0.577522 0.050566 0.097002
C6    C     C_3   0.421165 0.422478 0.949434 0.096996
C7    C     C_3   0.470998 0.608195 0.954470 0.093287
C8    C     C_3   0.529002 0.391805 0.045530 0.093281
C9    C     C_3   0.607223 0.468600 0.947882 0.599461
C10   C     C_3   0.392777 0.531400 0.052117 0.599468
C11   C     C_R   0.260883 0.489070 0.500690 0.844731
C12   C     C_R   0.739117 0.510931 0.499310 0.844736
C13   C     C_3   0.032053 0.435640 0.611892 0.159106
C14   C     C_3   0.967947 0.564363 0.388109 0.159103
C15   C     C_3   0.949616 0.390083 0.491900 0.148447
C16   C     C_3   0.050385 0.609920 0.508102 0.148442
C17   C     C_3   0.876522 0.514609 0.497247 -0.116903
C18   C     C_3   0.123478 0.485394 0.502754 -0.116901
C19   C     C_3   0.959103 0.560569 0.617108 0.161468
C20   C     C_3   0.040897 0.439434 0.382893 0.161469
C21   C     C_3   0.546266 0.043270 0.620176 0.051777
C22   C     C_3   0.453728 0.956730 0.379824 0.051781
C23   C     C_3   0.608346 0.944228 0.520656 0.508709
C24   C     C_3   0.391648 0.055771 0.479345 0.508706
C25   C     C_3   0.484716 0.877609 0.507091 -0.214314
C26   C     C_3   0.515278 0.122390 0.492910 -0.214315
Cu1   Cu    Cu3+1 0.500030 0.499990 0.643150 0.980091
Cu2   Cu    Cu3+1 0.499970 0.500010 0.356850 0.980094
N1    N     N_3   0.500090 0.499970 0.858290 -0.232255
N2    N     N_3   0.499910 0.500030 0.141710 -0.232253
O1    O     O_R   0.500060 0.316850 0.620870 -0.571358
O2    O     O_R   0.499940 0.683150 0.379130 -0.571346
O3    O     O_R   0.500000 0.316860 0.379090 -0.574129
O4    O     O_R   0.500000 0.683140 0.620910 -0.574129
O5    O     O_R   0.316880 0.499960 0.620870 -0.610270
O6    O     O_R   0.683120 0.500040 0.379130 -0.610269
O7    O     O_R   0.316830 0.499970 0.379090 -0.521941
O8    O     O_R   0.683170 0.500030 0.620910 -0.521940
C27   C     C_3   0.886095 0.267123 0.481108 -0.911494
H1    H     H_    0.956013 0.190634 0.482813 0.236249
H2    H     H_    0.819917 0.261000 0.570192 0.237850
H3    H     H_    0.834715 0.262327 0.382252 0.225488
C28   C     C_3   0.113909 0.732878 0.518898 -0.911482
H4    H     H_    0.043993 0.809371 0.517209 0.236243
H5    H     H_    0.165297 0.737665 0.617750 0.225488
H6    H     H_    0.180081 0.739004 0.429810 0.237844
C29   C     C_3   0.058614 0.354241 0.733634 -0.867898
H7    H     H_    0.971504 0.312235 0.769479 0.256220
H8    H     H_    0.125089 0.278365 0.700287 0.240924
H9    H     H_    0.095438 0.411800 0.819684 0.228449
C30   C     C_3   0.941388 0.645763 0.266368 -0.867904
H10   H     H_    0.028497 0.687770 0.230524 0.256219
H11   H     H_    0.904565 0.588203 0.180316 0.228451
H12   H     H_    0.874911 0.721637 0.299713 0.240920
C31   C     C_3   0.918712 0.640265 0.744409 -0.824110
H13   H     H_    0.000358 0.661030 0.809171 0.208015
H14   H     H_    0.875434 0.728166 0.710681 0.258735
H15   H     H_    0.849747 0.592598 0.806906 0.287247
C32   C     C_3   0.081287 0.359739 0.255592 -0.824117
H16   H     H_    0.999640 0.338964 0.190838 0.208016
H17   H     H_    0.150244 0.407410 0.193088 0.287247
H18   H     H_    0.124576 0.271842 0.289319 0.258738
O9    O     O_3   0.718806 0.876064 0.547914 -0.581677
C33   C     C_3   0.822579 0.952465 0.541776 -0.366652
H19   H     H_    0.884569 0.931541 0.629441 0.179604
H20   H     H_    0.799026 0.052459 0.551150 0.175057
H21   H     H_    0.874346 0.933279 0.442228 0.178132
O10   O     O_3   0.281188 0.123936 0.452088 -0.581683
C34   C     C_3   0.177416 0.047532 0.458212 -0.366653
H22   H     H_    0.200969 0.947542 0.448791 0.175062
H23   H     H_    0.115415 0.068482 0.370568 0.179604
H24   H     H_    0.125661 0.066684 0.557772 0.178129
C35   C     C_3   0.603048 0.087591 0.755976 -0.809348
H25   H     H_    0.625867 0.007284 0.821043 0.231302
H26   H     H_    0.687775 0.140730 0.736300 0.231856
H27   H     H_    0.534221 0.148956 0.811234 0.253711
C36   C     C_3   0.396949 0.912409 0.244023 -0.809379
H28   H     H_    0.374086 0.992719 0.178980 0.231315
H29   H     H_    0.465796 0.851086 0.188741 0.253694
H30   H     H_    0.312251 0.859226 0.263696 0.231869
C37   C     C_3   0.330374 0.972423 0.729879 -0.874422
H31   H     H_    0.278577 0.062389 0.743393 0.245338
H32   H     H_    0.263611 0.898103 0.711972 0.223706
H33   H     H_    0.381247 0.958588 0.827323 0.245540
C38   C     C_3   0.669621 0.027578 0.270123 -0.874432
H34   H     H_    0.721420 0.937614 0.256610 0.245338
H35   H     H_    0.618749 0.041412 0.172679 0.245542
H36   H     H_    0.736382 0.101900 0.288031 0.223704
C39   C     C_3   0.433245 0.733843 0.901884 -0.808986
H37   H     H_    0.390536 0.791932 0.987259 0.212067
H38   H     H_    0.515974 0.780238 0.860155 0.259076
H39   H     H_    0.362112 0.722419 0.820780 0.249645
C40   C     C_3   0.566755 0.266157 0.098116 -0.808982
H40   H     H_    0.609464 0.208067 0.012741 0.212065
H41   H     H_    0.637889 0.277582 0.179219 0.249645
H42   H     H_    0.484026 0.219763 0.139846 0.259079
C41   C     C_3   0.669639 0.673958 0.101223 -0.837830
H43   H     H_    0.757098 0.663762 0.039149 0.223156
H44   H     H_    0.632709 0.768711 0.084919 0.222481
H45   H     H_    0.687451 0.664461 0.212880 0.282970
C42   C     C_3   0.330362 0.326040 0.898777 -0.837835
H46   H     H_    0.367294 0.231286 0.915086 0.222484
H47   H     H_    0.242901 0.336238 0.960848 0.223158
H48   H     H_    0.312554 0.335534 0.787117 0.282971
O11   O     O_3   0.722736 0.430437 0.887089 -0.558820
C43   C     C_3   0.807954 0.395327 0.990254 -0.437457
H49   H     H_    0.822144 0.293096 0.985007 0.191224
H50   H     H_    0.780791 0.424985 0.098919 0.184996
H51   H     H_    0.898562 0.437347 0.968381 0.188995
O12   O     O_3   0.277264 0.569562 0.112910 -0.558822
C44   C     C_3   0.192046 0.604675 0.009746 -0.437466
H52   H     H_    0.219209 0.575017 0.901080 0.184997
H53   H     H_    0.177860 0.706907 0.014993 0.191225
H54   H     H_    0.101438 0.562658 0.031618 0.188994

loop_
_geom_bond_atom_site_label_1
_geom_bond_atom_site_label_2
_ccdc_geom_bond_type
C7    C10   S    
C21   C26   S    
C11   C18   S    
C40   H40   S    
C7    N1    S    
Cu1   N1    S    
C35   H25   S    
C44   H52   S    
C31   H13   S    
C37   H33   S    
C41   H43   S    
C1    O3    A    
C29   H8    S    
C38   H34   S    
C42   H46   S    
C13   C18   S    
C22   C24   S    
C24   C26   S    
C36   H30   S    
C43   H49   S    
Cu1   O8    S    
C9    O11   S    
C7    C39   S    
C21   C35   S    
C1    O1    A    
C2    O2    A    
C6    C42   S    
C34   H23   S    
O12   C44   S    
C37   H32   S    
C13   C29   S    
C14   C30   S    
C20   C32   S    
O10   C34   S    
C22   C25   S    
C12   C17   S    
C3    C37   S    
C27   H3    S    
C9    N1    S    
C2    O4    A    
C36   H29   S    
C32   H16   S    
C42   H47   S    
C35   H26   S    
C14   C17   S    
C3    C24   S    
C41   H44   S    
C37   H31   S    
C29   H9    S    
C38   H35   S    
Cu1   O4    S    
C15   C20   S    
C32   H17   S    
C13   C19   S    
Cu1   O1    S    
C30   H10   S    
C33   H21   S    
C14   C20   S    
C3    C25   S    
C27   H2    S    
C27   H1    S    
C5    C7    S    
C4    C23   S    
C8    C9    S    
C6    C8    S    
C4    C38   S    
Cu1   O5    S    
C36   H28   S    
C30   H11   S    
C33   H20   S    
C34   H24   S    
C28   H4    S    
C5    C9    S    
C4    C22   S    
C10   N2    S    
C29   H7    S    
C13   C15   S    
Cu2   O2    S    
C44   H53   S    
C31   H14   S    
C39   H39   S    
C28   H5    S    
C16   C28   S    
C15   C27   S    
C16   C18   S    
C5    C41   S    
Cu2   O3    S    
C42   H48   S    
C21   C23   S    
C1    C26   S    
C35   H27   S    
C14   C16   S    
C3    C21   S    
C12   O6    A    
C44   H54   S    
C41   H45   S    
C11   O7    A    
C5    N2    S    
C38   H36   S    
C19   C31   S    
C15   C17   S    
C32   H18   S    
C8    C40   S    
C22   C36   S    
C6    C10   S    
C4    C26   S    
C40   H42   S    
O11   C43   S    
C30   H12   S    
C8    N2    S    
C33   H19   S    
C11   O5    A    
Cu2   N2    S    
C43   H50   S    
Cu2   O7    S    
C16   C19   S    
C23   O9    S    
C17   C19   S    
C10   O12   S    
C2    C25   S    
C18   C20   S    
C23   C25   S    
C12   O8    A    
C34   H22   S    
C28   H6    S    
C24   O10   S    
O9    C33   S    
C6    N1    S    
Cu2   O6    S    
C40   H41   S    
C39   H38   S    
C31   H15   S    
Cu1   Cu2   S    
C39   H37   S    
C43   H51   S    
