data_mof_unit_68047.cif
_audit_creation_date              2013-03-05T15:43:42-0500
_audit_creation_method            fapswitch 2.2
_symmetry_space_group_name_H-M    P1
_symmetry_Int_Tables_number       1
_space_group_crystal_system       triclinic
_cell_length_a                    15.18136
_cell_length_b                    16.129889
_cell_length_c                    7.146834
_cell_angle_alpha                 90.00018
_cell_angle_beta                  82.019286
_cell_angle_gamma                 90.000723
_cell_volume                      1733.12165144

loop_
_atom_site_label
_atom_site_type_symbol
_atom_site_description
_atom_site_fract_x
_atom_site_fract_y
_atom_site_fract_z
_atom_type_partial_charge
O1    O     O_R   0.337080 0.165770 0.524980 -0.565696
O2    O     O_R   0.662920 0.834230 0.475020 -0.567356
O3    O     O_R   0.662920 0.665770 0.475020 -0.565701
O4    O     O_R   0.337080 0.334230 0.524980 -0.567427
O5    O     O_R   0.348340 0.341430 0.191390 -0.581231
O6    O     O_R   0.651660 0.658570 0.808610 -0.593009
O7    O     O_R   0.651660 0.841430 0.808610 -0.581264
O8    O     O_R   0.348340 0.158570 0.191390 -0.592999
O9    O     O_R   0.165780 0.339950 0.082750 -0.559021
O10   O     O_R   0.834220 0.660050 0.917250 -0.560908
O11   O     O_R   0.834220 0.839950 0.917250 -0.559023
O12   O     O_R   0.165780 0.160050 0.082750 -0.560912
C1    C     C_R   0.368053 0.362856 0.357200 0.731037
C2    C     C_R   0.631385 0.637566 0.642673 0.731912
C3    C     C_R   0.631949 0.862856 0.642799 0.731069
C4    C     C_R   0.368614 0.137566 0.357327 0.731949
O13   O     O_3   0.191540 0.250000 0.407620 -0.286618
O14   O     O_3   0.808460 0.750000 0.592380 -0.286620
V1    V     V_3+5 0.262540 0.250000 0.108780 1.108860
V2    V     V_3+5 0.737460 0.750000 0.891220 1.108844
O15   O     O_R   0.154530 0.164290 0.756910 -0.562878
O16   O     O_R   0.845470 0.835710 0.243090 -0.560228
O17   O     O_R   0.845470 0.664290 0.243090 -0.562892
O18   O     O_R   0.154530 0.335710 0.756910 -0.560222
C5    C     C_R   0.133115 0.132692 0.929632 0.774250
C6    C     C_R   0.868862 0.865858 0.068640 0.777872
C7    C     C_R   0.866886 0.632693 0.070368 0.774241
C8    C     C_R   0.131141 0.365861 0.931361 0.777868
V3    V     V_3+5 0.240320 0.250000 0.616280 1.108208
V4    V     V_3+5 0.759680 0.750000 0.383720 1.108216
O19   O     O_3   0.311330 0.250000 0.867310 -0.312381
O20   O     O_3   0.688670 0.750000 0.132690 -0.312366
C9    C     C_3   0.049352 0.492368 0.139119 -0.073992
C10   C     C_3   0.945549 0.503811 0.868981 -0.077093
C11   C     C_3   0.950646 0.992365 0.860905 -0.074009
C12   C     C_3   0.054469 0.003801 0.131011 -0.077102
C13   C     C_3   0.038165 0.571145 0.018031 -0.094896
C14   C     C_3   0.956656 0.425057 0.990745 -0.096519
C15   C     C_3   0.961841 0.071138 0.982002 -0.094905
C16   C     C_3   0.043352 0.925051 0.009239 -0.096526
H1    H     H_    0.072722 0.630655 0.018527 0.060080
H2    H     H_    0.921008 0.365998 0.988914 0.061241
H3    H     H_    0.927284 0.130646 0.981521 0.060082
H4    H     H_    0.079001 0.865992 0.011052 0.061238
H5    H     H_    0.087625 0.479695 0.255721 0.101656
H6    H     H_    0.906467 0.514772 0.752872 0.101718
H7    H     H_    0.912363 0.979689 0.744321 0.101655
H8    H     H_    0.093568 0.014759 0.247095 0.101712
C17   C     C_3   0.936123 0.560017 0.045081 -0.104251
C18   C     C_3   0.059057 0.436535 0.962002 -0.106569
C19   C     C_3   0.063882 0.060012 0.954921 -0.104255
C20   C     C_3   0.940951 0.936527 0.038010 -0.106570
C21   C     C_3   0.947390 0.481739 0.165918 0.029766
C22   C     C_3   0.047339 0.515082 0.843201 0.027975
C23   C     C_3   0.052607 0.981738 0.834079 0.029775
C24   C     C_3   0.952678 0.015069 0.156822 0.027990
C25   C     C_2   0.611541 0.250183 0.542314 -0.050304
C26   C     C_2   0.522245 0.465828 0.519573 -0.107615
C27   C     C_2   0.388485 0.750177 0.457753 -0.050324
C28   C     C_2   0.477768 0.965839 0.480402 -0.107556
C29   C     C_2   0.558442 0.316572 0.588838 0.175148
C30   C     C_2   0.559813 0.392653 0.463923 0.146079
C31   C     C_2   0.441583 0.816565 0.411185 0.175259
C32   C     C_2   0.440212 0.892659 0.536069 0.146036
C33   C     C_R   0.479542 0.491709 0.706841 0.003583
C34   C     C_R   0.525443 0.496186 0.862930 -0.047435
C35   C     C_R   0.484625 0.530938 0.031455 -0.084680
C36   C     C_R   0.396135 0.555450 0.048245 -0.082181
C37   C     C_R   0.347823 0.544512 0.897625 -0.039998
C38   C     C_R   0.391091 0.516749 0.724804 -0.053819
H9    H     H_    0.593204 0.476655 0.851694 0.058209
H10   H     H_    0.521629 0.540382 0.148147 0.071215
H11   H     H_    0.367248 0.586633 0.174934 0.050905
H12   H     H_    0.278714 0.562337 0.909554 0.059036
H13   H     H_    0.356529 0.514947 0.603825 0.040807
C39   C     C_R   0.676831 0.239510 0.374742 0.049351
C40   C     C_R   0.766452 0.243376 0.394036 -0.049658
C41   C     C_R   0.830596 0.245027 0.234996 -0.061904
C42   C     C_R   0.804069 0.242899 0.056829 -0.098928
C43   C     C_R   0.714704 0.235234 0.036784 -0.074649
C44   C     C_R   0.651009 0.229406 0.196679 -0.002315
H14   H     H_    0.785332 0.247315 0.532814 0.075885
H15   H     H_    0.900407 0.249636 0.248846 0.064553
H16   H     H_    0.852742 0.246303 0.933421 0.046301
H17   H     H_    0.696345 0.234035 0.896558 0.062890
H18   H     H_    0.581335 0.222968 0.184284 0.045348
C45   C     C_R   0.520470 0.991726 0.293135 0.003481
C46   C     C_R   0.474561 0.996228 0.137063 -0.047546
C47   C     C_R   0.515380 0.030981 0.968538 -0.084643
C48   C     C_R   0.603875 0.055479 0.951738 -0.082224
C49   C     C_R   0.652194 0.044513 0.102336 -0.039998
C50   C     C_R   0.608929 0.016742 0.275154 -0.053793
H19   H     H_    0.406790 0.976728 0.148323 0.058196
H20   H     H_    0.478371 0.040445 0.851861 0.071239
H21   H     H_    0.632761 0.086672 0.825062 0.050923
H22   H     H_    0.721308 0.062322 0.090397 0.059033
H23   H     H_    0.643498 0.014917 0.396118 0.040815
C51   C     C_R   0.323197 0.739514 0.625329 0.049352
C52   C     C_R   0.233576 0.743387 0.606034 -0.049659
C53   C     C_R   0.169434 0.745042 0.765073 -0.061920
C54   C     C_R   0.195961 0.742905 0.943240 -0.098935
C55   C     C_R   0.285326 0.735242 0.963287 -0.074666
C56   C     C_R   0.349020 0.729416 0.803393 -0.002327
H24   H     H_    0.214694 0.747329 0.467256 0.075892
H25   H     H_    0.099625 0.749660 0.751223 0.064556
H26   H     H_    0.147288 0.746307 0.066645 0.046312
H27   H     H_    0.303689 0.734045 0.103512 0.062917
H28   H     H_    0.418694 0.722981 0.815791 0.045346
N1    N     N_2   0.587464 0.384944 0.266691 -0.440712
H29   H     H_    0.536885 0.391036 0.185630 0.189064
C57   C     C_3   0.667188 0.429426 0.193079 -0.234071
H30   H     H_    0.679583 0.422798 0.038490 0.102169
H31   H     H_    0.724579 0.400956 0.247056 0.135292
H32   H     H_    0.661167 0.496333 0.228821 0.103032
N2    N     N_2   0.501084 0.313884 0.765482 -0.439941
H33   H     H_    0.441192 0.343540 0.767489 0.241469
C58   C     C_3   0.493266 0.236617 0.869084 -0.139700
H34   H     H_    0.458909 0.247691 0.012943 0.154676
H35   H     H_    0.558737 0.211691 0.883470 0.062169
H36   H     H_    0.458080 0.189680 0.793489 0.129966
N3    N     N_2   0.412565 0.884957 0.733306 -0.440719
H37   H     H_    0.463145 0.891031 0.814359 0.189064
C59   C     C_3   0.332845 0.929437 0.806938 -0.234052
H38   H     H_    0.320461 0.922815 0.961533 0.102170
H39   H     H_    0.275447 0.900956 0.753004 0.135283
H40   H     H_    0.338861 0.996343 0.771173 0.103042
N4    N     N_2   0.498912 0.813860 0.234502 -0.439916
H41   H     H_    0.558776 0.843626 0.232237 0.241386
C60   C     C_3   0.506758 0.736565 0.131000 -0.139596
H42   H     H_    0.541107 0.747619 0.987121 0.154656
H43   H     H_    0.441295 0.711607 0.116643 0.062111
H44   H     H_    0.541962 0.689662 0.206660 0.130018
C61   C     C_R   0.901083 0.454263 0.352226 0.025305
C62   C     C_R   0.938854 0.390306 0.446711 -0.070385
C63   C     C_R   0.894280 0.359581 0.614398 -0.075215
C64   C     C_R   0.810305 0.390238 0.686337 -0.087145
C65   C     C_R   0.773494 0.455004 0.594576 -0.056583
C66   C     C_R   0.819693 0.488357 0.430456 -0.076294
H45   H     H_    0.002273 0.363302 0.389966 0.085622
H46   H     H_    0.925957 0.312814 0.687895 0.059681
H47   H     H_    0.775033 0.365315 0.814172 0.069650
H48   H     H_    0.709620 0.479740 0.648957 0.043106
H49   H     H_    0.788092 0.536071 0.359166 0.089287
C67   C     C_R   0.094798 0.544859 0.661822 0.029841
C68   C     C_R   0.055728 0.607013 0.564407 -0.071479
C69   C     C_R   0.099035 0.635492 0.393615 -0.074252
C70   C     C_R   0.181169 0.601813 0.318737 -0.090974
C71   C     C_R   0.219248 0.539306 0.415011 -0.061566
C72   C     C_R   0.177544 0.512738 0.589023 -0.057085
H50   H     H_    0.991819 0.633390 0.619863 0.088683
H51   H     H_    0.066240 0.680322 0.316589 0.062251
H52   H     H_    0.211879 0.619448 0.181357 0.069033
H53   H     H_    0.278933 0.508547 0.353317 0.044232
H54   H     H_    0.210465 0.467721 0.665414 0.083179
C73   C     C_R   0.098915 0.954270 0.647771 0.025323
C74   C     C_R   0.061137 0.890327 0.553247 -0.070408
C75   C     C_R   0.105724 0.859594 0.385582 -0.075227
C76   C     C_R   0.189718 0.890234 0.313702 -0.087160
C77   C     C_R   0.226539 0.954978 0.405517 -0.056586
C78   C     C_R   0.180327 0.988340 0.569612 -0.076232
H55   H     H_    0.997702 0.863340 0.609941 0.085638
H56   H     H_    0.074038 0.812843 0.312050 0.059688
H57   H     H_    0.225002 0.865310 0.185880 0.069663
H58   H     H_    0.290438 0.979684 0.351218 0.043103
H59   H     H_    0.211934 0.036039 0.640950 0.089215
C79   C     C_R   0.905228 0.044846 0.338210 0.029845
C80   C     C_R   0.944310 0.106991 0.435630 -0.071485
C81   C     C_R   0.901003 0.135480 0.606412 -0.074261
C82   C     C_R   0.818857 0.101817 0.681275 -0.090977
C83   C     C_R   0.780765 0.039319 0.584995 -0.061562
C84   C     C_R   0.822473 0.012740 0.410995 -0.057082
H60   H     H_    0.008226 0.133357 0.380182 0.088703
H61   H     H_    0.933805 0.180304 0.683444 0.062261
H62   H     H_    0.788147 0.119461 0.818647 0.069028
H63   H     H_    0.721067 0.008576 0.646673 0.044223
H64   H     H_    0.789547 0.967727 0.334598 0.083165

loop_
_geom_bond_atom_site_label_1
_geom_bond_atom_site_label_2
_geom_bond_distance
_ccdc_geom_bond_type
O10   C7    1.337478 A    
C26   C30   1.346709 D    
C15   C19   1.544727 S    
C45   C46   1.396802 A    
C54   C55   1.389382 A    
C9    H5    1.099229 S    
C82   C83   1.390904 A    
C22   C67   1.473369 S    
C70   C71   1.390896 A    
C62   H45   1.082932 S    
C65   H48   1.070476 S    
V1    O19   1.780978 S    
C43   H17   1.077016 S    
N4    C60   1.446141 S    
C68   C69   1.382154 A    
C48   C49   1.395360 A    
C59   H38   1.099910 S    
C19   C23   1.552495 S    
C40   C41   1.390521 A    
C23   C73   1.484430 S    
C14   C21   1.540810 S    
C53   H25   1.080589 S    
C75   C76   1.397226 A    
C25   C39   1.454907 S    
C74   C75   1.383673 A    
C14   H2    1.096582 S    
C66   H49   1.072364 S    
N1    C57   1.442093 S    
C42   H16   1.070488 S    
C59   H39   1.100980 S    
C83   C84   1.382928 A    
C51   C56   1.392213 A    
O4    C1    1.309790 A    
O13   V3    1.754683 S    
C35   H10   1.079072 S    
C47   H20   1.079072 S    
O18   V3    2.062583 S    
C55   C56   1.393861 A    
C49   H22   1.079739 S    
C8    C18   1.574330 S    
C41   H15   1.080595 S    
O9    V1    2.091273 S    
C77   C78   1.388764 A    
O10   V2    2.091274 S    
C36   C37   1.395365 A    
N2    C58   1.446094 S    
C29   N2    1.431309 S    
C82   H62   1.065429 S    
C56   H28   1.078646 S    
C10   H6    1.099353 S    
O17   C7    1.333337 A    
C16   H4    1.096582 S    
O5    C1    1.308335 A    
C68   H50   1.082886 S    
C60   H44   1.109342 S    
O7    C3    1.308335 A    
C52   H24   1.071855 S    
C65   C66   1.388774 A    
C11   H7    1.099223 S    
C61   C66   1.396400 A    
O8    C4    1.310457 A    
C45   C50   1.390993 A    
C81   H61   1.072350 S    
C28   C45   1.464543 S    
C50   H23   1.072212 S    
C83   H63   1.072676 S    
C9    C21   1.542661 S    
C63   H46   1.070672 S    
O11   V2    2.091246 S    
O8    V1    2.105645 S    
C11   C23   1.542645 S    
C35   C36   1.389494 A    
O17   V4    2.062583 S    
O18   C8    1.339447 A    
C63   C64   1.397199 A    
C21   C61   1.484461 S    
C71   C72   1.382927 A    
C58   H36   1.109291 S    
C47   C48   1.389491 A    
C49   C50   1.390068 A    
C41   C42   1.388207 A    
C64   C65   1.391210 A    
C59   H40   1.109879 S    
C15   H3    1.094124 S    
O11   C6    1.334113 A    
C36   H11   1.074636 S    
C16   C20   1.550651 S    
O15   V3    2.062566 S    
O7    V2    2.105643 S    
C9    C13   1.559863 S    
C69   H51   1.072339 S    
C76   C77   1.391219 A    
O3    V4    2.040400 S    
C11   C15   1.559858 S    
C72   H54   1.072797 S    
C5    C19   1.568109 S    
C34   H9    1.068179 S    
C64   H47   1.071066 S    
C12   C24   1.541402 S    
C6    C20   1.574308 S    
O6    C2    1.310459 A    
C13   C17   1.544739 S    
C26   C33   1.464538 S    
C52   C53   1.390505 A    
C77   H58   1.070463 S    
C12   C16   1.562094 S    
C16   C23   1.540797 S    
O1    V3    2.040422 S    
C44   H18   1.078654 S    
C37   H12   1.079745 S    
C57   H31   1.100981 S    
O1    C4    1.308633 A    
C18   C22   1.549082 S    
C78   H59   1.072403 S    
C39   C40   1.387858 A    
O2    C3    1.309789 A    
C12   C19   1.541534 S    
N3    H37   1.028747 S    
C62   C63   1.383681 A    
O3    C2    1.308639 A    
C76   H57   1.071067 S    
C14   C18   1.550646 S    
C13   C22   1.532983 S    
C81   C82   1.396785 A    
C74   H55   1.082931 S    
C10   C22   1.541403 S    
C79   C80   1.398675 A    
C42   C43   1.389368 A    
C71   H53   1.072673 S    
N4    H41   1.025972 S    
C15   C24   1.532972 S    
C55   H27   1.077031 S    
C80   C81   1.382148 A    
C69   C70   1.396783 A    
V2    O20   1.780979 S    
C54   H26   1.070474 S    
O15   C5    1.333340 A    
C46   H19   1.068152 S    
C10   C17   1.541543 S    
O16   V4    2.062565 S    
C57   H30   1.099888 S    
C73   C78   1.396372 A    
C10   C14   1.562092 S    
O2    V4    2.040421 S    
O4    V3    2.040399 S    
C43   C44   1.393878 A    
C48   H21   1.074637 S    
C39   C44   1.392200 A    
C25   C29   1.353762 D    
C80   H60   1.082885 S    
O5    V1    2.105618 S    
O6    V2    2.105619 S    
C84   H64   1.072800 S    
C27   C31   1.353781 D    
C28   C32   1.346733 D    
O12   C5    1.337468 A    
C67   C68   1.398673 A    
C58   H35   1.090189 S    
C70   H52   1.065438 S    
C9    C18   1.543785 S    
C34   C35   1.393412 A    
V3    O19   2.217630 S    
N1    H29   1.028786 S    
V4    O20   2.217630 S    
C11   C20   1.543760 S    
N2    H33   1.025747 S    
C61   C62   1.398769 A    
C30   N1    1.419254 S    
C20   C24   1.549085 S    
C40   H14   1.071846 S    
C17   C21   1.552505 S    
O12   V1    2.091247 S    
C53   C54   1.388206 A    
O13   V1    2.254783 S    
C12   H8    1.099361 S    
C57   H32   1.109857 S    
O14   V2    2.254783 S    
C33   C34   1.396813 A    
C13   H1    1.094138 S    
C29   C30   1.515990 S    
C67   C72   1.391288 A    
C37   C38   1.390064 A    
N3    C59   1.442070 S    
O14   V4    1.754683 S    
C31   C32   1.516026 S    
C7    C17   1.568121 S    
C79   C84   1.391283 A    
C46   C47   1.393419 A    
C38   H13   1.072225 S    
C51   C52   1.387859 A    
O16   C6    1.339427 A    
C24   C79   1.473363 S    
C73   C74   1.398788 A    
C27   C51   1.454891 S    
C60   H42   1.100986 S    
C33   C38   1.391003 A    
C58   H34   1.100965 S    
C75   H56   1.070705 S    
C31   N4    1.431325 S    
C32   N3    1.419276 S    
O9    C8    1.334103 A    
C60   H43   1.090224 S    
