data_mof_unit_13876.cif
_audit_creation_date              2013-03-05T16:23:42-0500
_audit_creation_method            fapswitch 2.2
_symmetry_space_group_name_H-M    P1
_symmetry_Int_Tables_number       1
_space_group_crystal_system       triclinic
_cell_length_a                    13.796074
_cell_length_b                    15.111958
_cell_length_c                    16.292616
_cell_angle_alpha                 90.128549
_cell_angle_beta                  86.66058
_cell_angle_gamma                 90.175852
_cell_volume                      3390.98626743

loop_
_atom_site_label
_atom_site_type_symbol
_atom_site_description
_atom_site_fract_x
_atom_site_fract_y
_atom_site_fract_z
_atom_type_partial_charge
O1    O     O_R   0.418570 0.628550 0.499990 -0.593382
O2    O     O_R   0.581430 0.371450 0.500010 -0.603703
O3    O     O_R   0.581440 0.628540 0.499990 -0.539535
O4    O     O_R   0.418560 0.371460 0.500010 -0.544918
C1    C     C_R   0.500357 0.670200 0.497695 0.883154
C2    C     C_R   0.499941 0.329715 0.497608 0.862952
O5    O     O_R   0.409120 0.500020 0.613600 -0.532819
O6    O     O_R   0.590880 0.499980 0.386400 -0.533608
O7    O     O_R   0.571990 0.500010 0.613600 -0.592406
O8    O     O_R   0.428010 0.499990 0.386400 -0.591821
C3    C     C_R   0.487856 0.500846 0.653452 0.821534
C4    C     C_R   0.512153 0.500564 0.346546 0.797818
Cu1   Cu    Cu3+1 0.403570 0.500010 0.500000 0.958244
Cu2   Cu    Cu3+1 0.596430 0.499990 0.500000 0.954424
C5    C     C_R   0.482612 0.513981 0.744561 -0.220989
C6    C     C_R   0.517269 0.513541 0.255498 -0.231119
C7    C     C_R   0.567294 0.538431 0.783126 -0.246043
C8    C     C_R   0.431276 0.531378 0.216368 -0.253915
C9    C     C_R   0.562086 0.574046 0.862413 -0.282752
C10   C     C_R   0.434339 0.567542 0.137493 -0.283125
C11   C     C_R   0.472132 0.586279 0.905534 -0.124969
C12   C     C_R   0.523406 0.587083 0.095443 -0.123208
C13   C     C_R   0.387696 0.552506 0.871471 0.487706
C14   C     C_R   0.610038 0.559755 0.129905 0.480191
C15   C     C_R   0.393014 0.514315 0.792038 0.427073
C16   C     C_R   0.607028 0.520763 0.208782 0.402631
C17   C     C_2   0.463951 0.656143 0.970094 0.393198
C18   C     C_2   0.526266 0.657980 0.032095 0.388741
H1    H     H_    0.637330 0.537434 0.749458 0.180939
H2    H     H_    0.361178 0.524701 0.249337 0.182570
H3    H     H_    0.366993 0.589594 0.113486 0.157974
H4    H     H_    0.627602 0.601226 0.886100 0.155961
C19   C     C_R   0.422681 0.906841 0.519105 0.500388
C20   C     C_R   0.578166 0.093258 0.513750 0.503342
C21   C     C_R   0.422655 0.814892 0.523132 -0.368201
C22   C     C_R   0.577451 0.185240 0.517867 -0.385492
H5    H     H_    0.362000 0.781554 0.555214 0.209644
H6    H     H_    0.636518 0.218872 0.546138 0.204733
C23   C     C_R   0.501203 0.766420 0.489077 -0.292703
C24   C     C_R   0.500145 0.233314 0.488826 -0.296468
C25   C     C_R   0.578459 0.809961 0.445046 0.381851
C26   C     C_R   0.425206 0.189105 0.449575 0.392320
C27   C     C_R   0.578007 0.902331 0.438329 0.424207
C28   C     C_R   0.426514 0.096721 0.442845 0.420958
C29   C     C_R   0.500530 0.951168 0.476805 -0.129040
C30   C     C_R   0.502424 0.048402 0.476490 -0.128548
C31   C     C_R   0.895385 0.436653 0.452859 0.055092
C32   C     C_R   0.111157 0.562332 0.451933 0.056796
C33   C     C_R   0.793158 0.438589 0.454441 0.131707
C34   C     C_R   0.213206 0.560314 0.453385 0.088404
H7    H     H_    0.754996 0.390596 0.418927 0.132703
H8    H     H_    0.256373 0.607179 0.416718 0.139914
N1    N     N_R   0.741310 0.499980 0.500000 -0.192041
N2    N     N_R   0.258690 0.500020 0.500000 -0.193980
C35   C     C_R   0.788381 0.560840 0.545297 0.088836
C36   C     C_R   0.205334 0.439850 0.545827 0.140778
H9    H     H_    0.746835 0.609090 0.581536 0.135943
H10   H     H_    0.241865 0.391909 0.582173 0.134509
C37   C     C_R   0.890350 0.561682 0.545615 -0.306569
C38   C     C_R   0.103334 0.439094 0.546267 -0.308332
H11   H     H_    0.926002 0.610745 0.581996 0.157744
H12   H     H_    0.062667 0.390629 0.583167 0.149553
C39   C     C_R   0.945577 0.499310 0.499231 0.066654
C40   C     C_R   0.054533 0.500669 0.499217 0.066236
N3    N     N_3   0.946184 0.371599 0.403080 -0.609669
H13   H     H_    0.993982 0.404408 0.361209 0.228031
H14   H     H_    0.987139 0.332806 0.441154 0.239992
N4    N     N_3   0.067207 0.626367 0.401307 -0.596858
H15   H     H_    0.024939 0.592727 0.360025 0.233357
H16   H     H_    0.021203 0.666002 0.438911 0.245665
O9    O     O_3   0.693767 0.499542 0.242289 -0.542451
C41   C     C_3   0.704314 0.406629 0.240791 -0.296814
H17   H     H_    0.651106 0.374023 0.284885 0.141979
H18   H     H_    0.778118 0.390118 0.259534 0.196256
H19   H     H_    0.696993 0.378730 0.178193 0.127138
O10   O     O_3   0.307889 0.486577 0.759062 -0.532003
C42   C     C_3   0.306151 0.393138 0.757965 -0.318973
H20   H     H_    0.359700 0.366203 0.710862 0.149410
H21   H     H_    0.233007 0.371001 0.741585 0.184520
H22   H     H_    0.319633 0.364387 0.819084 0.128568
O11   O     O_3   0.560535 0.738909 0.058737 -0.560172
C43   C     C_3   0.632784 0.770294 0.001090 -0.246415
H23   H     H_    0.692190 0.721272 0.990041 0.175126
H24   H     H_    0.665421 0.831010 0.026272 0.172877
H25   H     H_    0.601697 0.788429 0.942017 0.180320
O12   O     O_3   0.423157 0.734699 0.945053 -0.552288
C44   C     C_3   0.348720 0.760034 0.003372 -0.233316
H26   H     H_    0.293423 0.706775 0.013431 0.174638
H27   H     H_    0.311257 0.818611 0.979470 0.175045
H28   H     H_    0.378375 0.779485 0.062801 0.175526
O13   O     O_3   0.297748 0.567313 0.910830 -0.544527
C45   C     C_3   0.277431 0.498400 0.967525 -0.363227
H29   H     H_    0.340498 0.481466 0.004148 0.133835
H30   H     H_    0.252173 0.438563 0.935384 0.184205
H31   H     H_    0.217621 0.519936 0.011435 0.192524
O14   O     O_3   0.698898 0.582095 0.091923 -0.548898
C46   C     C_3   0.725061 0.517008 0.032611 -0.356653
H32   H     H_    0.663793 0.496869 0.994994 0.134322
H33   H     H_    0.755073 0.458044 0.062506 0.182769
H34   H     H_    0.783060 0.544410 0.989896 0.191357
O15   O     O_3   0.343470 0.952726 0.553037 -0.514886
C47   C     C_3   0.357773 0.969632 0.636571 -0.297936
H35   H     H_    0.414943 0.020704 0.642841 0.139982
H36   H     H_    0.375516 0.908438 0.670572 0.154420
H37   H     H_    0.289387 0.996480 0.665767 0.195941
O16   O     O_3   0.656167 0.047874 0.542539 -0.514008
C48   C     C_3   0.637904 0.030985 0.627065 -0.303098
H38   H     H_    0.580852 0.979455 0.636834 0.146738
H39   H     H_    0.617849 0.092079 0.662423 0.138769
H40   H     H_    0.705229 0.004744 0.651884 0.197259
O17   O     O_3   0.657310 0.763064 0.411583 -0.535188
C49   C     C_3   0.636273 0.733182 0.332402 -0.174756
H41   H     H_    0.566376 0.696172 0.332507 0.111669
H42   H     H_    0.694494 0.687179 0.309934 0.217300
H43   H     H_    0.635480 0.789132 0.288455 0.154612
O18   O     O_3   0.347386 0.235241 0.421196 -0.525886
C50   C     C_3   0.372054 0.265131 0.340639 -0.243020
H44   H     H_    0.441067 0.303689 0.336650 0.111858
H45   H     H_    0.313787 0.309760 0.321597 0.183288
H46   H     H_    0.376775 0.208970 0.296592 0.144606
O19   O     O_3   0.658003 0.943493 0.399472 -0.492503
C51   C     C_3   0.633136 0.978676 0.323301 -0.282532
H47   H     H_    0.605710 0.047231 0.331418 0.148153
H48   H     H_    0.579588 0.937467 0.291540 0.108940
H49   H     H_    0.699869 0.982147 0.282038 0.194065
O20   O     O_3   0.348433 0.055028 0.409134 -0.493063
C52   C     C_3   0.377194 0.019211 0.331397 -0.278050
H50   H     H_    0.404397 0.950769 0.338027 0.153982
H51   H     H_    0.432311 0.060230 0.296064 0.098115
H52   H     H_    0.312409 0.015265 0.294305 0.192299

loop_
_geom_bond_atom_site_label_1
_geom_bond_atom_site_label_2
_geom_bond_distance
_ccdc_geom_bond_type
C44   H26   1.113050 S    
O15   C47   1.409224 S    
C13   O13   1.381858 S    
C35   C37   1.407109 A    
C19   C29   1.410177 A    
O17   C49   1.411602 S    
C50   H45   1.109343 S    
C49   H42   1.109267 S    
O11   C43   1.410892 S    
C23   C25   1.411491 A    
C42   H20   1.111217 S    
O5    C3    1.297581 A    
C28   O20   1.386451 S    
C34   N2    1.364893 A    
C19   O15   1.383192 S    
C21   H5    1.083927 S    
C14   C16   1.413321 A    
C14   O14   1.381958 S    
C31   C39   1.414419 A    
C5    C15   1.419490 A    
O16   C48   1.409226 S    
C7    H1    1.083061 S    
O18   C50   1.411431 S    
C47   H37   1.109145 S    
C38   H12   1.082954 S    
O4    Cu1   1.954251 S    
C7    C9    1.396367 A    
C3    C5    1.494776 S    
C4    C6    1.494322 S    
N4    H15   1.045567 S    
C33   H7    1.081333 S    
C44   H27   1.109144 S    
C34   H8    1.082116 S    
C48   H38   1.110611 S    
C20   C30   1.409838 A    
C27   O19   1.386325 S    
C8    C10   1.395916 A    
C24   C26   1.412456 A    
C11   C17   1.488525 S    
C12   C18   1.488158 S    
Cu1   Cu2   2.660712 S    
C16   O9    1.382783 S    
C48   H39   1.114185 S    
O2    C2    1.289908 A    
C26   C28   1.400244 A    
C41   H19   1.112627 S    
C9    H4    1.082715 S    
C49   H41   1.113190 S    
C46   H33   1.109214 S    
C28   C30   1.415554 A    
C46   H32   1.113844 S    
N1    C35   1.364318 A    
C6    C16   1.419295 A    
N2    C36   1.364199 A    
C37   H11   1.082948 S    
C20   O16   1.383185 S    
C22   C24   1.397928 A    
C2    C24   1.463501 S    
O10   C42   1.412276 S    
C41   H18   1.109227 S    
C50   H46   1.109834 S    
O13   C45   1.410215 S    
O12   C44   1.411070 S    
N3    H14   1.045096 S    
C29   C30   1.469563 S    
C45   H31   1.109250 S    
C36   C38   1.406805 A    
C17   O12   1.387623 S    
C21   C23   1.397045 A    
O7    Cu2   1.861878 S    
C52   H51   1.114254 S    
C27   C29   1.415924 A    
O6    C4    1.297541 A    
O14   C46   1.410274 S    
C45   H30   1.109295 S    
C42   H21   1.109198 S    
C32   N4    1.431741 S    
C47   H36   1.114204 S    
O7    C3    1.296640 A    
O19   C51   1.412167 S    
O3    Cu2   1.954250 S    
O8    C4    1.296687 A    
C8    H2    1.083083 S    
C26   O18   1.384339 S    
C10   C12   1.402521 A    
N3    H13   1.045539 S    
C43   H24   1.109159 S    
C35   H9    1.081660 S    
C48   H40   1.109145 S    
C12   C14   1.412979 A    
O4    C2    1.288076 A    
O1    Cu1   1.952851 S    
C51   H48   1.114274 S    
C52   H50   1.109004 S    
O1    C1    1.289005 A    
C46   H34   1.109255 S    
Cu1   N2    1.998776 S    
C42   H22   1.113093 S    
C5    C7    1.406417 A    
C1    C23   1.461100 S    
O6    Cu2   1.856877 S    
C9    C11   1.402540 A    
C18   O11   1.387688 S    
C25   C27   1.400483 A    
C41   H17   1.111617 S    
O3    C1    1.287778 A    
O8    Cu1   1.861881 S    
C31   C33   1.409456 A    
C43   H25   1.111470 S    
C37   C39   1.405047 A    
C38   C40   1.404966 A    
C15   O10   1.383113 S    
C51   H49   1.109075 S    
C11   C13   1.412737 A    
C52   H52   1.109070 S    
O9    C41   1.412070 S    
C50   H44   1.113460 S    
C22   H6    1.083823 S    
O20   C52   1.412170 S    
C33   N1    1.364718 A    
C32   C34   1.409863 A    
C45   H29   1.114030 S    
C19   C21   1.391227 A    
C36   H10   1.080968 S    
C20   C22   1.391536 A    
C13   C15   1.413943 A    
C47   H35   1.110615 S    
O2    Cu2   1.952851 S    
C32   C40   1.414476 A    
C39   C40   1.503229 S    
O5    Cu1   1.856873 S    
Cu2   N1    1.998776 S    
C6    C8    1.406208 A    
C43   H23   1.113024 S    
C25   O17   1.384480 S    
C44   H28   1.111504 S    
C17   C18   1.364243 D    
N4    H16   1.045129 S    
C51   H47   1.109013 S    
C31   N3    1.431712 S    
C49   H43   1.109677 S    
C10   H3    1.082640 S    
