data_mof_unit_11210.cif
_audit_creation_date              2012-12-11T16:48:28-0500
_audit_creation_method            fapswitch 2.2
_symmetry_space_group_name_H-M    P1
_symmetry_Int_Tables_number       1
_space_group_crystal_system       triclinic
_cell_length_a                    17.302599
_cell_length_b                    24.295966
_cell_length_c                    14.977921
_cell_angle_alpha                 89.93381
_cell_angle_beta                  125.496859
_cell_angle_gamma                 89.977892
_cell_volume                      5126.24558825

loop_
_atom_site_label
_atom_site_type_symbol
_atom_type_description
_atom_site_fract_x
_atom_site_fract_y
_atom_site_fract_z
_atom_type_partial_charge
C1    C     C_R   0.310559 0.376254 0.908291 -0.147681
C2    C     C_R   0.510657 0.498173 0.684517 0.071178
C3    C     C_R   0.059027 0.848030 0.908353 -0.121982
C4    C     C_R   0.312429 0.361219 0.998714 0.073341
C5    C     C_R   0.683110 0.354612 0.002221 0.070592
C6    C     C_R   0.885583 0.814772 0.999346 0.088283
C7    C     C_R   0.120797 0.816334 0.000366 0.071319
C8    C     C_R   0.951739 0.998503 0.277387 0.073617
C9    C     C_R   0.941550 0.998943 0.636518 0.070173
C10   C     C_R   0.202053 0.499360 0.632708 0.145318
C11   C     C_R   0.820587 0.498257 0.337692 0.139055
C12   C     C_R   0.676647 0.998999 0.730439 0.135783
C13   C     C_R   0.314537 0.998802 0.351027 0.132797
C14   C     C_2   0.969968 0.458312 0.395759 -0.113425
C15   C     C_2   0.072706 0.454807 0.470334 -0.120366
C16   C     C_2   0.426160 0.958404 0.532022 -0.116662
C17   C     C_R   0.686341 0.371600 0.091943 -0.143489
C18   C     C_2   0.522252 0.954905 0.633258 -0.113101
C19   C     C_2   0.922398 0.496540 0.410882 -0.203859
C20   C     C_2   0.122902 0.500459 0.518197 -0.197794
C21   C     C_2   0.402254 0.999463 0.460187 -0.196909
C22   C     C_2   0.574975 0.000217 0.678846 -0.193987
C23   C     C_R   0.260882 0.687442 0.102641 0.166000
C24   C     C_R   0.737173 0.690774 0.897379 0.168038
C25   C     C_R   0.892344 0.265408 0.104957 0.162351
C26   C     C_R   0.110837 0.265751 0.896643 0.158272
C27   C     C_R   0.239442 0.665904 0.003757 0.033453
C28   C     C_R   0.856632 0.846968 0.909479 -0.162413
C29   C     C_R   0.756026 0.671805 0.996662 0.035788
C30   C     C_R   0.865603 0.241720 0.005580 0.030889
C31   C     C_R   0.139827 0.240871 0.995886 0.032420
C32   C     C_R   0.152955 0.681625 0.906097 -0.199582
C33   C     C_R   0.844554 0.684752 0.094031 -0.199185
C34   C     C_R   0.804272 0.271767 0.908458 -0.204314
C35   C     C_R   0.199183 0.271247 0.092982 -0.200346
C36   C     C_R   0.751265 0.315129 0.908658 -0.198949
C37   C     C_R   0.247043 0.317540 0.092298 -0.198714
C38   C     C_R   0.104544 0.727947 0.905648 -0.201511
C39   C     C_R   0.148240 0.848011 0.090840 -0.142092
C40   C     C_R   0.898548 0.727436 0.093725 -0.205866
C41   C     C_R   0.760170 0.327801 0.005906 0.036620
C42   C     C_R   0.236018 0.332838 0.994782 0.032225
C43   C     C_R   0.142510 0.757983 0.003108 0.033141
C44   C     C_R   0.863270 0.756733 0.996018 0.029968
C45   C     C_R   0.400599 0.622212 0.091177 -0.147560
C46   C     C_R   0.594715 0.629241 0.909357 -0.140693
C47   C     C_R   0.945181 0.151446 0.091145 -0.160737
C48   C     C_R   0.058317 0.150719 0.908803 -0.141908
C49   C     C_R   0.839975 0.308041 0.105062 0.162570
C50   C     C_R   0.312062 0.637394 0.000246 0.072308
C51   C     C_R   0.158628 0.310973 0.895970 0.166376
C52   C     C_R   0.212545 0.732708 0.102163 0.159012
C53   C     C_R   0.790612 0.732638 0.897024 0.163465
C54   C     C_3   0.851380 0.286998 0.206130 -0.527424
C55   C     C_3   0.149247 0.291200 0.795256 -0.523394
C56   C     C_3   0.299275 0.755972 0.203743 -0.519618
C57   C     C_3   0.706203 0.757422 0.794457 -0.524290
C58   C     C_3   0.352550 0.706860 0.204146 -0.523204
C59   C     C_3   0.647861 0.711823 0.795037 -0.529287
C60   C     C_3   0.908556 0.240360 0.206127 -0.521557
C61   C     C_R   0.682526 0.644738 0.999933 0.069791
C62   C     C_3   0.096466 0.242108 0.795809 -0.518553
C63   C     C_R   0.574858 0.446427 0.599353 0.164029
C64   C     C_R   0.595893 0.445667 0.523969 0.160521
C65   C     C_R   0.902114 0.947531 0.472281 0.157499
C66   C     C_R   0.903943 0.947085 0.381528 0.164963
C67   C     C_R   0.558831 0.496547 0.631659 0.041533
C68   C     C_R   0.601726 0.495391 0.480603 0.028852
C69   C     C_R   0.905345 0.997381 0.520960 0.033159
C70   C     C_R   0.907877 0.996629 0.336250 0.032645
C71   C     C_R   0.592051 0.544988 0.613170 -0.198307
C72   C     C_R   0.884230 0.183715 0.001325 0.084376
C73   C     C_R   0.614531 0.544314 0.537666 -0.206939
C74   C     C_R   0.884771 0.046053 0.459823 -0.200147
C75   C     C_R   0.885447 0.045596 0.366802 -0.199343
C76   C     C_3   0.536668 0.394972 0.470050 -0.521465
C77   C     C_3   0.514960 0.395831 0.553737 -0.529977
C78   C     C_3   0.966696 0.897153 0.421920 -0.523969
C79   C     C_3   0.963817 0.897542 0.520482 -0.516835
C80   C     C_R   0.553464 0.453104 0.303522 -0.162252
C81   C     C_R   0.491496 0.452982 0.723739 -0.141163
C82   C     C_R   0.979376 0.952992 0.246794 -0.147204
C83   C     C_R   0.120939 0.182567 0.999232 0.070698
C84   C     C_R   0.954157 0.953424 0.698995 -0.142457
C85   C     C_R   0.247157 0.545052 0.695940 -0.165098
C86   C     C_R   0.765856 0.544723 0.289303 -0.144966
C87   C     C_R   0.732260 0.045186 0.754302 -0.150907
C88   C     C_R   0.262564 0.045138 0.293922 -0.144464
C89   C     C_R   0.550665 0.544355 0.304206 -0.141223
C90   C     C_R   0.491301 0.544519 0.721725 -0.132193
C91   C     C_R   0.981394 0.045118 0.250728 -0.123615
C92   C     C_R   0.956260 0.045116 0.699069 -0.123700
C93   C     C_R   0.248377 0.453665 0.696596 -0.131299
C94   C     C_R   0.569196 0.497926 0.367269 0.089549
C95   C     C_R   0.763526 0.453061 0.289006 -0.138914
C96   C     C_R   0.733276 0.953039 0.754610 -0.116237
C97   C     C_R   0.261056 0.952945 0.293655 -0.121252
C98   C     C_R   0.309572 0.624793 0.907718 -0.124173
C99   C     C_R   0.686794 0.629437 0.092093 -0.123264
C100  C     C_R   0.852493 0.152087 0.909213 -0.137474
C101  C     C_R   0.150830 0.151044 0.091341 -0.122194
C102  C     C_R   0.402342 0.374032 0.091688 -0.125161
C103  C     C_R   0.593872 0.367691 0.909752 -0.123819
C104  C     C_R   0.944809 0.846724 0.091138 -0.140493
H1    H     H_    0.251220 0.374972 0.823370 0.110815
H2    H     H_    0.866707 0.667237 0.171962 0.126170
H3    H     H_    0.787289 0.257703 0.830496 0.124073
H4    H     H_    0.217961 0.256064 0.171123 0.124376
H5    H     H_    0.696059 0.333416 0.831018 0.124943
H6    H     H_    0.300933 0.336216 0.169948 0.126832
H7    H     H_    0.045184 0.743417 0.827509 0.123011
H8    H     H_    0.959664 0.741740 0.171641 0.124020
H9    H     H_    0.894426 0.315142 0.277197 0.186340
H10   H     H_    0.103736 0.318753 0.723604 0.191571
H11   H     H_    0.323407 0.795299 0.189411 0.204287
H12   H     H_    0.744279 0.367125 0.176128 0.102458
H13   H     H_    0.685218 0.798392 0.806981 0.199746
H14   H     H_    0.783733 0.272638 0.191149 0.200700
H15   H     H_    0.218037 0.279296 0.810454 0.200948
H16   H     H_    0.293812 0.756161 0.274130 0.188048
H17   H     H_    0.711694 0.754861 0.724209 0.189431
H18   H     H_    0.378435 0.679057 0.275300 0.192131
H19   H     H_    0.619395 0.683114 0.724802 0.186538
H20   H     H_    0.872941 0.199923 0.191545 0.199570
H21   H     H_    0.135431 0.202831 0.811095 0.204617
H22   H     H_    0.591167 0.584078 0.647036 0.122055
H23   H     H_    0.825283 0.832971 0.826759 0.100345
H24   H     H_    0.627660 0.583150 0.513374 0.125300
H25   H     H_    0.879176 0.085266 0.489727 0.125133
H26   H     H_    0.880556 0.084495 0.328603 0.127000
H27   H     H_    0.471781 0.402081 0.385795 0.199574
H28   H     H_    0.546872 0.360509 0.611726 0.186107
H29   H     H_    0.930537 0.860767 0.368304 0.190782
H30   H     H_    0.034338 0.906021 0.598189 0.204763
H31   H     H_    0.580159 0.358849 0.479041 0.189049
H32   H     H_    0.438609 0.403757 0.516619 0.199936
H33   H     H_    0.039148 0.905513 0.444319 0.201015
H34   H     H_    0.182500 0.833901 0.174119 0.098047
H35   H     H_    0.925312 0.861615 0.522949 0.186789
H36   H     H_    0.425868 0.623143 0.175852 0.111998
H37   H     H_    0.566006 0.637045 0.825684 0.101153
H38   H     H_    0.996134 0.165192 0.174266 0.101102
H39   H     H_    0.009277 0.164570 0.825251 0.098645
H40   H     H_    0.577239 0.411419 0.330983 0.103139
H41   H     H_    0.486968 0.410896 0.700459 0.096547
H42   H     H_    0.964461 0.910363 0.250206 0.111073
H43   H     H_    0.933365 0.911565 0.671041 0.099690
H44   H     H_    0.568204 0.586393 0.332638 0.084964
H45   H     H_    0.958044 0.528380 0.472937 0.133621
H46   H     H_    0.484410 0.585889 0.692197 0.083039
H47   H     H_    0.971242 0.087717 0.262088 0.092693
H48   H     H_    0.940238 0.087380 0.671472 0.085234
H49   H     H_    0.240272 0.411662 0.668750 0.082600
H50   H     H_    0.781391 0.411146 0.318240 0.086983
H51   H     H_    0.713260 0.910317 0.746838 0.090360
H52   H     H_    0.275689 0.910470 0.320232 0.086144
H53   H     H_    0.251261 0.630565 0.822770 0.093836
H54   H     H_    0.743429 0.637799 0.176174 0.088481
H55   H     H_    0.815188 0.166595 0.825664 0.083199
H56   H     H_    0.093060 0.540589 0.482231 0.132812
H57   H     H_    0.189266 0.165166 0.175149 0.083529
H58   H     H_    0.428713 0.368554 0.176494 0.092508
H59   H     H_    0.565182 0.355098 0.827428 0.084332
H60   H     H_    0.991096 0.832497 0.174929 0.082258
H61   H     H_    0.014057 0.834238 0.824248 0.082627
H62   H     H_    0.932870 0.426266 0.334325 0.122699
H63   H     H_    0.102527 0.414129 0.500637 0.117518
H64   H     H_    0.379707 0.923260 0.510146 0.119333
H65   H     H_    0.553781 0.914196 0.657072 0.118560
H66   H     H_    0.406585 0.718810 0.189836 0.200837
H67   H     H_    0.448826 0.034218 0.479449 0.133016
H68   H     H_    0.595083 0.727562 0.808647 0.199710
H69   H     H_    0.984485 0.241635 0.277208 0.189157
H70   H     H_    0.020426 0.241662 0.724929 0.187838
H71   H     H_    0.236690 0.587035 0.666823 0.091781
H72   H     H_    0.786842 0.586627 0.316591 0.085728
H73   H     H_    0.710229 0.087627 0.745448 0.100637
H74   H     H_    0.278451 0.087274 0.322380 0.094361
H75   H     H_    0.541668 0.040517 0.659765 0.131345
H76   H     H_    0.129201 0.663250 0.828344 0.125577
N1    N     N_R   0.395410 0.396350 0.944340 -0.042089
N2    N     N_R   0.474920 0.471030 0.794350 -0.036926
N3    N     N_R   0.025080 0.971030 0.205650 -0.041335
N4    N     N_R   0.974920 0.971030 0.794350 -0.039854
N5    N     N_R   0.320260 0.527820 0.794570 -0.038336
N6    N     N_R   0.679740 0.527820 0.205430 -0.037397
N7    N     N_R   0.820260 0.027820 0.794570 -0.042193
N8    N     N_R   0.179740 0.027820 0.205430 -0.041691
N9    N     N_R   0.524590 0.527840 0.205200 -0.038188
N10   N     N_R   0.475410 0.527840 0.794800 -0.036303
N11   N     N_R   0.024590 0.027840 0.205200 -0.040646
N12   N     N_R   0.604590 0.396350 0.055660 -0.040499
N13   N     N_R   0.975410 0.027840 0.794800 -0.040175
N14   N     N_R   0.320750 0.471000 0.795020 -0.042731
N15   N     N_R   0.679250 0.471000 0.204980 -0.039284
N16   N     N_R   0.820750 0.971000 0.795020 -0.045375
N17   N     N_R   0.179250 0.971000 0.204980 -0.044260
N18   N     N_R   0.393620 0.602490 0.942710 -0.041995
N19   N     N_R   0.606380 0.602490 0.057290 -0.041180
N20   N     N_R   0.893620 0.102490 0.942710 -0.036876
N21   N     N_R   0.106380 0.102490 0.057290 -0.038580
N22   N     N_R   0.451720 0.396350 0.057510 -0.041520
N23   N     N_R   0.895410 0.896350 0.944340 -0.036666
N24   N     N_R   0.548280 0.396350 0.942490 -0.040299
N25   N     N_R   0.951720 0.896350 0.057510 -0.036683
N26   N     N_R   0.048280 0.896350 0.942490 -0.038263
N27   N     N_R   0.104590 0.896350 0.055660 -0.038089
N28   N     N_R   0.449930 0.602500 0.055880 -0.042561
N29   N     N_R   0.550070 0.602500 0.944120 -0.041208
N30   N     N_R   0.949930 0.102500 0.055880 -0.036779
N31   N     N_R   0.050070 0.102500 0.944120 -0.038743
N32   N     N_R   0.525080 0.471030 0.205650 -0.037117
Ni1   Ni    Ni4+2 0.435420 0.434270 0.870230 0.209945
Ni2   Ni    Ni4+2 0.564580 0.434270 0.129770 0.208972
Ni3   Ni    Ni4+2 0.935420 0.934270 0.870230 0.204093
Ni4   Ni    Ni4+2 0.064580 0.934270 0.129770 0.204369
Ni5   Ni    Ni4+2 0.563430 0.564580 0.128740 0.210942
Ni6   Ni    Ni4+2 0.436570 0.564580 0.871260 0.212815
Ni7   Ni    Ni4+2 0.063430 0.064580 0.128740 0.208124
Ni8   Ni    Ni4+2 0.936570 0.064580 0.871260 0.206378

loop_
_geom_bond_atom_site_label_1
_geom_bond_atom_site_label_2
_ccdc_geom_bond_type
N26   Ni3   S    
C47   N30   A    
C23   C58   S    
C79   H35   S    
C5    C103  A    
C10   C85   A    
C16   C21   D    
C65   C79   S    
C29   C33   A    
N7    N16   A    
N13   Ni8   S    
C93   N14   A    
N19   Ni5   S    
N5    N14   A    
C90   H46   S    
N14   Ni1   S    
N20   N30   A    
C40   H8    S    
C54   C60   S    
N31   Ni8   S    
N23   N25   A    
C47   H38   S    
C11   C19   S    
C8    C82   A    
N29   Ni6   S    
C64   C68   A    
C98   N18   A    
N23   Ni3   S    
C35   C37   A    
C9    C69   S    
C89   H44   S    
C3    C7    A    
C32   C38   A    
C72   C100  A    
C76   H27   S    
C43   C52   A    
C57   C59   S    
C96   H51   S    
C5    C17   A    
C11   C86   A    
C49   C54   S    
C62   H70   S    
C54   H9    S    
C12   C22   S    
C89   C94   A    
C31   C83   S    
C60   H20   S    
C97   H52   S    
C41   C49   A    
C37   C42   A    
C2    C90   A    
C103  N24   A    
N15   Ni2   S    
C35   H4    S    
C18   H65   S    
C85   H71   S    
C24   C29   A    
C44   C53   A    
C6    C28   A    
C23   C27   A    
N1    N22   A    
N25   Ni4   S    
C10   C20   S    
C80   H40   S    
C4    C102  A    
C92   H48   S    
N2    Ni1   S    
C95   N15   A    
C98   H53   S    
C71   H22   S    
N18   Ni6   S    
C25   C60   S    
C7    C43   S    
C14   H62   S    
C83   C101  A    
C40   C44   A    
C86   H72   S    
C27   C50   S    
C42   C51   A    
C80   N32   A    
C63   C77   S    
C26   C62   S    
C39   H34   S    
C26   C31   A    
C6    C44   S    
C59   H19   S    
C60   H69   S    
C56   H16   S    
C15   H63   S    
C36   C41   A    
C61   C99   A    
C81   N2    A    
N10   Ni6   S    
C9    C92   A    
N12   Ni2   S    
C82   H42   S    
C76   H31   S    
N9    Ni5   S    
C46   H37   S    
C29   C61   S    
N7    Ni8   S    
C17   N12   A    
C85   N5    A    
C15   C20   D    
C66   C78   S    
N6    Ni5   S    
C63   C67   A    
C50   C98   A    
C33   C40   A    
C58   H18   S    
C74   C75   A    
C30   C34   A    
C46   C61   A    
N18   N28   A    
C97   N17   A    
N6    N15   A    
C84   N4    A    
C76   C77   S    
N21   Ni7   S    
N8    N17   A    
C2    C67   S    
N5    Ni6   S    
N11   Ni7   S    
C71   C73   A    
N16   Ni3   S    
C1    N1    A    
N26   N27   A    
C25   C30   A    
N4    Ni3   S    
C87   N7    A    
C10   C93   A    
C68   C73   A    
C21   H67   S    
C91   N11   A    
C82   N3    A    
C45   H36   S    
C68   C94   S    
N30   Ni7   S    
C48   H39   S    
C39   N27   A    
N19   N29   A    
C77   H28   S    
C87   H73   S    
C48   N31   A    
C96   N16   A    
C102  H58   S    
C64   C76   S    
C13   C21   S    
C69   C74   A    
C8    C91   A    
C104  N25   A    
N22   Ni2   S    
C92   N13   A    
C37   H6    S    
N17   Ni4   S    
C34   C36   A    
C100  N20   A    
C77   H32   S    
N32   Ni2   S    
C86   N6    A    
C45   N28   A    
C81   H41   S    
C54   H14   S    
C75   H26   S    
N20   Ni8   S    
C31   C35   A    
C99   H54   S    
C34   H3    S    
C80   C94   A    
C59   H68   S    
C73   H24   S    
C78   H33   S    
C36   H5    S    
C3    H61   S    
C57   H13   S    
C90   N10   A    
N8    Ni7   S    
C11   C95   A    
N28   Ni5   S    
C79   H30   S    
C5    C41   S    
C53   C57   S    
N12   N24   A    
C12   C87   A    
C58   H66   S    
C27   C32   A    
C18   C22   D    
C3    N26   A    
C8    C70   S    
C14   C19   D    
C32   H76   S    
C33   H2    S    
C22   H75   S    
N9    N32   A    
N3    N11   A    
C104  H60   S    
C62   H21   S    
C30   C72   S    
C28   H23   S    
C88   H74   S    
C55   H15   S    
C55   H10   S    
C84   H43   S    
C46   N29   A    
C67   C71   A    
C103  H59   S    
C6    C104  A    
C48   C83   A    
C7    C39   A    
C95   H50   S    
C1    C4    A    
C101  H57   S    
C24   C53   A    
C38   C43   A    
C101  N21   A    
C26   C51   A    
N3    Ni4   S    
C91   H47   S    
C78   C79   S    
C100  H55   S    
C23   C52   A    
C66   C70   A    
C4    C42   S    
C45   C50   A    
C16   H64   S    
C24   C59   S    
C65   C69   A    
N24   Ni1   S    
C13   C88   A    
C93   H49   S    
N27   Ni4   S    
C19   H45   S    
C56   H11   S    
C56   C58   S    
C51   C55   S    
C102  N22   A    
C78   H29   S    
C25   C49   A    
C47   C72   A    
C9    C84   A    
C57   H17   S    
C63   C64   A    
C52   C56   S    
C88   N8    A    
C13   C97   A    
C55   C62   S    
C28   N23   A    
C16   C18   S    
C65   C66   A    
C20   H56   S    
C74   H25   S    
C99   N19   A    
C70   C75   A    
C89   N9    A    
C14   C15   S    
C12   C96   A    
C2    C81   A    
N1    Ni1   S    
N2    N10   A    
C38   H7    S    
N21   N31   A    
N4    N13   A    
C17   H12   S    
C1    H1    S    
