data_mof_unit_42572.cif
_audit_creation_date              2012-12-10T17:02:16-0500
_audit_creation_method            fapswitch 2.2
_symmetry_space_group_name_H-M    P1
_symmetry_Int_Tables_number       1
_space_group_crystal_system       triclinic
_cell_length_a                    10.634042
_cell_length_b                    10.728717
_cell_length_c                    10.040458
_cell_angle_alpha                 89.996359
_cell_angle_beta                  89.83821
_cell_angle_gamma                 90.433036
_cell_volume                      1145.47482225

loop_
_atom_site_label
_atom_site_type_symbol
_atom_type_description
_atom_site_fract_x
_atom_site_fract_y
_atom_site_fract_z
_atom_type_partial_charge
C1    C     C_R   0.494928 0.262533 0.499915 0.754683
C2    C     C_R   0.064608 0.386181 0.547280 0.008844
C3    C     C_R   0.127873 0.493671 0.500158 -0.143556
C4    C     C_R   0.064808 0.597495 0.450319 0.446827
C5    C     C_R   0.935096 0.595297 0.449974 -0.323252
C6    C     C_R   0.871316 0.491557 0.499220 -0.106755
C7    C     C_2   0.515733 0.933289 0.388081 -0.116873
C8    C     C_2   0.528880 0.867606 0.499600 -0.236867
C9    C     C_2   0.523110 0.067163 0.393909 -0.198516
C10   C     C_2   0.476968 0.130044 0.498326 0.282865
C11   C     C_2   0.564562 0.578978 0.924788 -0.111170
C12   C     C_R   0.260551 0.498897 0.500143 0.966397
C13   C     C_2   0.569293 0.574990 0.074746 -0.120390
C14   C     C_R   0.506778 0.737012 0.499875 0.939433
C15   C     C_R   0.739273 0.498116 0.499793 0.888595
C16   C     C_R   0.129165 0.279167 0.590657 -0.249224
C17   C     C_R   0.063693 0.173796 0.634339 -0.154556
C18   C     C_R   0.932592 0.171885 0.637402 0.530471
C19   C     C_R   0.867363 0.277154 0.590346 -0.306947
C20   C     C_R   0.933173 0.385058 0.546941 0.056405
H1    H     H_    0.619385 0.650988 0.875111 0.160229
H2    H     H_    0.453963 0.429474 0.897895 0.161238
H3    H     H_    0.632756 0.639665 0.124066 0.156424
H4    H     H_    0.436984 0.443928 0.102401 0.166159
H5    H     H_    0.230497 0.275395 0.589468 0.157050
H6    H     H_    0.115544 0.092594 0.666109 0.184228
H7    H     H_    0.766068 0.273416 0.584621 0.131738
H8    H     H_    0.883403 0.675131 0.413499 0.142033
H9    H     H_    0.498755 0.889646 0.292073 0.166977
H10   H     H_    0.555980 0.910510 0.593219 0.189631
H11   H     H_    0.568022 0.114429 0.310419 0.134596
N1    N     N_2   0.501340 0.501330 0.852150 -0.190627
N2    N     N_2   0.501380 0.501360 0.147810 -0.189187
O1    O     O_R   0.499980 0.319060 0.613040 -0.642901
O2    O     O_R   0.500020 0.319100 0.386900 -0.623799
O3    O     O_R   0.316750 0.499980 0.613090 -0.616889
O4    O     O_R   0.316790 0.500020 0.386950 -0.583743
O5    O     O_R   0.499980 0.680900 0.613100 -0.609426
O6    O     O_R   0.500020 0.680940 0.386960 -0.607877
O7    O     O_R   0.683210 0.499980 0.613050 -0.615958
O8    O     O_R   0.683250 0.500020 0.386910 -0.613336
Zn1   Zn    Zn3+2 0.499970 0.499970 0.650990 0.947402
Zn2   Zn    Zn3+2 0.500030 0.500030 0.349010 0.966663
O9    O     O_3   0.132177 0.699987 0.405022 -0.753584
H12   H     H_    0.072772 0.764608 0.374080 0.339758
O10   O     O_3   0.406783 0.070954 0.596822 -0.776745
H13   H     H_    0.382455 0.132325 0.665715 0.330450
O11   O     O_3   0.873572 0.061570 0.676416 -0.616922
C21   C     C_3   0.763723 0.083384 0.752280 0.099485
H14   H     H_    0.683161 0.101443 0.685043 0.155950
H15   H     H_    0.775839 0.162922 0.822789 0.141528
C22   C     C_3   0.732886 0.967457 0.833735 -0.815616
H16   H     H_    0.809814 0.948941 0.905499 0.255828
H17   H     H_    0.643941 0.981452 0.889830 0.209965
H18   H     H_    0.721643 0.885473 0.767158 0.252866

loop_
_geom_bond_atom_site_label_1
_geom_bond_atom_site_label_2
_ccdc_geom_bond_type
C10   O10   S    
O6    Zn2   S    
C13   N2    D    
C7    H9    S    
C2    C16   A    
C12   O3    A    
C5    H8    S    
C6    C20   A    
C9    C10   D    
O3    Zn1   S    
C19   C20   A    
O1    Zn1   S    
C22   H18   S    
C21   C22   S    
C8    H10   S    
O7    Zn1   S    
C2    C3    A    
C6    C15   S    
C7    C8    D    
C22   H16   S    
O8    Zn2   S    
C15   O8    A    
C16   C17   A    
H2    N1    S    
C17   H6    S    
O11   C21   S    
C22   H17   S    
C11   N1    D    
C17   C18   A    
C5    C6    A    
C15   O7    A    
C14   O5    A    
C9    H11   S    
C1    O1    A    
C2    C20   A    
C3    C4    A    
N2    Zn2   S    
O5    Zn1   S    
C11   C13   S    
O2    Zn2   S    
O9    H12   S    
C13   H3    S    
C21   H14   S    
C12   O4    A    
C16   H5    S    
C7    C9    S    
C1    O2    A    
N1    Zn1   S    
O10   H13   S    
C18   C19   A    
C8    C14   S    
C3    C12   S    
C4    O9    S    
C19   H7    S    
C14   O6    A    
C11   H1    S    
O4    Zn2   S    
C1    C10   S    
H4    N2    S    
C4    C5    A    
C21   H15   S    
C18   O11   S    
