data_mof_unit_8451.cif
_audit_creation_date              2012-12-11T14:08:18-0500
_audit_creation_method            fapswitch 2.2
_symmetry_space_group_name_H-M    P1
_symmetry_Int_Tables_number       1
_space_group_crystal_system       triclinic
_cell_length_a                    10.88479
_cell_length_b                    10.915397
_cell_length_c                    18.626976
_cell_angle_alpha                 90.457214
_cell_angle_beta                  89.952647
_cell_angle_gamma                 60.731129
_cell_volume                      1930.4788585

loop_
_atom_site_label
_atom_site_type_symbol
_atom_type_description
_atom_site_fract_x
_atom_site_fract_y
_atom_site_fract_z
_atom_type_partial_charge
C1    C     C_R   0.236148 0.645536 0.608828 0.548937
C2    C     C_3   0.671935 0.549445 0.800034 0.089061
C3    C     C_3   0.700541 0.673613 0.812315 0.062562
C4    C     C_3   0.669785 0.648620 0.676199 0.031271
C5    C     C_3   0.817568 0.630698 0.689746 -0.244298
C6    C     C_3   0.650278 0.537324 0.719533 -0.175880
C7    C     C_2   0.677625 0.149181 0.668501 -0.137305
C8    C     C_2   0.693153 0.158800 0.825763 -0.053652
C9    C     C_2   0.805111 0.106041 0.781224 -0.108998
C10   C     C_2   0.787365 0.141969 0.704668 -0.163886
C11   C     C_2   0.181442 0.662101 0.681715 -0.124405
C12   C     C_R   0.654297 0.623132 0.600850 0.541356
C13   C     C_2   0.196459 0.662088 0.839720 -0.120243
C14   C     C_2   0.194691 0.559815 0.800263 -0.177780
C15   C     C_2   0.222268 0.548058 0.722945 -0.175748
C16   C     C_2   0.650282 0.646595 0.317165 -0.093184
C17   C     C_2   0.633304 0.664293 0.159300 -0.100272
C18   C     C_2   0.708212 0.545152 0.195060 -0.158806
C19   C     C_2   0.692742 0.536199 0.271959 -0.153567
C20   C     C_2   0.600019 0.263801 0.312883 -0.107535
C21   C     C_2   0.631558 0.213954 0.160584 -0.104590
C22   C     C_2   0.508350 0.258797 0.194536 -0.145226
C23   C     C_R   0.628759 0.226088 0.601400 0.558026
C24   C     C_2   0.489447 0.309195 0.268784 -0.160948
C25   C     C_2   0.114992 0.686187 0.346232 -0.108927
C26   C     C_2   0.047196 0.723624 0.194982 -0.096323
C27   C     C_2   0.004829 0.831895 0.240992 -0.162042
C28   C     C_2   0.058758 0.811513 0.314382 -0.145401
C29   C     C_R   0.704279 0.100468 0.896958 0.560019
C30   C     C_R   0.723977 0.688251 0.888361 0.573096
C31   C     C_R   0.119995 0.705986 0.907650 0.553958
C32   C     C_R   0.672570 0.115256 0.101256 0.551663
C33   C     C_R   0.692056 0.688355 0.094498 0.550948
C34   C     C_R   0.215455 0.651430 0.404023 0.547850
C35   C     C_R   0.022866 0.748849 0.119162 0.568182
C36   C     C_R   0.641617 0.621147 0.392693 0.545988
C37   C     C_R   0.578695 0.297287 0.388155 0.569947
C38   C     C_3   0.573322 0.810760 0.782990 -0.273469
C39   C     C_3   0.556999 0.796928 0.702123 -0.259698
C40   C     C_3   0.834489 0.649100 0.769947 -0.207773
Cr1   Cr    Cr6+3 0.393010 0.398050 0.501480 1.016796
Cr2   Cr    Cr6+3 0.398820 0.707980 0.501630 1.018575
Cr3   Cr    Cr6+3 0.708140 0.393940 0.496850 1.013573
Cr4   Cr    Cr6+3 0.937950 0.938450 0.008940 1.043037
Cr5   Cr    Cr6+3 0.626180 0.937030 0.994750 1.019427
Cr6   Cr    Cr6+3 0.937790 0.625760 0.001410 1.048364
H1    H     H_    0.589542 0.902708 0.792622 0.149432
H2    H     H_    0.725087 0.429690 0.699923 0.186350
H3    H     H_    0.929456 0.553884 0.789200 0.184827
H4    H     H_    0.901070 0.524578 0.672110 0.156593
H5    H     H_    0.910502 0.036429 0.800899 0.158537
H6    H     H_    0.860359 0.169701 0.679522 0.166277
H7    H     H_    0.588301 0.229395 0.805657 0.105635
H8    H     H_    0.610067 0.114228 0.693707 0.098934
H9    H     H_    0.165466 0.487049 0.823925 0.161238
H10   H     H_    0.277023 0.442901 0.699873 0.162347
H11   H     H_    0.233629 0.729272 0.816578 0.104572
H12   H     H_    0.474556 0.831849 0.811214 0.124284
H13   H     H_    0.124519 0.767289 0.704645 0.103098
H14   H     H_    0.794567 0.453996 0.169277 0.155610
H15   H     H_    0.729870 0.431156 0.292553 0.146262
H16   H     H_    0.541497 0.752553 0.183469 0.113436
H17   H     H_    0.612457 0.753013 0.298587 0.098907
H18   H     H_    0.425677 0.242671 0.171444 0.158655
H19   H     H_    0.382790 0.370484 0.289657 0.139141
H20   H     H_    0.710739 0.238070 0.181146 0.093261
H21   H     H_    0.707584 0.197480 0.294592 0.096683
H22   H     H_    0.946841 0.938983 0.221472 0.135891
H23   H     H_    0.448818 0.814557 0.691821 0.152253
H24   H     H_    0.068529 0.897385 0.338372 0.158045
H25   H     H_    0.108655 0.615181 0.211526 0.104935
H26   H     H_    0.097377 0.602651 0.325918 0.099617
H27   H     H_    0.569143 0.878894 0.672801 0.125886
H28   H     H_    0.853446 0.739675 0.778331 0.103954
H29   H     H_    0.831916 0.709573 0.658690 0.114344
H30   H     H_    0.574582 0.570250 0.829619 0.124058
H31   H     H_    0.542469 0.552467 0.710766 0.094480
O1    O     O_R   0.507110 0.256280 0.580300 -0.515450
O2    O     O_R   0.524640 0.695370 0.425100 -0.491173
O3    O     O_R   0.735890 0.504390 0.415980 -0.519683
O4    O     O_R   0.690560 0.277820 0.422350 -0.503905
O5    O     O_3   0.499990 0.499990 0.499980 -0.271490
O6    O     O_R   0.089190 0.825870 0.932320 -0.509909
O7    O     O_R   0.819070 0.053960 0.931440 -0.473320
O8    O     O_R   0.607070 0.076440 0.916460 -0.526505
O9    O     O_R   0.647110 0.806550 0.917690 -0.523243
O10   O     O_R   0.837080 0.593860 0.915300 -0.457358
O11   O     O_R   0.064770 0.636080 0.932550 -0.496157
O12   O     O_R   0.280830 0.527190 0.577940 -0.498597
O13   O     O_R   0.068250 0.829200 0.092940 -0.500086
O14   O     O_R   0.799650 0.057040 0.080330 -0.520017
O15   O     O_R   0.586130 0.079760 0.077080 -0.507796
O16   O     O_R   0.627700 0.809630 0.066580 -0.496974
O17   O     O_R   0.816140 0.597180 0.075920 -0.512404
O18   O     O_R   0.045360 0.639170 0.081440 -0.497720
O19   O     O_3   0.833980 0.833750 0.001700 -0.285471
O20   O     O_R   0.261360 0.738990 0.584270 -0.516627
O21   O     O_R   0.532590 0.694780 0.574370 -0.504069
O22   O     O_R   0.744470 0.503750 0.577000 -0.527600
O23   O     O_R   0.698520 0.277230 0.571620 -0.494983
O24   O     O_R   0.498530 0.256920 0.419280 -0.498951
O25   O     O_R   0.272880 0.527780 0.428680 -0.521444
O26   O     O_R   0.252780 0.739630 0.423250 -0.507690
Cl1   Cl    Cl    0.811704 0.385577 0.832330 -0.651601

loop_
_geom_bond_atom_site_label_1
_geom_bond_atom_site_label_2
_ccdc_geom_bond_type
C7    C10   D    
Cr1   O12   S    
C21   H20   S    
C20   H21   S    
Cr2   O5    S    
Cr4   O6    S    
C10   H6    S    
Cr2   O26   S    
Cr4   O13   S    
C25   C28   D    
C26   C27   D    
C34   O25   A    
C6    H2    S    
C8    C29   S    
Cr3   O22   S    
Cr2   O21   S    
C38   C39   S    
C32   O14   A    
C13   H11   S    
C40   H3    S    
C31   O6    A    
Cr1   O25   S    
C18   C19   S    
Cr5   O15   S    
C12   O22   A    
C27   H22   S    
C38   H12   S    
C11   C15   D    
Cr6   O18   S    
C20   C24   D    
C3    C38   S    
Cr1   O24   S    
C8    C9    D    
C9    H5    S    
C16   H17   S    
C30   O9    A    
C9    C10   S    
C12   O21   A    
C25   C34   S    
C14   H9    S    
Cr5   O16   S    
Cr2   O2    S    
C21   C22   D    
C33   O17   A    
C26   H25   S    
C37   O4    A    
C2    C6    S    
C17   C33   S    
C11   H13   S    
Cr6   O11   S    
C21   C32   S    
Cr3   O23   S    
C29   O7    A    
C4    C6    S    
C36   O3    A    
Cr2   O20   S    
C1    O20   A    
Cr1   O1    S    
C6    H31   S    
Cr3   O3    S    
C5    H29   S    
C3    C30   S    
Cr5   O8    S    
Cr4   O19   S    
C17   H16   S    
Cr6   O17   S    
C4    C39   S    
C2    Cl1   S    
C17   C18   D    
C39   H23   S    
C25   H26   S    
C38   H1    S    
Cr4   O14   S    
C24   H19   S    
C18   H14   S    
C3    C40   S    
Cr3   O4    S    
C22   C24   S    
C5    H4    S    
C4    C12   S    
C2    H30   S    
Cr6   O10   S    
C1    O12   A    
C31   O11   A    
C29   O8    A    
C13   C31   S    
C28   H24   S    
C4    C5    S    
Cr4   O7    S    
C36   O2    A    
C33   O16   A    
C8    H7    S    
C35   O18   A    
C34   O26   A    
Cr5   O9    S    
C15   H10   S    
C2    C3    S    
C16   C36   S    
C37   O24   A    
C20   C37   S    
C32   O15   A    
C19   H15   S    
C16   C19   D    
C7    C23   S    
Cr1   O5    S    
C40   H28   S    
C23   O23   A    
C39   H27   S    
C23   O1    A    
C22   H18   S    
C35   O13   A    
C26   C35   S    
Cr6   O19   S    
C5    C40   S    
C27   C28   S    
Cr3   O5    S    
C14   C15   S    
C1    C11   S    
C7    H8    S    
C30   O10   A    
C13   C14   D    
Cr5   O19   S    
