data_mof_unit_14663.cif
_audit_creation_date              2012-12-10T19:45:47-0500
_audit_creation_method            fapswitch 2.2
_symmetry_space_group_name_H-M    P1
_symmetry_Int_Tables_number       1
_space_group_crystal_system       triclinic
_cell_length_a                    11.054143
_cell_length_b                    14.777019
_cell_length_c                    14.570963
_cell_angle_alpha                 65.546199
_cell_angle_beta                  105.158038
_cell_angle_gamma                 103.353004
_cell_volume                      2070.74375752

loop_
_atom_site_label
_atom_site_type_symbol
_atom_type_description
_atom_site_fract_x
_atom_site_fract_y
_atom_site_fract_z
_atom_type_partial_charge
C1    C     C_R   0.482314 0.119015 0.311293 0.802433
C2    C     C_R   0.506449 0.773106 0.976670 -0.211392
C3    C     C_R   0.503886 0.153513 0.128829 0.157124
C4    C     C_R   0.507204 0.844345 0.877073 0.206747
C5    C     C_R   0.475270 0.287137 0.174005 -0.292191
C6    C     C_R   0.525307 0.711740 0.825141 -0.299899
C7    C     C_R   0.494633 0.359509 0.077107 0.088942
C8    C     C_R   0.516624 0.638675 0.924199 0.089317
C9    C     C_R   0.506693 0.325244 0.003088 0.117921
C10   C     C_R   0.510372 0.672094 0.000525 0.115166
C11   C     C_R   0.502494 0.464628 0.051866 0.075763
C12   C     C_R   0.516671 0.880937 0.689046 0.789629
C13   C     C_R   0.512684 0.533590 0.949732 0.075198
C14   C     C_R   0.517539 0.494799 0.876930 -0.212794
C15   C     C_R   0.504480 0.503135 0.126396 -0.213580
C16   C     C_R   0.263605 0.996299 0.506465 0.803168
C17   C     C_R   0.738553 0.999114 0.501274 0.810328
C18   C     C_R   0.516297 0.392935 0.903811 -0.226667
C19   C     C_R   0.507142 0.604591 0.100731 -0.226922
C20   C     C_R   0.700775 0.284955 0.678602 -0.304285
C21   C     C_R   0.297412 0.716399 0.321176 -0.305405
C22   C     C_R   0.670898 0.203216 0.649011 0.373433
C23   C     C_R   0.874336 0.994947 0.508000 -0.151124
C24   C     C_R   0.322040 0.795343 0.355020 0.386820
C25   C     C_R   0.526971 0.289099 0.502811 0.006330
C26   C     C_R   0.479368 0.714260 0.492460 -0.017157
C27   C     C_R   0.555065 0.375751 0.531031 -0.041554
C28   C     C_R   0.455053 0.630061 0.461283 -0.062516
C29   C     C_R   0.644075 0.371053 0.621980 0.098636
C30   C     C_R   0.364173 0.634546 0.371320 0.102484
C31   C     C_R   0.494533 0.464557 0.475360 0.030095
C32   C     C_R   0.519812 0.543451 0.514235 0.014718
C33   C     C_R   0.609450 0.533864 0.604715 -0.237199
C34   C     C_R   0.132084 0.989942 0.517660 -0.156307
C35   C     C_R   0.408403 0.476176 0.382746 -0.236687
C36   C     C_R   0.673009 0.450750 0.657426 0.181525
C37   C     C_R   0.342090 0.558247 0.331651 0.171914
C38   C     C_R   0.342391 0.178357 0.715331 -0.154840
C39   C     C_R   0.766740 0.913669 0.214322 -0.149609
C40   C     C_R   0.272477 0.106565 0.675486 -0.115296
C41   C     C_R   0.826546 0.952927 0.289783 -0.177889
C42   C     C_R   0.191421 0.135905 0.579589 0.169807
C43   C     C_R   0.824307 0.893990 0.393797 0.162525
C44   C     C_R   0.179777 0.238096 0.524497 -0.157957
C45   C     C_R   0.909324 0.930962 0.471970 -0.050972
C46   C     C_R   0.761431 0.795087 0.421207 -0.101142
C47   C     C_R   0.247013 0.309373 0.565787 -0.138687
C48   C     C_R   0.703252 0.755742 0.345416 -0.134369
C49   C     C_R   0.328506 0.279605 0.660969 -0.103758
C50   C     C_R   0.705298 0.815061 0.242220 -0.111072
C51   C     C_R   0.972495 0.049021 0.558190 0.135766
C52   C     C_R   0.036237 0.915192 0.496494 0.124778
C53   C     C_3   0.770772 0.448842 0.752834 -0.899815
C54   C     C_3   0.248272 0.562556 0.233872 -0.896471
C55   C     C_3   0.240139 0.877215 0.291441 -0.822477
C56   C     C_R   0.098293 0.058770 0.548203 -0.045736
C57   C     C_3   0.735928 0.115436 0.723296 -0.861385
C58   C     C_3   0.947406 0.085001 0.633211 -0.842848
C59   C     C_3   0.064364 0.815544 0.506559 -0.780827
C60   C     C_3   0.489143 0.947792 0.862415 -0.930963
C61   C     C_3   0.525518 0.048033 0.155351 -0.826625
C62   C     C_R   0.483267 0.185459 0.202137 -0.068833
C63   C     C_R   0.518860 0.813860 0.799122 -0.065682
C64   C     C_R   0.510634 0.223397 0.029055 -0.194871
Cu1   Cu    Cu3+1 0.466270 0.918260 0.475690 0.934777
Cu2   Cu    Cu3+1 0.533730 0.081740 0.524310 0.934957
H1    H     H_    0.380561 0.335048 0.692581 0.131024
H2    H     H_    0.224970 0.720802 0.253666 0.162908
H3    H     H_    0.632079 0.590320 0.637318 0.126661
H4    H     H_    0.389851 0.421342 0.348307 0.130818
H5    H     H_    0.404257 0.155333 0.789648 0.129478
H6    H     H_    0.769643 0.959237 0.134377 0.131893
H7    H     H_    0.114062 0.261728 0.452142 0.130683
H8    H     H_    0.762294 0.747432 0.501174 0.111291
H9    H     H_    0.234724 0.387606 0.524592 0.149673
H10   H     H_    0.659457 0.678432 0.366466 0.142366
H11   H     H_    0.522631 0.366839 0.846033 0.145087
H12   H     H_    0.661387 0.783948 0.184151 0.120851
H13   H     H_    0.506584 0.630422 0.160255 0.151411
H14   H     H_    0.536328 0.690947 0.765644 0.152334
H15   H     H_    0.453622 0.307849 0.229957 0.145883
H16   H     H_    0.781947 0.518081 0.768482 0.235150
H17   H     H_    0.742511 0.384487 0.821022 0.229935
H18   H     H_    0.864452 0.442354 0.743301 0.237550
H19   H     H_    0.245289 0.497704 0.212963 0.236784
H20   H     H_    0.151630 0.561707 0.243573 0.234575
H21   H     H_    0.274794 0.631824 0.168962 0.233738
H22   H     H_    0.253730 0.939253 0.316667 0.279886
H23   H     H_    0.523275 0.198875 0.971933 0.126836
H24   H     H_    0.254202 0.909186 0.210917 0.193281
H25   H     H_    0.139079 0.844114 0.289250 0.193708
H26   H     H_    0.731585 0.060458 0.691398 0.287394
H27   H     H_    0.837916 0.140699 0.746343 0.202095
H28   H     H_    0.695526 0.080358 0.793920 0.221674
H29   H     H_    0.275415 0.027617 0.720779 0.121722
H30   H     H_    0.877753 0.028369 0.267469 0.126903
H31   H     H_    0.032575 0.108054 0.682684 0.230032
H32   H     H_    0.896042 0.151021 0.591910 0.264287
H33   H     H_    0.897996 0.019428 0.688287 0.218918
H34   H     H_    0.497876 0.796505 0.035895 0.136160
H35   H     H_    0.988393 0.754238 0.536346 0.208136
H36   H     H_    0.071748 0.818520 0.431270 0.241175
H37   H     H_    0.150726 0.792819 0.564630 0.242850
H38   H     H_    0.483078 0.003072 0.783662 0.269201
H39   H     H_    0.399798 0.942773 0.886736 0.224163
H40   H     H_    0.567954 0.977157 0.912401 0.222594
H41   H     H_    0.601023 0.026498 0.224245 0.253025
H42   H     H_    0.437590 0.995708 0.170468 0.243792
H43   H     H_    0.555246 0.040272 0.092084 0.209895
H44   H     H_    0.523550 0.540808 0.798175 0.141724
H45   H     H_    0.506391 0.457175 0.206341 0.141787
H46   H     H_    0.551511 0.718974 0.556579 0.124521
H47   H     H_    0.455975 0.285697 0.437510 0.128415
H48   H     H_    0.768227 0.278788 0.749075 0.163521
N1    N     N_R   0.584450 0.204570 0.560790 -0.173456
N2    N     N_R   0.415550 0.795430 0.439210 -0.170666
O1    O     O_R   0.455540 0.022090 0.338120 -0.579450
O2    O     O_R   0.544460 0.977910 0.661880 -0.591787
O3    O     O_R   0.512510 0.160150 0.379180 -0.589032
O4    O     O_R   0.487490 0.839850 0.620820 -0.591480
O5    O     O_R   0.291160 0.930970 0.479480 -0.584845
O6    O     O_R   0.708840 0.069030 0.520520 -0.580137
O7    O     O_R   0.348130 0.069020 0.520540 -0.578611
O8    O     O_R   0.651870 0.930980 0.479460 -0.580824

loop_
_geom_bond_atom_site_label_1
_geom_bond_atom_site_label_2
_ccdc_geom_bond_type
C38   C40   A    
C34   C56   A    
C8    C13   A    
C23   C45   A    
C57   H26   S    
C27   C29   A    
C9    C64   A    
C48   H10   S    
C58   H32   S    
C61   H43   S    
C1    C62   S    
C22   C57   S    
C47   C49   A    
C38   C49   A    
C3    C64   A    
C24   C55   S    
C7    C11   A    
C4    C63   A    
C17   C23   S    
C53   H18   S    
C35   C37   A    
C16   O7    A    
C15   C19   A    
C55   H24   S    
C25   N1    A    
C54   H21   S    
C41   H30   S    
C33   C36   A    
C7    C9    A    
C51   C56   A    
C1    O3    A    
Cu1   O8    S    
C55   H22   S    
C61   H42   S    
C14   C18   A    
C55   H25   S    
C36   C53   S    
C16   C34   S    
C12   O4    A    
C11   C15   A    
C23   C51   A    
C35   H4    S    
C39   H6    S    
Cu2   O6    S    
Cu1   O5    S    
C44   C47   A    
C33   H3    S    
C42   C56   S    
C40   C42   A    
C2    H34   S    
C57   H27   S    
C13   C14   A    
C41   C43   A    
C58   H31   S    
C42   C44   A    
C64   H23   S    
C50   H12   S    
C20   C29   A    
C3    C61   S    
C46   C48   A    
Cu2   N1    S    
C27   C31   A    
C59   H35   S    
C15   H45   S    
C57   H28   S    
C28   C32   A    
C39   C41   A    
C5    C7    A    
C12   C63   S    
C6    C8    A    
C45   C52   A    
C30   C37   A    
C53   H16   S    
C6    C63   A    
C2    C4    A    
C16   O5    A    
C52   C59   S    
C25   H47   S    
C5    H15   S    
C9    C18   A    
C17   O8    A    
C6    H14   S    
C31   C32   A    
C29   C36   A    
C10   C19   A    
C4    C60   S    
C51   C58   S    
C1    O1    A    
C19   H13   S    
C43   C45   S    
C12   O2    A    
C37   C54   S    
C22   N1    A    
C20   C22   A    
C24   N2    A    
Cu2   O3    S    
C21   H2    S    
Cu1   N2    S    
C31   C35   A    
C40   H29   S    
C2    C10   A    
C26   H46   S    
C46   H8    S    
C60   H40   S    
C54   H20   S    
C3    C62   A    
C14   H44   S    
C38   H5    S    
C49   H1    S    
C59   H36   S    
C26   C28   A    
C58   H33   S    
C54   H19   S    
C25   C27   A    
C21   C30   A    
C34   C52   A    
C53   H17   S    
C59   H37   S    
C32   C33   A    
C28   C30   A    
C47   H9    S    
C20   H48   S    
C11   C13   A    
C18   H11   S    
C48   C50   A    
Cu1   O4    S    
C5    C62   A    
C44   H7    S    
C61   H41   S    
C43   C46   A    
C26   N2    A    
C17   O6    A    
C39   C50   A    
C8    C10   A    
Cu1   Cu2   S    
Cu2   O2    S    
C21   C24   A    
Cu1   O1    S    
Cu2   O7    S    
C60   H38   S    
C60   H39   S    
