data_mof_unit_58915.cif
_audit_creation_date              2012-12-10T17:28:33-0500
_audit_creation_method            fapswitch 2.2
_symmetry_space_group_name_H-M    P1
_symmetry_Int_Tables_number       1
_space_group_crystal_system       triclinic
_cell_length_a                    10.630814
_cell_length_b                    12.093714
_cell_length_c                    12.815058
_cell_angle_alpha                 94.454743
_cell_angle_beta                  91.315246
_cell_angle_gamma                 87.553656
_cell_volume                      1640.78770937

loop_
_atom_site_label
_atom_site_type_symbol
_atom_type_description
_atom_site_fract_x
_atom_site_fract_y
_atom_site_fract_z
_atom_type_partial_charge
C1    C     C_R   0.497851 0.522754 0.700201 0.872339
C2    C     C_R   0.545607 0.547798 0.133918 -0.236045
C3    C     C_R   0.470578 0.454145 0.973245 0.049392
C4    C     C_R   0.529422 0.545855 0.026755 0.049392
C5    C     C_R   0.383895 0.948738 0.399493 -0.237082
C6    C     C_R   0.616105 0.051262 0.600507 -0.237083
C7    C     C_R   0.394938 0.834248 0.409513 -0.068966
C8    C     C_R   0.605061 0.165752 0.590487 -0.068966
C9    C     C_R   0.550641 0.862193 0.544422 0.540968
C10   C     C_R   0.449360 0.137807 0.455578 0.540968
C11   C     C_R   0.542117 0.978138 0.536639 -0.006696
C12   C     C_R   0.502149 0.477246 0.299799 0.872340
C13   C     C_R   0.457883 0.021862 0.463360 -0.006695
C14   C     C_R   0.738747 0.501180 0.499744 0.867924
C15   C     C_R   0.261253 0.498820 0.500255 0.867924
C16   C     C_R   0.864417 0.505248 0.306784 -0.132114
C17   C     C_R   0.135582 0.494753 0.693216 -0.132113
C18   C     C_R   0.927533 0.503145 0.212462 -0.121773
C19   C     C_R   0.072467 0.496857 0.787538 -0.121773
C20   C     C_R   0.058405 0.498273 0.212365 -0.128886
C21   C     C_R   0.941596 0.501728 0.787635 -0.128886
C22   C     C_R   0.126192 0.495915 0.306619 -0.146205
C23   C     C_R   0.501418 0.462498 0.188015 -0.127718
C24   C     C_R   0.873808 0.504086 0.693381 -0.146203
C25   C     C_R   0.063346 0.498549 0.403339 0.069371
C26   C     C_R   0.936654 0.501452 0.596661 0.069372
C27   C     C_R   0.931895 0.502855 0.403396 0.071380
C28   C     C_R   0.068105 0.497146 0.596604 0.071379
C29   C     C_R   0.128861 0.496289 0.499974 -0.169220
C30   C     C_R   0.871139 0.503711 0.500026 -0.169219
C31   C     C_R   0.498582 0.537502 0.811985 -0.127718
C32   C     C_R   0.569660 0.634563 0.972585 0.458127
C33   C     C_R   0.430340 0.365436 0.027415 0.458127
C34   C     C_R   0.553477 0.629460 0.864025 -0.312930
C35   C     C_R   0.446523 0.370540 0.135975 -0.312930
C36   C     C_R   0.454393 0.452201 0.866082 -0.236045
H1    H     H_    0.892390 0.503828 0.860858 0.142157
H2    H     H_    0.772193 0.508505 0.697204 0.124049
H3    H     H_    0.589959 0.617298 0.176443 0.220960
H4    H     H_    0.410041 0.382701 0.823557 0.220960
H5    H     H_    0.412126 0.305432 0.179981 0.177281
H6    H     H_    0.587874 0.694568 0.820018 0.177281
H7    H     H_    0.662117 0.221343 0.639808 0.166467
H8    H     H_    0.337883 0.778656 0.360192 0.166467
H9    H     H_    0.648121 0.777590 0.976309 0.343785
H10   H     H_    0.351879 0.222410 0.023691 0.343785
H11   H     H_    0.368300 0.258358 0.386165 0.382071
H12   H     H_    0.107611 0.496173 0.139142 0.142157
H13   H     H_    0.631700 0.741641 0.613835 0.382072
H14   H     H_    0.317688 0.979316 0.341942 0.212667
H15   H     H_    0.682312 0.020683 0.658058 0.212667
H16   H     H_    0.762759 0.508821 0.303155 0.127034
H17   H     H_    0.237241 0.491181 0.696845 0.127034
H18   H     H_    0.874688 0.505054 0.139330 0.146781
H19   H     H_    0.125312 0.494948 0.860670 0.146781
H20   H     H_    0.227807 0.491495 0.302796 0.124049
N1    N     N_R   0.523130 0.207800 0.519340 -0.154935
N2    N     N_R   0.476870 0.792200 0.480660 -0.154935
O1    O     O_R   0.506170 0.421700 0.658830 -0.624424
O2    O     O_3   0.374141 0.276489 0.973457 -0.778303
O3    O     O_3   0.365379 0.177506 0.382676 -0.800016
O4    O     O_3   0.634622 0.822493 0.617323 -0.800015
O5    O     O_R   0.493830 0.578300 0.341170 -0.624424
O6    O     O_R   0.491330 0.609310 0.646410 -0.634103
O7    O     O_R   0.508670 0.390690 0.353590 -0.634102
O8    O     O_R   0.690650 0.406190 0.506220 -0.610058
O9    O     O_R   0.309350 0.593810 0.493780 -0.610058
O10   O     O_R   0.675800 0.593810 0.493800 -0.633211
O11   O     O_R   0.324200 0.406190 0.506200 -0.633211
O12   O     O_3   0.625858 0.723511 0.026543 -0.778303
Zn1   Zn    Zn3+2 0.509910 0.374730 0.508290 0.949927
Zn2   Zn    Zn3+2 0.490090 0.625270 0.491710 0.949927

loop_
_geom_bond_atom_site_label_1
_geom_bond_atom_site_label_2
_ccdc_geom_bond_type
H11   O3    S    
C2    C4    A    
C5    C7    A    
C26   C30   A    
C33   C35   A    
C8    N1    A    
C25   C27   A    
C11   C13   A    
C12   O7    A    
C7    N2    A    
C24   H2    S    
O8    Zn1   S    
C34   H6    S    
C8    H7    S    
C36   H4    S    
O10   Zn2   S    
C9    O4    S    
C15   O9    A    
O1    Zn1   S    
C16   C27   A    
C1    O1    A    
C14   O8    A    
C31   C34   A    
C4    C32   A    
C7    H8    S    
N1    Zn1   S    
C27   C30   A    
C9    C11   A    
C12   C23   S    
N2    Zn2   S    
C20   H12   S    
C32   O12   S    
C3    C36   A    
C14   C30   S    
C35   H5    S    
C6    C8    A    
C26   C28   A    
C28   C29   A    
C17   C19   A    
C24   C26   A    
C15   C29   S    
C33   O2    S    
C23   C35   A    
O6    Zn2   S    
C25   C29   A    
C6    H15   S    
C15   O11   A    
C5    H14   S    
C10   O3    S    
C18   H18   S    
C6    C11   A    
C3    C4    A    
C1    O6    A    
C17   H17   S    
C1    C31   S    
C10   N1    A    
C21   H1    S    
O5    Zn2   S    
C18   C20   A    
C16   C18   A    
O9    Zn2   S    
C21   C24   A    
C19   H19   S    
C2    C23   A    
O11   Zn1   S    
C12   O5    A    
C3    C33   A    
C31   C36   A    
C9    N2    A    
C22   H20   S    
H13   O4    S    
H10   O2    S    
H9    O12   S    
O7    Zn1   S    
C17   C28   A    
C5    C13   A    
C2    H3    S    
C10   C13   A    
C14   O10   A    
C16   H16   S    
C20   C22   A    
C19   C21   A    
C22   C25   A    
C32   C34   A    
