data_mof_unit_21003.cif
_audit_creation_date              2012-12-11T15:34:38-0500
_audit_creation_method            fapswitch 2.2
_symmetry_space_group_name_H-M    P1
_symmetry_Int_Tables_number       1
_space_group_crystal_system       triclinic
_cell_length_a                    15.055842
_cell_length_b                    15.063708
_cell_length_c                    34.947833
_cell_angle_alpha                 90.521122
_cell_angle_beta                  89.920893
_cell_angle_gamma                 60.070949
_cell_volume                      6868.624498

loop_
_atom_site_label
_atom_site_type_symbol
_atom_type_description
_atom_site_fract_x
_atom_site_fract_y
_atom_site_fract_z
_atom_type_partial_charge
Br1   Br    Br    0.851803 0.488499 0.582738 -0.476757
Br2   Br    Br    0.698358 0.365817 0.713699 -0.463741
Br3   Br    Br    0.435364 0.235764 0.599112 -0.472926
Br4   Br    Br    0.373947 0.427409 0.714842 -0.489677
Br5   Br    Br    0.142920 0.868090 0.092568 -0.519153
C1    C     C_R   0.303300 0.607840 0.555970 0.546122
C2    C     C_R   0.234938 0.711632 0.386775 -0.123372
C3    C     C_R   0.752399 0.147620 0.266279 -0.116357
C4    C     C_R   0.758213 0.140530 0.226490 -0.113298
C5    C     C_R   0.670706 0.199787 0.204276 0.027214
C6    C     C_R   0.723335 0.227487 0.348613 -0.122117
C7    C     C_R   0.707687 0.246085 0.387874 -0.125556
C8    C     C_R   0.551796 0.236731 0.383709 -0.122303
C9    C     C_R   0.734755 0.592257 0.648966 -0.066398
C10   C     C_R   0.567254 0.218675 0.344473 -0.121486
C11   C     C_R   0.650908 0.217948 0.326459 0.030413
C12   C     C_R   0.619367 0.255301 0.405468 0.023464
C13   C     C_R   0.213194 0.714382 0.348023 -0.121601
C14   C     C_R   0.086890 0.705470 0.093566 0.030449
C15   C     C_R   0.090059 0.619520 0.110570 -0.157354
C16   C     C_R   0.126753 0.590930 0.147477 -0.136779
C17   C     C_R   0.161239 0.647492 0.168270 -0.002189
C18   C     C_R   0.166991 0.727475 0.150399 -0.084954
C19   C     C_R   0.131060 0.756525 0.113242 0.160650
C20   C     C_R   0.260063 0.639549 0.226667 -0.119016
C21   C     C_R   0.203306 0.635074 0.331134 0.029212
C22   C     C_R   0.552054 0.709432 0.653015 -0.117056
C23   C     C_R   0.248503 0.628611 0.409009 0.024127
C24   C     C_R   0.735789 0.025973 0.943459 0.541015
C25   C     C_R   0.745760 0.722578 0.945210 0.546768
C26   C     C_R   0.038690 0.733800 0.948430 0.544076
C27   C     C_R   0.723034 0.038686 0.052867 0.541780
C28   C     C_R   0.733387 0.734471 0.054716 0.544082
C29   C     C_R   0.647297 0.655792 0.671011 0.014238
C30   C     C_R   0.028288 0.744384 0.057795 0.565658
C31   C     C_R   0.542937 0.693042 0.614362 -0.150133
C32   C     C_R   0.665135 0.665827 0.790274 0.346668
C33   C     C_R   0.654464 0.661382 0.712882 0.365214
C34   C     C_R   0.758181 0.593731 0.851212 -0.118829
C35   C     C_R   0.776987 0.606915 0.889238 -0.128874
C36   C     C_R   0.624507 0.774802 0.890392 -0.130866
C37   C     C_R   0.605406 0.761356 0.852369 -0.121909
C38   C     C_R   0.674555 0.672514 0.831990 0.033971
C39   C     C_R   0.610768 0.588608 0.555252 0.573310
C40   C     C_R   0.268186 0.639280 0.266312 -0.117339
C41   C     C_R   0.712791 0.699388 0.908651 0.023054
C42   C     C_R   0.721593 0.076514 0.906253 0.021627
C43   C     C_R   0.636188 0.096920 0.883824 -0.124219
C44   C     C_R   0.632781 0.122734 0.845541 -0.112585
C45   C     C_R   0.713735 0.130204 0.829205 0.028714
C46   C     C_R   0.795222 0.118187 0.852109 -0.120070
C47   C     C_R   0.799474 0.090892 0.890455 -0.125471
C48   C     C_R   0.717962 0.225864 0.772037 -0.071703
C49   C     C_R   0.709955 0.240997 0.732473 0.198899
C50   C     C_R   0.702806 0.169173 0.708239 0.038991
C51   C     C_R   0.197143 0.629779 0.289413 0.026393
C52   C     C_R   0.589689 0.301241 0.553933 0.563887
C53   C     C_R   0.705498 0.082726 0.724077 -0.145054
C54   C     C_R   0.711768 0.069178 0.763463 -0.121206
C55   C     C_R   0.716362 0.141414 0.787644 -0.007384
C56   C     C_R   0.591611 0.195706 0.652366 -0.051130
C57   C     C_R   0.563145 0.224581 0.614538 0.171008
C58   C     C_R   0.720243 0.230688 0.605225 -0.138554
C59   C     C_R   0.747757 0.201406 0.643016 -0.091934
C60   C     C_R   0.681452 0.188037 0.667158 0.020559
C61   C     C_R   0.625837 0.247076 0.590787 0.023820
C62   C     C_R   0.120509 0.616180 0.272506 -0.116544
C63   C     C_R   0.095235 0.695668 0.911938 0.021880
C64   C     C_R   0.300301 0.610207 0.446080 0.542260
C65   C     C_R   0.122747 0.758069 0.891284 -0.121320
C66   C     C_R   0.151326 0.736763 0.852949 -0.115082
C67   C     C_R   0.154559 0.651917 0.834795 0.029646
C68   C     C_R   0.136655 0.583975 0.856120 -0.115077
C69   C     C_R   0.106679 0.605934 0.894504 -0.124342
C70   C     C_R   0.243689 0.552604 0.775680 -0.074285
C71   C     C_R   0.256400 0.546447 0.735877 0.182850
C72   C     C_R   0.187832 0.629571 0.713035 0.034717
C73   C     C_R   0.111698 0.617450 0.232839 -0.110591
C74   C     C_R   0.107812 0.717131 0.730588 -0.142929
C75   C     C_R   0.096890 0.723315 0.770186 -0.119561
C76   C     C_R   0.607897 0.589619 0.445228 0.545632
C77   C     C_R   0.165259 0.641641 0.792960 -0.003810
C78   C     C_R   0.215785 0.709057 0.655767 -0.110208
C79   C     C_R   0.240393 0.706090 0.617176 -0.121975
C80   C     C_R   0.232981 0.549936 0.608851 -0.091109
C81   C     C_R   0.207575 0.553474 0.647474 -0.060106
C82   C     C_R   0.203003 0.630769 0.671442 0.049589
C83   C     C_R   0.253100 0.624356 0.593664 0.017318
C84   C     C_R   0.180221 0.631163 0.209625 0.029746
C85   C     C_R   0.691403 0.718357 0.090460 0.021419
C86   C     C_R   0.605210 0.800108 0.108238 -0.119055
C87   C     C_R   0.578171 0.790692 0.145592 -0.113618
C88   C     C_R   0.587768 0.303148 0.443670 0.539431
C89   C     C_R   0.636690 0.699372 0.165715 0.031275
C90   C     C_R   0.718162 0.615383 0.146874 -0.118235
C91   C     C_R   0.745143 0.624727 0.109613 -0.123554
C92   C     C_R   0.633049 0.603904 0.223373 -0.117968
C93   C     C_R   0.633075 0.594026 0.262979 -0.119034
C94   C     C_R   0.620107 0.674640 0.287161 0.026381
C95   C     C_R   0.207011 0.557299 0.353926 -0.121226
C96   C     C_R   0.602782 0.766895 0.271160 -0.114890
C97   C     C_R   0.603573 0.776553 0.231500 -0.112502
C98   C     C_R   0.620779 0.694361 0.207239 0.029458
C99   C     C_R   0.549640 0.735003 0.353010 -0.121354
C100  C     C_R   0.628828 0.622582 0.592769 0.033741
C101  C     C_R   0.548268 0.715481 0.391917 -0.123923
C102  C     C_R   0.704451 0.552171 0.383723 -0.121881
C103  C     C_R   0.705196 0.571340 0.344839 -0.121559
C104  C     C_R   0.625926 0.661213 0.328974 0.029379
C105  C     C_R   0.623628 0.622131 0.407346 0.024293
C106  C     C_R   0.229786 0.553884 0.392698 -0.123188
C107  C     C_R   0.699340 0.101434 0.087960 0.018474
C108  C     C_R   0.773303 0.121383 0.103938 -0.117185
C109  C     C_R   0.760682 0.160693 0.141037 -0.117844
C110  C     C_R   0.674026 0.180561 0.162706 0.028568
C111  C     C_R   0.596036 0.169073 0.145523 -0.118109
C112  C     C_R   0.726562 0.575874 0.610041 0.162130
C113  C     C_R   0.608483 0.130023 0.108403 -0.125075
C114  C     C_R   0.578196 0.268923 0.222508 -0.119397
C115  C     C_R   0.572314 0.275631 0.262299 -0.118248
C116  C     C_R   0.658882 0.213518 0.284450 0.026919
Cr1   Cr    Cr6+3 0.421670 0.426920 0.499620 1.062874
Cr2   Cr    Cr6+3 0.427030 0.651190 0.500980 1.023958
Cr3   Cr    Cr6+3 0.651280 0.421870 0.499380 1.056842
Cr4   Cr    Cr6+3 0.910810 0.908010 0.001130 1.055209
Cr5   Cr    Cr6+3 0.682800 0.909890 0.998370 1.019552
Cr6   Cr    Cr6+3 0.908370 0.682300 0.002180 1.014564
H1    H     H_    0.866124 0.075833 0.907079 0.126806
H2    H     H_    0.115448 0.827367 0.903891 0.134801
H3    H     H_    0.086230 0.556296 0.909711 0.127366
H4    H     H_    0.166174 0.789258 0.836897 0.118171
H5    H     H_    0.054761 0.781681 0.713564 0.117823
H6    H     H_    0.035243 0.792269 0.783162 0.122550
H7    H     H_    0.211441 0.769969 0.673824 0.118834
H8    H     H_    0.845184 0.546974 0.902645 0.132773
H9    H     H_    0.255510 0.764481 0.606396 0.132694
H10   H     H_    0.139080 0.517983 0.842433 0.117036
H11   H     H_    0.241637 0.486331 0.591369 0.169475
H12   H     H_    0.720480 0.282345 0.790721 0.144383
H13   H     H_    0.561982 0.873131 0.094132 0.131847
H14   H     H_    0.811676 0.560203 0.096635 0.130096
H15   H     H_    0.765883 0.514293 0.326850 0.105760
H16   H     H_    0.644721 0.540026 0.205363 0.108296
H17   H     H_    0.513931 0.856050 0.159255 0.110208
H18   H     H_    0.592583 0.829969 0.289341 0.107243
H19   H     H_    0.809591 0.553033 0.662152 0.168850
H20   H     H_    0.595430 0.846642 0.219914 0.105927
H21   H     H_    0.487940 0.805010 0.341325 0.104446
H22   H     H_    0.484963 0.770842 0.409395 0.126678
H23   H     H_    0.568804 0.132967 0.828195 0.124852
H24   H     H_    0.765304 0.544279 0.161713 0.104963
H25   H     H_    0.843618 0.101254 0.088655 0.151565
H26   H     H_    0.549939 0.115952 0.096769 0.130518
H27   H     H_    0.511736 0.209125 0.327927 0.105490
H28   H     H_    0.499933 0.328886 0.275820 0.110938
H29   H     H_    0.510054 0.316280 0.205999 0.108347
H30   H     H_    0.483380 0.760005 0.669173 0.148289
H31   H     H_    0.820938 0.170837 0.153462 0.113713
H32   H     H_    0.819970 0.099036 0.282872 0.107502
H33   H     H_    0.830076 0.085242 0.213190 0.113675
H34   H     H_    0.699664 0.027184 0.705920 0.121921
H35   H     H_    0.788623 0.226807 0.335245 0.102985
H36   H     H_    0.761185 0.259963 0.403894 0.127161
H37   H     H_    0.528683 0.183206 0.161665 0.105723
H38   H     H_    0.483315 0.242835 0.396444 0.132176
H39   H     H_    0.059129 0.576983 0.096175 0.137806
H40   H     H_    0.208533 0.776049 0.330833 0.108468
H41   H     H_    0.811818 0.523614 0.836418 0.138867
H42   H     H_    0.329358 0.647473 0.279018 0.113229
H43   H     H_    0.314765 0.648514 0.209369 0.110977
H44   H     H_    0.124034 0.527207 0.160377 0.112690
H45   H     H_    0.711160 0.003162 0.775215 0.127116
H46   H     H_    0.048449 0.612422 0.220446 0.108413
H47   H     H_    0.198941 0.495806 0.341270 0.105150
H48   H     H_    0.239325 0.489261 0.409233 0.128574
H49   H     H_    0.194282 0.771481 0.166041 0.138315
H50   H     H_    0.248392 0.770607 0.398561 0.131127
H51   H     H_    0.573262 0.846638 0.904724 0.129806
H52   H     H_    0.539724 0.823044 0.838395 0.135143
H53   H     H_    0.574763 0.086917 0.895120 0.132404
H54   H     H_    0.818968 0.192883 0.653830 0.155063
H55   H     H_    0.195199 0.493948 0.658969 0.163625
H56   H     H_    0.541101 0.183245 0.670862 0.169579
H57   H     H_    0.297267 0.489703 0.793225 0.142531
H58   H     H_    0.644111 0.522982 0.274784 0.111250
H59   H     H_    0.763632 0.479553 0.394676 0.131001
H60   H     H_    0.065296 0.608555 0.290008 0.108313
H61   H     H_    0.858144 0.124013 0.839779 0.112640
H62   H     H_    0.466916 0.730912 0.602095 0.142310
H63   H     H_    0.771065 0.245423 0.587876 0.157669
N1    N     N_R   0.745023 0.593819 0.769302 -0.215025
N2    N     N_R   0.739720 0.591492 0.731376 -0.193562
N3    N     N_R   0.574278 0.733110 0.733845 -0.224989
N4    N     N_R   0.579752 0.735703 0.771795 -0.229416
O1    O     O_R   0.502070 0.323090 0.541280 -0.453136
O2    O     O_R   0.831550 0.656950 0.958960 -0.519417
O3    O     O_R   0.998590 0.685540 0.963930 -0.503576
O4    O     O_R   0.338340 0.520690 0.539540 -0.488078
O5    O     O_R   0.008220 0.831200 0.045060 -0.451909
O6    O     O_R   0.813270 0.997930 0.038810 -0.495525
O7    O     O_R   0.657500 0.016560 0.039940 -0.520343
O8    O     O_R   0.685680 0.820940 0.038120 -0.500387
O9    O     O_R   0.822130 0.666070 0.043610 -0.519883
O10   O     O_R   0.989860 0.694000 0.042400 -0.515997
O11   O     O_3   0.833990 0.833400 0.000560 -0.244630
O12   O     O_R   0.520720 0.641670 0.461580 -0.503196
O13   O     O_R   0.324760 0.674070 0.543580 -0.520419
O14   O     O_R   0.522400 0.640310 0.540110 -0.513306
O15   O     O_R   0.675940 0.500630 0.542210 -0.453434
O16   O     O_R   0.641790 0.337020 0.538150 -0.508593
O17   O     O_R   0.500260 0.324550 0.456580 -0.515569
O18   O     O_R   0.336660 0.522040 0.461020 -0.503241
O19   O     O_R   0.322940 0.675540 0.458880 -0.519297
O20   O     O_R   0.674120 0.502090 0.457500 -0.511779
O21   O     O_R   0.640110 0.338380 0.459630 -0.507098
O22   O     O_3   0.499990 0.499990 0.499990 -0.254032
O23   O     O_R   0.017640 0.822070 0.960410 -0.512989
O24   O     O_R   0.822000 0.989470 0.960340 -0.503418
O25   O     O_R   0.666920 0.007430 0.955290 -0.519746
O26   O     O_R   0.694410 0.812480 0.959650 -0.501308

loop_
_geom_bond_atom_site_label_1
_geom_bond_atom_site_label_2
_ccdc_geom_bond_type
C20   H43   S    
C78   C82   A    
C114  H29   S    
C88   O21   A    
C36   C37   A    
C99   H21   S    
C90   C91   A    
C13   C21   A    
C43   H53   S    
C52   C61   S    
C70   C71   A    
C76   C105  S    
C99   C101  A    
C109  C110  A    
C47   H1    S    
C30   O5    A    
Cr3   O20   S    
C39   C100  S    
Cr5   O8    S    
C35   C41   A    
C102  H59   S    
C96   H18   S    
Cr1   O22   S    
C96   C97   A    
C68   H10   S    
C44   H23   S    
C24   C42   S    
C78   C79   A    
C106  H48   S    
C73   C84   A    
C93   H58   S    
C5    C110  S    
Cr3   O22   S    
C99   C104  A    
C3    C116  A    
C80   C83   A    
Cr3   O15   S    
Cr5   O11   S    
C63   C69   A    
C10   C11   A    
C94   C104  S    
C28   O8    A    
C39   O14   A    
C1    C83   S    
C103  C104  A    
C2    H50   S    
C113  H26   S    
C39   O15   A    
C68   C69   A    
C34   H41   S    
C109  H31   S    
C10   H27   S    
C46   H61   S    
C91   H14   S    
C49   C50   A    
C92   H16   S    
C23   C64   S    
C40   C51   A    
Cr5   O26   S    
C3    C4    A    
C78   H7    S    
C79   H9    S    
C7    C12   A    
C88   O17   A    
C73   H46   S    
C36   C41   A    
C65   C66   A    
C5    C114  A    
C4    C5    A    
Cr1   O1    S    
N3    N4    A    
Cr4   O24   S    
C9    C112  A    
C58   C61   A    
C54   C55   A    
Cr5   O7    S    
C101  H22   S    
C29   C33   S    
C16   C17   A    
C58   C59   A    
C23   C106  A    
C108  H25   S    
C100  C112  A    
C97   C98   A    
C62   C73   A    
C111  H37   S    
C70   H57   S    
Cr6   O3    S    
C103  H15   S    
C107  C108  A    
C50   C60   S    
C48   C55   A    
C62   H60   S    
C92   C93   A    
C72   C74   A    
C22   C29   A    
C26   C63   S    
C35   H8    S    
C25   O2    A    
C56   H56   S    
C57   C61   A    
C87   H17   S    
C46   C47   A    
C42   C43   A    
C36   H51   S    
C64   O19   A    
C71   C72   A    
Cr4   O6    S    
C75   C77   A    
Br2   C49   S    
C86   C87   A    
C1    O4    A    
C81   C82   A    
C34   C38   A    
C18   H49   S    
C4    H33   S    
C53   C54   A    
C80   C81   A    
C28   O9    A    
C6    H35   S    
C2    C23   A    
C31   H62   S    
Cr2   O12   S    
C40   H42   S    
C32   C38   S    
C11   C116  S    
C97   H20   S    
C6    C11   A    
C8    H38   S    
C76   O20   A    
C37   H52   S    
C102  C103  A    
C2    C13   A    
C87   C89   A    
C45   C46   A    
Cr2   O13   S    
C89   C90   A    
C64   O18   A    
Br1   C112  S    
Cr1   O4    S    
C85   C91   A    
C72   C82   S    
C1    O13   A    
C92   C98   A    
C59   H54   S    
Cr6   O10   S    
C24   O24   A    
C32   N1    A    
C52   O1    A    
C89   C98   S    
C93   C94   A    
C33   N2    A    
C8    C10   A    
C95   H47   S    
C102  C105  A    
Cr1   O18   S    
C74   C75   A    
C90   H24   S    
C37   C38   A    
C54   H45   S    
C58   H63   S    
C69   H3    S    
C20   C40   A    
C26   O3    A    
C115  C116  A    
C25   O26   A    
C108  C109  A    
C101  C105  A    
Br3   C57   S    
N1    N2    A    
C52   O16   A    
C43   C44   A    
C27   C107  S    
C94   C96   A    
C31   C100  A    
C48   H12   S    
C25   C41   S    
C79   C83   A    
C67   C68   A    
Cr2   O22   S    
C21   C51   S    
C9    C29   A    
C114  C115  A    
C70   C77   A    
C48   C49   A    
C42   C47   A    
C22   C31   A    
C22   H30   S    
C51   C62   A    
C15   H39   S    
C9    H19   S    
C20   C84   A    
C33   N3    A    
C8    C12   A    
C45   C55   S    
C32   N4    A    
C14   C15   A    
Cr2   O19   S    
C14   C19   A    
Cr6   O11   S    
C66   C67   A    
C27   O6    A    
C16   H44   S    
C28   C85   S    
C59   C60   A    
C7    H36   S    
C107  C113  A    
Cr1   O17   S    
C85   C86   A    
C3    H32   S    
Br5   C19   S    
Cr3   O16   S    
C74   H5    S    
Cr4   O11   S    
C27   O7    A    
C17   C84   S    
C111  C113  A    
Cr2   O14   S    
C115  H28   S    
C56   C57   A    
C30   O10   A    
Br4   C71   S    
C75   H6    S    
C18   C19   A    
C66   H4    S    
C86   H13   S    
C34   C35   A    
C56   C60   A    
C24   O25   A    
C13   H40   S    
C12   C88   S    
C15   C16   A    
Cr4   O5    S    
C95   C106  A    
C63   C65   A    
C44   C45   A    
C65   H2    S    
C50   C53   A    
C81   H55   S    
C17   C18   A    
C14   C30   S    
Cr6   O2    S    
C53   H34   S    
Cr6   O9    S    
C80   H11   S    
C67   C77   S    
Cr5   O25   S    
C110  C111  A    
C6    C7    A    
C21   C95   A    
C76   O12   A    
C26   O23   A    
Cr3   O21   S    
Cr4   O23   S    
