data_mof_unit_30406.cif
_audit_creation_date              2012-12-11T14:33:46-0500
_audit_creation_method            fapswitch 2.2
_symmetry_space_group_name_H-M    P1
_symmetry_Int_Tables_number       1
_space_group_crystal_system       triclinic
_cell_length_a                    13.87796
_cell_length_b                    14.031664
_cell_length_c                    27.330194
_cell_angle_alpha                 89.810078
_cell_angle_beta                  90.378886
_cell_angle_gamma                 119.718066
_cell_volume                      4621.9524318

loop_
_atom_site_label
_atom_site_type_symbol
_atom_type_description
_atom_site_fract_x
_atom_site_fract_y
_atom_site_fract_z
_atom_type_partial_charge
C1    C     C_R   0.233654 0.787557 0.568501 0.548392
C2    C     C_1   0.707617 0.858547 0.859872 -0.022652
C3    C     C_1   0.116943 0.879423 0.852926 -0.016667
C4    C     C_1   0.113054 0.238173 0.852923 -0.017468
C5    C     C_1   0.638754 0.815357 0.657475 0.002131
C6    C     C_1   0.177275 0.823633 0.655261 0.007543
C7    C     C_1   0.174514 0.356558 0.655762 0.006996
C8    C     C_1   0.607611 0.797986 0.615502 0.043435
C9    C     C_1   0.198313 0.808411 0.614333 0.046532
C10   C     C_1   0.191400 0.391444 0.614637 0.047234
C11   C     C_R   0.067814 0.153402 0.096503 0.570016
C12   C     C_R   0.212289 0.445929 0.568526 0.551584
C13   C     C_R   0.778290 0.884624 0.088672 0.574096
C14   C     C_R   0.116820 0.892804 0.087769 0.584339
C15   C     C_R   0.069977 0.162246 0.943093 0.528757
C16   C     C_R   0.779584 0.886917 0.950787 0.554824
C17   C     C_R   0.091171 0.928575 0.943170 0.526053
C18   C     C_R   0.611573 0.892963 0.361335 -0.130639
C19   C     C_R   0.099266 0.727993 0.362164 -0.132278
C20   C     C_R   0.264864 0.357857 0.365995 -0.131872
C21   C     C_R   0.640274 0.910514 0.312182 0.011800
C22   C     C_R   0.083713 0.737472 0.312262 0.014254
C23   C     C_R   0.554120 0.765749 0.568638 0.547102
C24   C     C_R   0.244194 0.308383 0.320009 0.014161
C25   C     C_R   0.677463 0.928594 0.210554 0.020637
C26   C     C_R   0.065459 0.749775 0.209870 0.023813
C27   C     C_R   0.211161 0.236158 0.221980 0.026405
C28   C     C_R   0.232360 0.788089 0.431811 0.542809
C29   C     C_R   0.211128 0.443881 0.431871 0.545850
C30   C     C_R   0.555288 0.767297 0.432021 0.543598
C31   C     C_R   0.638474 0.991909 0.234131 -0.124805
C32   C     C_R   0.986826 0.657632 0.236207 -0.119994
C33   C     C_R   0.312586 0.267865 0.246428 -0.109511
C34   C     C_3   0.649047 0.724361 0.790237 0.006031
C35   C     C_R   0.620495 0.983160 0.284449 -0.141744
C36   C     C_R   0.996176 0.651519 0.286812 -0.139658
C37   C     C_R   0.328771 0.303660 0.294754 -0.135131
C38   C     C_R   0.696429 0.935672 0.159555 0.042477
C39   C     C_R   0.056444 0.759753 0.158785 0.054457
C40   C     C_R   0.197549 0.212656 0.171252 0.068473
C41   C     C_R   0.735211 0.869392 0.138443 0.005899
C42   C     C_R   0.136583 0.856607 0.135194 0.004393
C43   C     C_R   0.092319 0.180097 0.148879 -0.002556
C44   C     C_R   0.669760 0.755827 0.366395 -0.131986
C45   C     C_3   0.256327 0.943142 0.785439 0.005384
C46   C     C_R   0.262005 0.910074 0.362023 -0.129246
C47   C     C_R   0.075059 0.322416 0.369296 -0.130167
C48   C     C_R   0.699565 0.772948 0.317431 0.015879
C49   C     C_R   0.250266 0.918869 0.312125 0.015727
C50   C     C_R   0.053173 0.272458 0.323401 0.014052
C51   C     C_R   0.681265 0.847959 0.289678 0.067296
C52   C     C_R   0.161952 0.831346 0.286774 0.066997
C53   C     C_R   0.139336 0.269057 0.297754 0.065857
C54   C     C_R   0.739027 0.709817 0.294969 -0.125508
C55   C     C_R   0.330623 0.010261 0.286761 -0.131526
C56   C     C_3   0.057608 0.326526 0.786338 0.007250
C57   C     C_R   0.948717 0.232438 0.301432 -0.126922
C58   C     C_R   0.755463 0.717103 0.244826 -0.116853
C59   C     C_R   0.325618 0.013548 0.236146 -0.119554
C60   C     C_R   0.931577 0.195038 0.253293 -0.113634
C61   C     C_R   0.734080 0.788640 0.216961 0.003035
C62   C     C_R   0.238177 0.927213 0.210700 0.008804
C63   C     C_R   0.018521 0.197253 0.226569 0.010630
C64   C     C_3   0.577086 0.855686 0.735120 -0.191978
C65   C     C_3   0.134311 0.734230 0.736726 -0.194482
C66   C     C_3   0.266139 0.391889 0.736777 -0.191119
C67   C     C_3   0.645193 0.717424 0.733280 0.142990
C68   C     C_R   0.698769 0.856141 0.239070 0.046207
C69   C     C_R   0.154559 0.836309 0.235764 0.044776
C70   C     C_R   0.122468 0.232236 0.248921 0.044756
C71   C     C_R   0.748876 0.793754 0.167189 -0.136632
C72   C     C_R   0.231231 0.933339 0.160604 -0.133356
C73   C     C_R   0.003837 0.169116 0.177329 -0.151485
C74   C     C_R   0.619101 0.810269 0.387383 -0.001113
C75   C     C_R   0.192498 0.811422 0.386254 -0.002988
C76   C     C_R   0.182424 0.370547 0.389490 -0.002840
C77   C     C_3   0.778505 0.917938 0.723210 -0.274012
C78   C     C_3   0.267139 0.939854 0.729040 0.142646
C79   C     C_3   0.064161 0.862084 0.713735 -0.272572
C80   C     C_3   0.117171 0.202324 0.713820 -0.271647
C81   C     C_3   0.795982 0.924612 0.779522 -0.239095
C82   C     C_3   0.050703 0.879192 0.768684 -0.241623
C83   C     C_3   0.096370 0.171172 0.768537 -0.243333
C84   C     C_1   0.734308 0.871711 0.902398 0.025255
C85   C     C_1   0.104377 0.899257 0.894507 0.029909
C86   C     C_1   0.096629 0.204996 0.894418 0.025196
C87   C     C_3   0.659581 0.826026 0.710720 0.035151
C88   C     C_3   0.161505 0.839632 0.707219 0.034278
C89   C     C_3   0.065178 0.346413 0.729982 0.141653
C90   C     C_3   0.156196 0.325374 0.707657 0.037435
C91   C     C_3   0.596926 0.871600 0.791087 -0.235683
C92   C     C_3   0.111942 0.745705 0.791457 -0.237873
C93   C     C_3   0.251043 0.357245 0.791318 -0.236950
C94   C     C_3   0.687758 0.844379 0.806725 0.020844
C95   C     C_3   0.134030 0.863403 0.801154 0.019253
C96   C     C_3   0.128049 0.272356 0.801293 0.021750
Cl1   Cl    Cl    0.520721 0.599001 0.713041 -0.666313
Cl2   Cl    Cl    0.392164 0.939632 0.713747 -0.663089
Cl3   Cl    Cl    0.089095 0.481255 0.716748 -0.675837
Cr1   Cr    Cr6+3 0.164410 0.584450 0.499910 1.041962
Cr2   Cr    Cr6+3 0.415550 0.579960 0.499910 1.045101
Cr3   Cr    Cr6+3 0.420040 0.835590 0.499910 1.040176
Cr4   Cr    Cr6+3 0.155170 0.075460 0.019960 1.096367
Cr5   Cr    Cr6+3 0.924540 0.079710 0.019960 1.083271
Cr6   Cr    Cr6+3 0.920290 0.844830 0.019960 1.084183
H1    H     H_    0.622506 0.957882 0.800985 0.180671
H2    H     H_    0.573617 0.936498 0.377755 0.132543
H3    H     H_    0.044233 0.652286 0.381062 0.126883
H4    H     H_    0.347351 0.393044 0.381824 0.129153
H5    H     H_    0.621039 0.048381 0.214298 0.152428
H6    H     H_    0.917546 0.589252 0.218367 0.148402
H7    H     H_    0.381862 0.268052 0.228725 0.144384
H8    H     H_    0.588413 0.031327 0.301485 0.106373
H9    H     H_    0.935575 0.578770 0.305972 0.106730
H10   H     H_    0.409101 0.331460 0.311795 0.107208
H11   H     H_    0.777450 0.741580 0.151212 0.166866
H12   H     H_    0.024543 0.684670 0.800581 0.180149
H13   H     H_    0.295905 0.004201 0.141875 0.170917
H14   H     H_    0.923425 0.141980 0.160405 0.146192
H15   H     H_    0.783229 0.665551 0.227659 0.125971
H16   H     H_    0.389542 0.084067 0.216916 0.129113
H17   H     H_    0.851739 0.168861 0.236251 0.131017
H18   H     H_    0.753485 0.652228 0.315848 0.106891
H19   H     H_    0.399161 0.077465 0.305901 0.100325
H20   H     H_    0.881556 0.233845 0.320813 0.107957
H21   H     H_    0.588198 0.933177 0.718824 0.198260
H22   H     H_    0.059365 0.663187 0.720709 0.197792
H23   H     H_    0.305037 0.321855 0.800476 0.185101
H24   H     H_    0.331998 0.378653 0.720650 0.192153
H25   H     H_    0.677418 0.693570 0.386911 0.127455
H26   H     H_    0.332726 0.975976 0.380735 0.131151
H27   H     H_    0.010126 0.329574 0.387862 0.130153
H28   H     H_    0.840782 0.901518 0.705464 0.109776
H29   H     H_    0.079268 0.936276 0.692701 0.109827
H30   H     H_    0.039490 0.151758 0.692553 0.111776
H31   H     H_    0.792091 0.998166 0.709097 0.144419
H32   H     H_    0.985992 0.791847 0.699349 0.141541
H33   H     H_    0.181067 0.183795 0.699532 0.139832
H34   H     H_    0.490173 0.790156 0.727830 0.205448
H35   H     H_    0.823343 0.009314 0.791821 0.159407
H36   H     H_    0.964954 0.819048 0.779692 0.156782
H37   H     H_    0.148088 0.135380 0.779507 0.155186
H38   H     H_    0.862898 0.906609 0.789260 0.126161
H39   H     H_    0.060678 0.961003 0.774465 0.117257
H40   H     H_    0.008429 0.108455 0.774011 0.126748
H41   H     H_    0.714482 0.705936 0.720186 0.167690
H42   H     H_    0.274919 0.016177 0.712822 0.166354
H43   H     H_    0.984242 0.288710 0.712582 0.171159
H44   H     H_    0.564448 0.670573 0.805117 0.180068
H45   H     H_    0.204559 0.717571 0.734055 0.210001
H46   H     H_    0.309513 0.914061 0.803222 0.183597
H47   H     H_    0.092234 0.406442 0.805850 0.184869
H48   H     H_    0.293722 0.480843 0.734288 0.220289
H49   H     H_    0.518134 0.817698 0.810659 0.137302
H50   H     H_    0.166194 0.727153 0.815096 0.140793
H51   H     H_    0.278326 0.430859 0.814900 0.141880
I1    I     I_    0.746252 0.656118 0.820099 -0.364346
I2    I     I_    0.329649 0.109495 0.811585 -0.377395
I3    I     I_    0.886862 0.238496 0.809367 -0.365615
I4    I     I_    0.663733 0.041481 0.114176 -0.346683
I5    I     I_    0.925809 0.629399 0.117413 -0.328906
I6    I     I_    0.341482 0.240686 0.129839 -0.328465
O1    O     O_R   0.137150 0.468200 0.553200 -0.493515
O2    O     O_R   0.140110 0.470540 0.446010 -0.523265
O3    O     O_R   0.529460 0.669570 0.446010 -0.521386
O4    O     O_R   0.330430 0.859890 0.446010 -0.525249
O5    O     O_R   0.176710 0.690910 0.450560 -0.506109
O6    O     O_R   0.309090 0.485800 0.450560 -0.505752
O7    O     O_R   0.514200 0.823290 0.450560 -0.509079
O8    O     O_3   0.333333 0.666667 0.499990 -0.271802
O9    O     O_R   0.176750 0.985260 0.074180 -0.509343
O10   O     O_R   0.014740 0.191490 0.074180 -0.466487
O11   O     O_R   0.808510 0.823250 0.074180 -0.503414
O12   O     O_R   0.531800 0.668950 0.553200 -0.488908
O13   O     O_R   0.146100 0.172630 0.068980 -0.438611
O14   O     O_R   0.827370 0.973470 0.068980 -0.494179
O15   O     O_R   0.026530 0.853900 0.068980 -0.465437
O16   O     O_3   0.000000 1.000000 0.020040 -0.320837
O17   O     O_R   0.148270 0.170520 0.969620 -0.477558
O18   O     O_R   0.829480 0.977750 0.969620 -0.513517
O19   O     O_R   0.022250 0.851730 0.969620 -0.468890
O20   O     O_R   0.331050 0.862850 0.553200 -0.488118
O21   O     O_R   0.179100 0.982980 0.967000 -0.477325
O22   O     O_R   0.017020 0.196120 0.967000 -0.457690
O23   O     O_R   0.803880 0.820900 0.967000 -0.488681
O24   O     O_R   0.173970 0.688730 0.549930 -0.494116
O25   O     O_R   0.311270 0.485240 0.549930 -0.491047
O26   O     O_R   0.514760 0.826030 0.549930 -0.492442

loop_
_geom_bond_atom_site_label_1
_geom_bond_atom_site_label_2
_ccdc_geom_bond_type
C25   C31   A    
C65   C92   S    
C54   H18   S    
C26   C32   A    
C16   O18   A    
C73   H14   S    
C32   H6    S    
C55   C59   A    
C81   H35   S    
C18   C21   A    
C2    C84   T    
C91   H1    S    
Cr6   O16   S    
C36   H9    S    
C6    C9    T    
C13   C41   S    
C79   C82   S    
Cr5   O14   S    
C23   O12   A    
C1    O24   A    
C27   C33   A    
C13   O11   A    
C46   C49   A    
C80   H30   S    
C89   Cl3   S    
C60   C63   A    
C17   C85   S    
C65   H22   S    
C29   O6    A    
C47   C76   A    
C89   H43   S    
C15   O17   A    
C16   O23   A    
C80   C83   S    
C57   H20   S    
C23   O26   A    
C30   C74   S    
C26   C39   A    
C4    C86   T    
C44   H25   S    
C16   C84   S    
C8    C23   S    
C6    C88   S    
C20   C76   A    
C7    C10   T    
Cr6   O23   S    
C65   H45   S    
C18   H2    S    
C79   C88   S    
C52   C69   A    
C28   O5    A    
C4    C96   S    
C13   O14   A    
C43   C73   A    
C48   C51   A    
Cr5   O16   S    
C20   C24   A    
C78   Cl2   S    
C11   C43   S    
C45   C78   S    
C77   H31   S    
C39   C42   A    
C64   C87   S    
Cr4   O17   S    
C28   O4    A    
C41   C71   A    
C66   H24   S    
C19   H3    S    
C61   C71   A    
Cr3   O7    S    
C11   O10   A    
Cr3   O4    S    
Cr6   O11   S    
Cr4   O9    S    
C29   O2    A    
Cr2   O12   S    
C25   C68   A    
C77   H28   S    
C59   H16   S    
C82   H36   S    
C53   C70   A    
Cr4   O13   S    
C46   C75   A    
C34   H44   S    
C39   I5    S    
C47   C50   A    
C40   C43   A    
C50   C53   A    
Cr1   O8    S    
Cr3   O20   S    
C2    C94   S    
C19   C22   A    
C1    C9    S    
C91   H49   S    
C82   H39   S    
C46   H26   S    
C29   C76   S    
C14   O9    A    
C57   C60   A    
C63   C73   A    
C24   C53   A    
C49   C55   A    
C12   O25   A    
C92   C95   S    
C33   C37   A    
C62   C69   A    
C45   H46   S    
C48   C54   A    
Cr2   O6    S    
Cr1   O24   S    
C92   H12   S    
C30   O7    A    
C40   I6    S    
C25   C38   A    
C83   H37   S    
C17   O21   A    
C63   C70   A    
C77   C81   S    
C27   C40   A    
C49   C52   A    
C15   O22   A    
C67   H41   S    
C58   H15   S    
C24   C37   A    
C62   C72   A    
Cr2   O8    S    
Cr1   O2    S    
C33   H7    S    
C14   C42   S    
C60   H17   S    
C27   C70   A    
C10   C12   S    
C78   H42   S    
C38   C41   A    
C15   C86   S    
C21   C35   A    
C56   C89   S    
Cr5   O22   S    
C93   C96   S    
C64   H21   S    
C66   C93   S    
Cr4   O21   S    
C3    C85   T    
C5    C8    T    
C56   H47   S    
C83   H40   S    
C45   C95   S    
C32   C36   A    
C21   C51   A    
C65   C88   S    
C22   C52   A    
C54   C58   A    
C78   C88   S    
C56   C96   S    
C79   H29   S    
C55   H19   S    
C59   C62   A    
C82   C95   S    
C79   H32   S    
C50   C57   A    
C67   C87   S    
C93   H51   S    
C45   I2    S    
C34   C94   S    
C30   O3    A    
Cr6   O15   S    
C44   C74   A    
C34   C67   S    
C66   H48   S    
C1    O20   A    
C37   H10   S    
C56   I3    S    
C22   C36   A    
C11   O13   A    
Cr5   O10   S    
C47   H27   S    
Cr4   O16   S    
C19   C75   A    
C89   C90   S    
C93   H23   S    
C38   I4    S    
Cr2   O3    S    
C12   O1    A    
C81   C94   S    
C7    C90   S    
C61   C68   A    
Cr5   O18   S    
Cr3   O8    S    
C58   C61   A    
C80   H33   S    
C83   C96   S    
Cr1   O5    S    
C66   C90   S    
C31   H5    S    
C71   H11   S    
C35   H8    S    
Cr1   O1    S    
C31   C35   A    
C51   C68   A    
C80   C90   S    
Cr3   O26   S    
C14   O15   A    
C67   Cl1   S    
C20   H4    S    
C5    C87   S    
C34   I1    S    
C17   O19   A    
C81   H38   S    
C77   C87   S    
C18   C74   A    
C92   H50   S    
C72   H13   S    
C26   C69   A    
C3    C95   S    
C64   C91   S    
Cr6   O19   S    
C42   C72   A    
Cr2   O25   S    
C28   C75   S    
C44   C48   A    
C91   C94   S    
C64   H34   S    
