data_mof_unit_32105.cif
_audit_creation_date              2013-03-05T15:50:44-0500
_audit_creation_method            fapswitch 2.2
_symmetry_space_group_name_H-M    P1
_symmetry_Int_Tables_number       1
_space_group_crystal_system       triclinic
_cell_length_a                    10.712187
_cell_length_b                    11.961223
_cell_length_c                    12.894072
_cell_angle_alpha                 93.772376
_cell_angle_beta                  89.899381
_cell_angle_gamma                 86.920779
_cell_volume                      1646.14549368

loop_
_atom_site_label
_atom_site_type_symbol
_atom_site_description
_atom_site_fract_x
_atom_site_fract_y
_atom_site_fract_z
_atom_type_partial_charge
O1    O     O_R   0.506240 0.421700 0.658830 -0.628914
O2    O     O_R   0.491240 0.609310 0.646410 -0.582435
C1    C     C_R   0.498799 0.522907 0.700574 0.923804
O3    O     O_R   0.692710 0.406190 0.506230 -0.565001
O4    O     O_R   0.677700 0.593810 0.493810 -0.660621
C2    C     C_R   0.742123 0.501932 0.501314 0.938202
Zn1   Zn    Zn3+2 0.510020 0.374730 0.508290 1.011248
Zn2   Zn    Zn3+2 0.489980 0.625270 0.491710 1.026175
O5    O     O_R   0.508760 0.390690 0.353590 -0.607002
O6    O     O_R   0.493760 0.578300 0.341170 -0.581619
O7    O     O_R   0.322300 0.406190 0.506190 -0.655491
O8    O     O_R   0.307290 0.593810 0.493770 -0.626682
C3    C     C_R   0.506795 0.477568 0.299633 1.006174
C4    C     C_R   0.258086 0.499916 0.506385 0.946481
C5    C     C_3   0.927679 0.438339 0.599348 -0.142242
H1    H     H_    0.905750 0.350424 0.578455 0.211151
C6    C     C_3   0.073684 0.440264 0.609648 0.294921
H2    H     H_    0.107394 0.345261 0.409090 0.168386
C7    C     C_3   0.933186 0.446129 0.400203 -0.016553
C8    C     C_3   0.924028 0.632149 0.517128 0.155930
C9    C     C_3   0.878179 0.506110 0.504935 -0.127505
C10   C     C_3   0.121931 0.498691 0.509288 -0.219844
C11   C     C_3   0.077499 0.434821 0.406380 0.015716
C12   C     C_3   0.067297 0.623291 0.510474 -0.318870
H3    H     H_    0.109456 0.678073 0.572040 0.227323
H4    H     H_    0.098489 0.662299 0.439893 0.218937
H5    H     H_    0.906898 0.499885 0.336550 0.195301
C13   C     C_R   0.515768 0.462765 0.188152 -0.166371
C14   C     C_R   0.504821 0.538305 0.812074 -0.169843
C15   C     C_R   0.575946 0.635227 0.968310 -0.154590
C16   C     C_R   0.554337 0.634015 0.862573 0.304163
C17   C     C_R   0.472257 0.448297 0.868026 -0.189638
C18   C     C_R   0.491172 0.449898 0.974151 0.107011
C19   C     C_R   0.543050 0.545151 0.025048 -0.045524
C20   C     C_R   0.558902 0.549716 0.132053 0.281982
C21   C     C_R   0.471434 0.365997 0.137628 -0.163407
C22   C     C_R   0.459447 0.358115 0.030115 0.130775
H6    H     H_    0.441546 0.298443 0.182251 0.187670
H7    H     H_    0.616297 0.708519 0.005396 0.226422
H8    H     H_    0.432499 0.376210 0.827829 0.203590
N1    N     N_R   0.523380 0.207800 0.519350 -0.101210
N2    N     N_R   0.476620 0.792180 0.480650 -0.117884
C23   C     C_R   0.381897 0.953340 0.403868 -0.266221
C24   C     C_R   0.393120 0.837082 0.413227 0.099003
C25   C     C_R   0.550866 0.858858 0.540620 0.021612
C26   C     C_R   0.542420 0.975992 0.534424 0.073968
C27   C     C_R   0.457043 0.023861 0.464896 0.071730
C28   C     C_R   0.449339 0.141247 0.458612 -0.065137
C29   C     C_R   0.605917 0.162533 0.587740 0.299934
C30   C     C_R   0.616845 0.045913 0.596141 -0.316365
H9    H     H_    0.384475 0.179837 0.405548 0.146594
H10   H     H_    0.315191 0.987599 0.349746 0.169094
H11   H     H_    0.682766 0.010722 0.650475 0.173273
H12   H     H_    0.335112 0.782437 0.366432 0.160391
H13   H     H_    0.616233 0.820625 0.593258 0.149374
N3    N     N_R   0.136231 0.471134 0.311500 0.221555
O9    O     O_R   0.211904 0.401072 0.257523 -0.391375
O10   O     O_R   0.105133 0.567213 0.274326 -0.383475
N4    N     N_R   0.619499 0.641799 0.183878 0.209169
O11   O     O_R   0.562678 0.740850 0.194545 -0.380459
O12   O     O_R   0.726381 0.623776 0.228979 -0.405083
N5    N     N_3   0.411613 0.259281 0.978127 -0.411011
H14   H     H_    0.382886 0.204197 0.032052 0.217355
H15   H     H_    0.485578 0.217363 0.936063 0.186911
N6    N     N_R   0.583546 0.730297 0.808609 0.193553
O13   O     O_R   0.694780 0.768465 0.817026 -0.411303
O14   O     O_R   0.492644 0.795488 0.776290 -0.367051
N7    N     N_3   0.857457 0.464873 0.697109 -0.445458
H16   H     H_    0.881793 0.403399 0.748652 0.224251
H17   H     H_    0.877980 0.541287 0.734241 0.282525
N8    N     N_3   0.681256 0.234231 0.651181 -0.387715
H18   H     H_    0.660965 0.222622 0.728989 0.169489
H19   H     H_    0.774910 0.208075 0.637731 0.187772
N9    N     N_R   0.112508 0.500237 0.708456 0.219806
O15   O     O_R   0.171031 0.445202 0.779280 -0.371527
O16   O     O_R   0.084857 0.606210 0.730520 -0.380383
N10   N     N_3   0.121565 0.321742 0.613264 -0.450208
H20   H     H_    0.100322 0.269506 0.548697 0.189974
H21   H     H_    0.217090 0.313532 0.628551 0.240273
N11   N     N_R   0.880643 0.337073 0.370271 0.229353
O17   O     O_R   0.912618 0.246769 0.417004 -0.420268
O18   O     O_R   0.807726 0.328472 0.289811 -0.342959
N12   N     N_3   0.879676 0.706641 0.435899 -0.448179
H22   H     H_    0.892371 0.672828 0.360136 0.265039
H23   H     H_    0.789140 0.741780 0.447721 0.236422
N13   N     N_3   0.887408 0.687630 0.618685 -0.372940
H24   H     H_    0.790393 0.694006 0.626736 0.215589
H25   H     H_    0.916533 0.769989 0.623406 0.222994

loop_
_geom_bond_atom_site_label_1
_geom_bond_atom_site_label_2
_geom_bond_distance
_ccdc_geom_bond_type
C22   N5    1.439248 S    
C11   N3    1.475719 S    
N10   H20   1.040564 S    
Zn1   O7    2.026390 S    
N9    O16   1.298974 A    
C20   N4    1.436146 S    
C21   C22   1.389917 A    
C7    C9    1.584260 S    
C12   H4    1.108667 S    
C14   C17   1.393884 A    
C15   C16   1.382559 A    
O7    C4    1.283266 A    
N13   H25   1.047230 S    
C23   H10   1.083258 S    
C5    H1    1.105918 S    
N3    O9    1.300806 A    
C16   N6    1.432391 S    
C19   C20   1.388306 A    
C1    C14   1.439378 S    
O5    C3    1.287317 A    
N5    H15   1.045643 S    
C28   H9    1.082936 S    
C27   C28   1.409744 A    
C13   C20   1.402805 A    
N7    H16   1.046252 S    
N6    O14   1.300969 A    
C8    N13   1.471353 S    
C3    C13   1.439095 S    
C7    H5    1.103249 S    
Zn1   N1    2.008586 S    
N4    O11   1.301500 A    
N2    C24   1.362669 A    
O3    Zn1   2.013068 S    
N1    C29   1.366252 A    
N10   H21   1.043098 S    
N4    O12   1.299176 A    
C30   H11   1.084091 S    
N9    O15   1.302723 A    
C15   C19   1.401355 A    
H2    C11   1.104285 S    
C8    C12   1.534553 S    
C12   H3    1.108189 S    
N11   O18   1.301710 A    
N8    H19   1.045461 S    
N13   H24   1.042441 S    
C25   C26   1.406654 A    
C2    C9    1.461710 S    
C18   C22   1.408882 A    
O1    C1    1.290454 A    
N2    C25   1.362253 A    
C7    C11   1.547208 S    
C23   C24   1.402470 A    
N5    H14   1.045754 S    
C24   H12   1.081885 S    
N12   H22   1.038278 S    
Zn2   O8    2.013068 S    
C6    N10   1.485162 S    
C18   C19   1.417223 A    
C13   C21   1.396635 A    
O3    C2    1.292369 A    
N12   H23   1.042954 S    
O8    C4    1.285656 A    
C29   C30   1.404863 A    
C6    N9    1.491427 S    
C10   C12   1.570728 S    
C5    C6    1.571167 S    
C26   C27   1.407892 A    
O1    Zn1   1.984647 S    
Zn2   O6    1.984647 S    
O2    Zn2   2.016292 S    
Zn2   N2    2.008348 S    
N11   O17   1.301445 A    
O6    C3    1.286404 A    
O4    Zn2   2.026389 S    
C26   C30   1.398080 A    
C6    C10   1.607959 S    
C17   C18   1.382696 A    
C4    C10   1.459825 S    
C21   H6    1.083886 S    
O2    C1    1.283972 A    
N8    H18   1.045873 S    
C14   C16   1.408651 A    
O4    C2    1.275195 A    
C5    N7    1.474414 S    
N1    C28   1.365316 A    
N3    O10   1.301282 A    
C15   H7    1.081809 S    
C17   H8    1.083937 S    
C7    N11   1.476731 S    
Zn1   O5    2.016291 S    
C5    C9    1.583102 S    
C8    C9    1.608531 S    
C25   H13   1.080841 S    
N7    H17   1.037965 S    
N6    O13   1.300922 A    
C29   N8    1.428388 S    
C8    N12   1.481792 S    
C10   C11   1.574407 S    
C23   C27   1.402344 A    
