data_mof_unit_35576.cif
_audit_creation_date              2013-03-05T16:00:57-0500
_audit_creation_method            fapswitch 2.2
_symmetry_space_group_name_H-M    P1
_symmetry_Int_Tables_number       1
_space_group_crystal_system       triclinic
_cell_length_a                    10.640959
_cell_length_b                    14.691405
_cell_length_c                    14.817234
_cell_angle_alpha                 64.340264
_cell_angle_beta                  103.824627
_cell_angle_gamma                 103.29708
_cell_volume                      2006.16851713

loop_
_atom_site_label
_atom_site_type_symbol
_atom_site_description
_atom_site_fract_x
_atom_site_fract_y
_atom_site_fract_z
_atom_type_partial_charge
O1    O     O_R   0.454850 0.022100 0.338110 -0.597205
O2    O     O_R   0.545150 0.977900 0.661890 -0.597922
O3    O     O_R   0.512700 0.160150 0.379180 -0.557460
O4    O     O_R   0.487300 0.839850 0.620820 -0.560331
C1    C     C_R   0.476636 0.120291 0.312046 0.820800
C2    C     C_R   0.521070 0.879730 0.687763 0.845194
O5    O     O_R   0.287930 0.931000 0.479440 -0.579867
O6    O     O_R   0.712070 0.069000 0.520560 -0.592825
O7    O     O_R   0.345780 0.069050 0.520520 -0.585227
O8    O     O_R   0.654220 0.930950 0.479480 -0.569847
C3    C     C_R   0.259668 0.999800 0.500228 0.872555
C4    C     C_R   0.740462 0.999573 0.500701 0.877165
Cu1   Cu    Cu3+1 0.465750 0.918270 0.475680 1.000542
Cu2   Cu    Cu3+1 0.534250 0.081730 0.524320 0.992541
C5    C     C_3   0.009952 0.918502 0.482663 -0.208462
C6    C     C_3   0.990673 0.079072 0.520568 -0.231754
C7    C     C_3   0.929688 0.006532 0.410026 -0.271082
C8    C     C_3   0.071025 0.991001 0.593127 -0.262147
H1    H     H_    0.870889 0.014767 0.334829 0.182499
H2    H     H_    0.130113 0.982849 0.668217 0.183137
H3    H     H_    0.019359 0.851966 0.468981 0.199708
H4    H     H_    0.981333 0.145459 0.534524 0.198782
C9    C     C_3   0.877139 0.999117 0.501769 -0.145697
C10   C     C_3   0.123244 0.998492 0.501371 -0.138965
C11   C     C_3   0.956561 0.913268 0.572664 0.398028
C12   C     C_3   0.044001 0.084108 0.430631 0.383926
C13   C     C_R   0.447425 0.188403 0.204364 -0.061291
C14   C     C_R   0.522211 0.811715 0.795285 -0.058390
C15   C     C_R   0.340473 0.216473 0.032623 -0.125148
C16   C     C_R   0.546131 0.785844 0.970803 -0.125507
C17   C     C_R   0.380157 0.149819 0.131776 -0.147941
C18   C     C_R   0.552730 0.851095 0.869988 -0.167420
C19   C     C_R   0.476014 0.293953 0.175841 -0.113627
C20   C     C_R   0.484342 0.706639 0.822669 -0.109338
C21   C     C_R   0.423410 0.361950 0.079966 0.115792
C22   C     C_R   0.464468 0.640929 0.922148 0.100594
C23   C     C_R   0.361802 0.322213 0.006161 0.077858
C24   C     C_R   0.503971 0.681092 0.997479 0.086736
C25   C     C_R   0.435755 0.468590 0.054209 -0.078297
C26   C     C_R   0.414511 0.535353 0.949810 -0.088992
C27   C     C_R   0.343187 0.493652 0.878177 0.316651
C28   C     C_R   0.466344 0.511535 0.128137 0.355093
C29   C     C_R   0.319352 0.387942 0.907430 -0.220284
C30   C     C_R   0.500076 0.616684 0.098624 -0.227520
H5    H     H_    0.264994 0.356715 0.852798 0.206556
H6    H     H_    0.523070 0.648342 0.155564 0.183609
H7    H     H_    0.472550 0.676665 0.765816 0.179499
H8    H     H_    0.540308 0.321888 0.229534 0.185902
H9    H     H_    0.582541 0.932067 0.850748 0.168460
H10   H     H_    0.357109 0.068366 0.151709 0.165916
H11   H     H_    0.290509 0.185246 0.977135 0.159463
H12   H     H_    0.573404 0.817345 0.027928 0.151492
N1    N     N_R   0.585750 0.204560 0.560800 -0.221756
N2    N     N_R   0.414250 0.795440 0.439200 -0.214800
C31   C     C_R   0.741655 0.294226 0.650906 0.237595
C32   C     C_R   0.250269 0.699859 0.360039 0.242861
C33   C     C_R   0.698159 0.209568 0.625848 0.003837
C34   C     C_R   0.301357 0.789623 0.374994 0.017337
C35   C     C_R   0.509024 0.279672 0.520360 0.064763
C36   C     C_R   0.484090 0.715959 0.488764 0.037082
C37   C     C_R   0.543832 0.366738 0.544779 -0.032716
C38   C     C_R   0.440967 0.622899 0.475596 -0.037313
C39   C     C_R   0.663556 0.373478 0.610710 0.013962
C40   C     C_R   0.320862 0.615715 0.410063 0.014463
C41   C     C_R   0.466122 0.448076 0.503822 0.114593
C42   C     C_R   0.512945 0.537729 0.524364 0.100723
C43   C     C_R   0.629756 0.538862 0.593350 -0.202567
C44   C     C_R   0.343528 0.442977 0.442324 -0.118557
C45   C     C_R   0.701682 0.458120 0.636531 -0.089828
C46   C     C_R   0.274337 0.525279 0.395046 -0.073417
H13   H     H_    0.788454 0.463353 0.690674 0.215982
H14   H     H_    0.184135 0.517155 0.345056 0.217812
H15   H     H_    0.571858 0.727240 0.538876 0.160883
H16   H     H_    0.422901 0.270372 0.467927 0.177667
H17   H     H_    0.247262 0.853753 0.339112 0.164717
H18   H     H_    0.756551 0.148352 0.656154 0.169773
H19   H     H_    0.668346 0.600977 0.616940 0.171717
H20   H     H_    0.297914 0.375823 0.428617 0.194569
N3    N     N_R   0.866281 0.299351 0.714243 0.110162
O9    O     O_R   0.899904 0.217797 0.791856 -0.355693
O10   O     O_R   0.955299 0.378310 0.683474 -0.300946
N4    N     N_R   0.125417 0.694881 0.297044 0.113101
O11   O     O_R   0.098598 0.772485 0.212465 -0.343185
O12   O     O_R   0.030562 0.623375 0.333281 -0.313410
N5    N     N_R   0.910217 0.817933 0.652261 0.121560
O13   O     O_R   0.988539 0.750376 0.705420 -0.281965
O14   O     O_R   0.792661 0.800767 0.672718 -0.398786
N6    N     N_R   0.095146 0.177624 0.351724 0.134239
O15   O     O_R   0.090844 0.265891 0.350492 -0.337765
O16   O     O_R   0.141776 0.173186 0.280438 -0.337498
N7    N     N_R   0.278085 0.555367 0.780598 0.117976
O17   O     O_R   0.213246 0.624324 0.772514 -0.287672
O18   O     O_R   0.267511 0.533199 0.702785 -0.334144
N8    N     N_R   0.448162 0.452189 0.231461 0.087816
O19   O     O_R   0.340242 0.389960 0.252487 -0.322480
O20   O     O_R   0.533772 0.467862 0.304117 -0.386643

loop_
_geom_bond_atom_site_label_1
_geom_bond_atom_site_label_2
_geom_bond_distance
_ccdc_geom_bond_type
O5    Cu1   1.959743 S    
C3    C10   1.451443 S    
C43   H19   1.076489 S    
N1    C35   1.360624 A    
N2    C36   1.360448 A    
N5    O13   1.299924 A    
C13   C19   1.397361 A    
O5    C3    1.288678 A    
C4    C9    1.452209 S    
C7    C9    1.542545 S    
C8    C10   1.540332 S    
C7    C12   1.535554 S    
C33   H18   1.081898 S    
C21   C23   1.414477 A    
C10   C12   1.521661 S    
N2    C34   1.353696 A    
C5    C11   1.536321 S    
C36   H15   1.074716 S    
C16   C24   1.402212 A    
C36   C38   1.420370 A    
O4    Cu1   1.935183 S    
C45   H13   1.081123 S    
C38   C40   1.421618 A    
C7    H1    1.110172 S    
C1    C13   1.472091 S    
C2    C14   1.467815 S    
C39   C45   1.401098 A    
C31   C39   1.417398 A    
O6    Cu2   1.959744 S    
C32   C40   1.417528 A    
C40   C46   1.400242 A    
C20   C22   1.404291 A    
C42   C43   1.410026 A    
C14   C20   1.399848 A    
Cu1   Cu2   2.694510 S    
C6    C12   1.536241 S    
C27   C29   1.397306 A    
O2    C2    1.300314 A    
C8    C11   1.537264 S    
C28   C30   1.393309 A    
C30   H6    1.084826 S    
C34   H17   1.082157 S    
C25   C28   1.427462 A    
N5    O14   1.300057 A    
C44   H20   1.075336 S    
C35   C37   1.422354 A    
C38   C42   1.437965 A    
C13   C17   1.401414 A    
C14   C18   1.400630 A    
O4    C2    1.300923 A    
C25   C26   1.423698 A    
N3    O10   1.301404 A    
N1    C33   1.354657 A    
C43   C45   1.388726 A    
C23   C29   1.392137 A    
C21   C25   1.424393 A    
O7    Cu2   1.960401 S    
C24   C30   1.388030 A    
N7    O18   1.301698 A    
C31   N3    1.437202 S    
C22   C26   1.424999 A    
O6    C4    1.289328 A    
C41   C44   1.408470 A    
C11   N5    1.457916 S    
N8    O20   1.300525 A    
C29   H5    1.084490 S    
C35   H16   1.075262 S    
O3    Cu2   1.935184 S    
O8    C4    1.291708 A    
C44   C46   1.387179 A    
C5    C10   1.543343 S    
C27   N7    1.437848 S    
N6    O16   1.300438 A    
C41   C42   1.431280 A    
C6    C9    1.544884 S    
N4    O12   1.301307 A    
O7    C3    1.292103 A    
O1    C1    1.300141 A    
O1    Cu1   1.941886 S    
C17   H10   1.083011 S    
N7    O17   1.301393 A    
Cu1   N2    2.024148 S    
C15   H11   1.083834 S    
C5    C7    1.556836 S    
C16   H12   1.083945 S    
C26   C27   1.429059 A    
C6    H4    1.110393 S    
C28   N8    1.431573 S    
C37   C39   1.420617 A    
O3    C1    1.303202 A    
O8    Cu1   1.960402 S    
C32   N4    1.436465 S    
C31   C33   1.397137 A    
C15   C17   1.394071 A    
C16   C18   1.390805 A    
C22   C24   1.415226 A    
C19   C21   1.406252 A    
C32   C34   1.396234 A    
C8    H2    1.110188 S    
C9    C11   1.525471 S    
N8    O19   1.301151 A    
O2    Cu2   1.941886 S    
C18   H9    1.083041 S    
N3    O9    1.301276 A    
C12   N6    1.455925 S    
C37   C41   1.437599 A    
C5    H3    1.110382 S    
Cu2   N1    2.024148 S    
N6    O15   1.300170 A    
C6    C8    1.557543 S    
N4    O11   1.301235 A    
C15   C23   1.404049 A    
C19   H8    1.078390 S    
C46   H14   1.080875 S    
C20   H7    1.079186 S    
