data_mof_unit_31550.cif
_audit_creation_date              2013-03-05T16:25:15-0500
_audit_creation_method            fapswitch 2.2
_symmetry_space_group_name_H-M    P1
_symmetry_Int_Tables_number       1
_space_group_crystal_system       triclinic
_cell_length_a                    15.277422
_cell_length_b                    13.870743
_cell_length_c                    17.676011
_cell_angle_alpha                 89.711407
_cell_angle_beta                  91.086888
_cell_angle_gamma                 90.550755
_cell_volume                      3744.81815171

loop_
_atom_site_label
_atom_site_type_symbol
_atom_site_description
_atom_site_fract_x
_atom_site_fract_y
_atom_site_fract_z
_atom_type_partial_charge
O1    O     O_R   0.371460 0.581430 0.500010 -0.570673
O2    O     O_R   0.628540 0.418570 0.499990 -0.564111
O3    O     O_R   0.628540 0.581430 0.499990 -0.571138
O4    O     O_R   0.371460 0.418570 0.500010 -0.554271
C1    C     C_R   0.329909 0.499453 0.504012 0.875600
C2    C     C_R   0.670095 0.500305 0.497170 0.891019
O5    O     O_R   0.500000 0.581470 0.391250 -0.580471
O6    O     O_R   0.500000 0.418530 0.608750 -0.589839
O7    O     O_R   0.500000 0.581470 0.608750 -0.583258
O8    O     O_R   0.500000 0.418530 0.391250 -0.588117
C3    C     C_R   0.500312 0.500197 0.355593 0.828578
C4    C     C_R   0.500269 0.499820 0.644408 0.823533
Cu1   Cu    Cu3+1 0.500000 0.596430 0.500000 0.935978
Cu2   Cu    Cu3+1 0.500000 0.403570 0.500000 0.939143
C5    C     C_R   0.538966 0.579045 0.846663 0.426024
C6    C     C_R   0.548056 0.427672 0.155664 0.405852
C7    C     C_R   0.460574 0.573831 0.152559 0.408201
C8    C     C_R   0.468966 0.417967 0.846263 0.424858
C9    C     C_R   0.537141 0.578021 0.766753 -0.325326
C10   C     C_R   0.546403 0.427931 0.234727 -0.290121
C11   C     C_R   0.459372 0.573571 0.231588 -0.282752
C12   C     C_R   0.467129 0.420503 0.766462 -0.329870
H1    H     H_    0.564413 0.636301 0.733791 0.163214
H2    H     H_    0.581345 0.372661 0.266202 0.172869
H3    H     H_    0.424057 0.629399 0.260500 0.168370
H4    H     H_    0.437745 0.362729 0.733704 0.169329
C13   C     C_R   0.501433 0.499470 0.727261 -0.134186
C14   C     C_R   0.501872 0.500526 0.272852 -0.153983
C15   C     C_R   0.504107 0.498441 0.884971 -0.044130
C16   C     C_R   0.504590 0.500382 0.114777 -0.075507
C17   C     C_1   0.504460 0.498507 0.966048 0.098550
C18   C     C_1   0.504658 0.499244 0.033824 0.069057
C19   C     C_R   0.097902 0.587925 0.497281 0.358318
C20   C     C_R   0.905874 0.429134 0.466576 0.389095
C21   C     C_R   0.901345 0.580478 0.534226 0.409821
C22   C     C_R   0.093560 0.417423 0.529537 0.379150
C23   C     C_R   0.187968 0.587315 0.513565 0.278666
C24   C     C_R   0.814846 0.419561 0.473903 0.283571
C25   C     C_R   0.813683 0.586617 0.512107 0.314953
C26   C     C_R   0.184157 0.412499 0.518404 0.298269
C27   C     C_R   0.233360 0.499105 0.511787 -0.405450
C28   C     C_R   0.766788 0.501323 0.494957 -0.433365
C29   C     C_R   0.048523 0.503517 0.511420 -0.172880
C30   C     C_R   0.951187 0.503772 0.505742 -0.196702
C31   C     C_R   0.543709 0.108577 0.559459 0.304278
C32   C     C_R   0.420264 0.891495 0.502207 0.349146
C33   C     C_R   0.451747 0.106989 0.446365 0.304081
C34   C     C_R   0.578425 0.894102 0.503239 0.346512
C35   C     C_R   0.544223 0.210521 0.555966 -0.104256
C36   C     C_R   0.423202 0.790574 0.494349 -0.095747
C37   C     C_R   0.454613 0.208775 0.445767 -0.081937
C38   C     C_R   0.576296 0.792524 0.507586 -0.081744
H5    H     H_    0.581152 0.251380 0.597810 0.140244
H6    H     H_    0.362660 0.752244 0.486056 0.216449
H7    H     H_    0.418583 0.248085 0.402569 0.132955
H8    H     H_    0.636713 0.755136 0.515703 0.213114
N1    N     N_R   0.500000 0.258690 0.500000 -0.197848
N2    N     N_R   0.500000 0.741310 0.500000 -0.225779
C39   C     C_R   0.498026 0.055255 0.503160 -0.032609
C40   C     C_R   0.498969 0.946140 0.503171 -0.043420
O9    O     O_3   0.574016 0.653743 0.891442 -0.623170
C41   C     C_3   0.606684 0.735067 0.852007 0.064401
H9    H     H_    0.608783 0.795860 0.892416 0.167282
H10   H     H_    0.562106 0.759851 0.805604 0.130373
C42   C     C_3   0.700909 0.718523 0.826888 -0.365509
H11   H     H_    0.742843 0.703329 0.877547 0.231015
H12   H     H_    0.703724 0.655308 0.788921 0.219588
C43   C     C_3   0.737507 0.806545 0.785712 -0.913652
H13   H     H_    0.701076 0.817988 0.731509 0.265012
H14   H     H_    0.807522 0.795094 0.773111 0.265142
H15   H     H_    0.732711 0.871792 0.821498 0.254929
O10   O     O_3   0.598257 0.361376 0.118281 -0.605561
C44   C     C_3   0.550430 0.274349 0.110412 0.055959
H16   H     H_    0.481206 0.287058 0.091736 0.143770
H17   H     H_    0.551021 0.234593 0.165311 0.138544
C45   C     C_3   0.593946 0.213181 0.050343 -0.292350
H18   H     H_    0.590003 0.251289 0.994890 0.228260
H19   H     H_    0.664158 0.203180 0.065820 0.225991
C46   C     C_3   0.550001 0.114533 0.042730 -0.972876
H20   H     H_    0.557627 0.073520 0.096500 0.261557
H21   H     H_    0.581415 0.073423 0.997041 0.268655
H22   H     H_    0.479300 0.122257 0.028397 0.263041
O11   O     O_3   0.413664 0.642157 0.112106 -0.607135
C47   C     C_3   0.468339 0.722750 0.097987 0.050374
H23   H     H_    0.537297 0.702081 0.086251 0.144424
H24   H     H_    0.468306 0.771366 0.147873 0.149828
C48   C     C_3   0.432462 0.776472 0.028518 -0.285908
H25   H     H_    0.433567 0.727835 0.978751 0.242802
H26   H     H_    0.363502 0.797392 0.038080 0.218635
C49   C     C_3   0.486474 0.866785 0.011528 -0.958787
H27   H     H_    0.478310 0.920588 0.056761 0.272245
H28   H     H_    0.463962 0.898939 0.956982 0.259844
H29   H     H_    0.556971 0.849295 0.007879 0.258392
O12   O     O_3   0.433180 0.343169 0.889794 -0.618148
C50   C     C_3   0.423813 0.253791 0.851956 0.056855
H30   H     H_    0.433868 0.195708 0.894639 0.164246
H31   H     H_    0.475244 0.241741 0.809318 0.127033
C51   C     C_3   0.330546 0.242461 0.819055 -0.331392
H32   H     H_    0.284499 0.229528 0.866055 0.215033
H33   H     H_    0.309966 0.309594 0.789521 0.224296
C52   C     C_3   0.323560 0.158936 0.763377 -0.951777
H34   H     H_    0.364794 0.173879 0.713521 0.250423
H35   H     H_    0.254579 0.150315 0.743458 0.264269
H36   H     H_    0.344638 0.090711 0.790977 0.250518
O13   O     O_3   0.056947 0.672925 0.475842 -0.554595
C53   C     C_3   0.092163 0.711281 0.408185 0.081943
H37   H     H_    0.044302 0.698475 0.361225 0.125844
H38   H     H_    0.154800 0.678173 0.390529 0.137112
C54   C     C_3   0.106432 0.819886 0.417531 -0.275958
H39   H     H_    0.043127 0.854607 0.430164 0.210394
H40   H     H_    0.152464 0.833291 0.465786 0.261741
C55   C     C_3   0.144102 0.865558 0.346365 -0.918804
H41   H     H_    0.208878 0.834058 0.334122 0.262109
H42   H     H_    0.152838 0.944262 0.355013 0.262308
H43   H     H_    0.098894 0.853881 0.297236 0.249051
O14   O     O_3   0.948688 0.366282 0.419633 -0.571308
C56   C     C_3   0.965824 0.413386 0.349876 0.033469
H44   H     H_    0.015328 0.370559 0.319960 0.159268
H45   H     H_    0.995204 0.486619 0.357880 0.117935
C57   C     C_3   0.883468 0.418802 0.298757 -0.314132
H46   H     H_    0.854401 0.345492 0.292113 0.249007
H47   H     H_    0.834246 0.466284 0.324595 0.211050
C58   C     C_3   0.904903 0.459722 0.220945 -0.927630
H48   H     H_    0.932999 0.533595 0.226475 0.255232
H49   H     H_    0.844120 0.463429 0.185627 0.271419
H50   H     H_    0.952405 0.412833 0.192221 0.258386
O15   O     O_3   0.937167 0.656107 0.575534 -0.527598
C59   C     C_3   0.954925 0.626084 0.650905 0.075062
H51   H     H_    0.986417 0.687979 0.680688 0.173616
H52   H     H_    0.002708 0.566560 0.652860 0.108301
C60   C     C_3   0.871990 0.597482 0.694078 -0.397231
H53   H     H_    0.822792 0.655555 0.688218 0.250319
H54   H     H_    0.843183 0.530107 0.670141 0.189273
C61   C     C_3   0.893216 0.579768 0.777681 -0.918999
H55   H     H_    0.944397 0.523849 0.784097 0.253604
H56   H     H_    0.833640 0.554016 0.806849 0.257235
H57   H     H_    0.916666 0.647466 0.804933 0.259330
O16   O     O_3   0.049638 0.334328 0.551427 -0.580726
C62   C     C_3   0.029347 0.338907 0.629176 0.032353
H58   H     H_    0.982320 0.279547 0.641125 0.167596
H59   H     H_    0.995190 0.406456 0.643410 0.118724
C63   C     C_3   0.110383 0.324170 0.680595 -0.321908
H60   H     H_    0.144368 0.257299 0.663858 0.247543
H61   H     H_    0.156393 0.386149 0.674679 0.208782
C64   C     C_3   0.084800 0.315934 0.763406 -0.941251
H62   H     H_    0.051098 0.382368 0.781357 0.254978
H63   H     H_    0.144338 0.306507 0.799455 0.259746
H64   H     H_    0.040822 0.252706 0.771826 0.259117
O17   O     O_3   0.229561 0.674684 0.527441 -0.598206
C65   C     C_3   0.255512 0.680861 0.604902 0.103296
H65   H     H_    0.299986 0.744110 0.610842 0.158722
H66   H     H_    0.293833 0.617292 0.624520 0.133283
C66   C     C_3   0.177320 0.694986 0.656570 -0.389118
H67   H     H_    0.131528 0.748241 0.631009 0.247565
H68   H     H_    0.142716 0.624915 0.662840 0.194028
C67   C     C_3   0.206618 0.729207 0.735023 -0.937615
H69   H     H_    0.252209 0.676427 0.761525 0.263799
H70   H     H_    0.148596 0.736172 0.771424 0.259566
H71   H     H_    0.239826 0.800610 0.731167 0.249578
O18   O     O_3   0.773349 0.337430 0.446478 -0.575430
C68   C     C_3   0.761735 0.270878 0.506602 0.126327
H72   H     H_    0.705786 0.223183 0.490542 0.169302
H73   H     H_    0.744451 0.306368 0.560830 0.121754
C69   C     C_3   0.842212 0.207494 0.518590 -0.377030
H74   H     H_    0.856185 0.168713 0.465552 0.244469
H75   H     H_    0.899825 0.252842 0.532471 0.265609
C70   C     C_3   0.828948 0.136187 0.583569 -0.932455
H76   H     H_    0.822566 0.175557 0.637732 0.250009
H77   H     H_    0.886282 0.087796 0.588389 0.262323
H78   H     H_    0.769013 0.091787 0.573655 0.312064
O19   O     O_3   0.778488 0.677147 0.500922 -0.564669
C71   C     C_3   0.768597 0.694502 0.421658 0.089366
H79   H     H_    0.727530 0.759207 0.413591 0.153018
H80   H     H_    0.732538 0.635187 0.391958 0.130965
C72   C     C_3   0.856703 0.712846 0.383389 -0.357377
H81   H     H_    0.892920 0.771510 0.413340 0.250053
H82   H     H_    0.896590 0.646454 0.386128 0.212598
C73   C     C_3   0.843957 0.739905 0.300135 -0.961932
H83   H     H_    0.811166 0.679815 0.269012 0.265053
H84   H     H_    0.908698 0.754009 0.274582 0.259351
H85   H     H_    0.803705 0.805784 0.294030 0.263026
O20   O     O_3   0.224243 0.323870 0.526508 -0.579581
C74   C     C_3   0.233942 0.280620 0.454740 0.096771
H86   H     H_    0.281903 0.221963 0.462639 0.187944
H87   H     H_    0.260992 0.331780 0.412094 0.119505
C75   C     C_3   0.148673 0.234889 0.424363 -0.333362
H88   H     H_    0.117513 0.190567 0.468948 0.261334
H89   H     H_    0.102962 0.292525 0.407374 0.245528
C76   C     C_3   0.165137 0.172189 0.355476 -0.967859
H90   H     H_    0.193304 0.216401 0.309185 0.256575
H91   H     H_    0.102387 0.139696 0.335031 0.265912
H92   H     H_    0.211131 0.113323 0.370496 0.282991
O21   O     O_3   0.590998 0.060561 0.615328 -0.578606
C77   C     C_3   0.553105 0.076665 0.686366 0.046458
H93   H     H_    0.481257 0.062062 0.684179 0.119406
H94   H     H_    0.565654 0.152136 0.705027 0.132457
C78   C     C_3   0.594392 0.008074 0.744345 -0.291239
H95   H     H_    0.579433 0.932531 0.727429 0.214234
H96   H     H_    0.666635 0.018687 0.745364 0.231602
C79   C     C_3   0.559751 0.025000 0.823536 -0.986228
H97   H     H_    0.575132 0.099709 0.842188 0.258226
H98   H     H_    0.591313 0.974080 0.864024 0.254246
H99   H     H_    0.487841 0.012781 0.824341 0.255782
O22   O     O_3   0.339455 0.934295 0.509569 -0.547017
C80   C     C_3   0.329228 0.962098 0.585950 0.104464
H100  H     H_    0.359001 0.034503 0.595472 0.140265
H101  H     H_    0.360147 0.910449 0.626911 0.067094
C81   C     C_3   0.232058 0.966205 0.604393 -0.366445
H102  H     H_    0.200470 0.895843 0.591141 0.226129
H103  H     H_    0.225148 0.979857 0.665893 0.174222
C82   C     C_3   0.185382 0.045574 0.560095 -0.766892
H104  H     H_    0.215357 0.116819 0.573703 0.256552
H105  H     H_    0.115309 0.046774 0.575601 0.225919
H106  H     H_    0.189452 0.032125 0.498406 0.284233
O23   O     O_3   0.396564 0.058499 0.396527 -0.577961
C83   C     C_3   0.433439 0.058112 0.324145 0.039091
H107  H     H_    0.501121 0.028615 0.326498 0.121254
H108  H     H_    0.434853 0.132326 0.299806 0.129380
C84   C     C_3   0.376481 0.993714 0.273147 -0.281923
H109  H     H_    0.374984 0.919341 0.296921 0.222238
H110  H     H_    0.308437 0.021460 0.271186 0.224433
C85   C     C_3   0.411230 0.990586 0.193070 -0.983167
H111  H     H_    0.411269 0.063945 0.167575 0.262430
H112  H     H_    0.368536 0.942793 0.157851 0.267368
H113  H     H_    0.478827 0.961756 0.193751 0.250656
O24   O     O_3   0.659245 0.939874 0.500634 -0.568495
C86   C     C_3   0.671749 0.978924 0.427354 0.054899
H114  H     H_    0.646662 0.053822 0.425392 0.148050
H115  H     H_    0.638280 0.936025 0.381697 0.104485
C87   C     C_3   0.769487 0.981601 0.410668 -0.330493
H116  H     H_    0.806302 0.013900 0.458747 0.243291
H117  H     H_    0.793744 0.907405 0.404388 0.220123
C88   C     C_3   0.788207 0.038474 0.338549 -0.940614
H118  H     H_    0.753369 0.005116 0.289394 0.253571
H119  H     H_    0.859626 0.038275 0.327994 0.263461
H120  H     H_    0.766818 0.114367 0.344388 0.268533

loop_
_geom_bond_atom_site_label_1
_geom_bond_atom_site_label_2
_geom_bond_distance
_ccdc_geom_bond_type
C77   H94   1.112953 S    
O19   C71   1.425850 S    
C52   H34   1.110452 S    
C76   H92   1.110265 S    
C44   H16   1.117255 S    
C9    H1    1.079126 S    
C50   H30   1.110743 S    
C6    O10   1.381798 S    
C45   C46   1.523782 S    
C74   H86   1.106702 S    
C60   C61   1.526115 S    
C59   H51   1.110274 S    
C64   H64   1.110798 S    
C61   H57   1.110711 S    
C55   H42   1.109531 S    
C68   H72   1.109357 S    
C50   C51   1.535700 S    
O17   C65   1.420977 S    
C58   H48   1.111181 S    
C70   H77   1.110367 S    
C80   H100  1.110801 S    
C57   H46   1.111550 S    
C5    C9    1.412378 A    
O21   C77   1.412304 S    
C36   H6    1.070437 S    
O11   C47   1.413080 S    
O1    C1    1.299203 A    
C69   H74   1.108467 S    
C45   H19   1.111772 S    
C24   C28   1.412213 A    
C83   H108  1.113847 S    
C56   H45   1.115170 S    
C64   H62   1.110496 S    
C62   C63   1.536510 S    
C73   H84   1.110362 S    
C58   H49   1.110528 S    
C77   C78   1.526606 S    
C53   H37   1.109591 S    
C78   H95   1.111553 S    
C6    C16   1.402772 A    
C35   N1    1.363135 A    
O14   C56   1.420076 S    
C87   C88   1.525959 S    
C78   H96   1.111878 S    
C76   H91   1.110392 S    
O7    Cu1   1.932394 S    
O20   C74   1.416897 S    
C25   O19   1.382561 S    
C68   H73   1.117006 S    
C43   H13   1.110325 S    
C49   H28   1.110339 S    
C67   H70   1.110400 S    
C86   H114  1.110925 S    
C71   H80   1.113846 S    
C79   H97   1.110673 S    
C42   H12   1.108531 S    
C65   C66   1.532044 S    
C33   O23   1.380596 S    
C41   H10   1.111399 S    
C83   H107  1.115622 S    
C47   C48   1.528594 S    
C5    C15   1.409520 A    
C37   N1    1.360638 A    
C70   H78   1.110217 S    
C9    C13   1.397792 A    
C88   H118  1.110880 S    
O3    Cu1   1.976741 S    
C57   C58   1.525374 S    
C6    C10   1.398259 A    
O10   C44   1.411120 S    
C32   C40   1.415058 A    
O3    C2    1.298933 A    
C32   O22   1.383647 S    
C77   H93   1.114252 S    
C39   C40   1.513718 S    
C52   H35   1.110310 S    
C8    C12   1.410573 A    
Cu1   Cu2   2.675113 S    
C23   C27   1.412955 A    
C7    C16   1.404699 A    
C44   H17   1.113655 S    
C63   C64   1.525645 S    
O2    C2    1.295242 A    
C55   H41   1.111051 S    
C64   H63   1.109016 S    
C57   H47   1.110593 S    
C34   C40   1.418201 A    
C25   C28   1.408533 A    
C26   O20   1.384280 S    
C67   H71   1.110818 S    
C31   O21   1.384320 S    
C4    C13   1.464265 S    
C1    C27   1.483967 S    
C19   C29   1.410509 A    
C10   H2    1.083751 S    
C22   C26   1.404045 A    
C19   O13   1.387759 S    
C45   H18   1.112173 S    
C79   H98   1.109912 S    
C72   H82   1.109494 S    
O8    Cu2   1.932394 S    
C56   C57   1.537250 S    
C23   O17   1.383781 S    
C70   H76   1.110909 S    
C46   H21   1.110088 S    
C72   C73   1.526226 S    
C81   H102  1.108713 S    
C58   H50   1.110767 S    
C33   C37   1.412098 A    
Cu1   N2    2.009592 S    
C10   C14   1.402966 A    
C85   H113  1.110844 S    
C85   H112  1.110355 S    
C19   C23   1.400508 A    
C7    O11   1.381983 S    
C36   N2    1.365204 A    
C78   C79   1.525889 S    
C21   C25   1.391293 A    
C29   C30   1.488556 S    
C82   H104  1.110708 S    
C41   H9    1.107678 S    
O7    C4    1.293343 A    
C87   H117  1.104008 S    
C84   H110  1.111823 S    
C74   H87   1.115076 S    
C34   O24   1.384388 S    
O5    C3    1.294401 A    
C17   C18   1.198064 T    
C31   C35   1.415037 A    
O6    C4    1.294472 A    
C42   C43   1.525241 S    
C82   H106  1.110185 S    
C50   H31   1.113372 S    
C5    O9    1.402960 S    
C20   C30   1.416188 A    
O12   C50   1.416352 S    
C8    C15   1.408751 A    
C47   H23   1.117952 S    
C66   C67   1.525689 S    
C21   O15   1.383702 S    
C21   C30   1.414520 A    
C88   H119  1.110450 S    
C38   N2    1.363951 A    
C43   H14   1.109807 S    
C26   C27   1.416472 A    
C86   H115  1.118118 S    
C11   C14   1.402622 A    
O24   C86   1.417031 S    
C52   H36   1.110184 S    
C51   H33   1.110389 S    
C12   C13   1.396297 A    
C48   H26   1.111668 S    
C2    C28   1.478415 S    
C8    O12   1.401561 S    
C44   C45   1.528374 S    
C65   H66   1.113374 S    
C54   C55   1.525572 S    
C66   H68   1.108007 S    
C75   H89   1.103338 S    
O15   C59   1.415908 S    
C59   C60   1.539193 S    
C34   C38   1.410774 A    
C84   H109  1.112144 S    
C68   C69   1.529221 S    
C71   H79   1.107084 S    
C49   H29   1.109402 S    
C80   C81   1.527568 S    
C76   H90   1.110842 S    
C41   C42   1.534150 S    
Cu2   N1    2.009592 S    
C11   H3    1.083680 S    
C31   C39   1.412638 A    
O6    Cu2   1.934473 S    
C67   H69   1.111085 S    
C82   H105  1.110389 S    
C20   C24   1.404094 A    
C69   C70   1.527122 S    
C47   H24   1.112783 S    
O4    C1    1.297247 A    
C60   H54   1.111347 S    
C59   H52   1.107301 S    
C46   H22   1.110823 S    
C61   H56   1.109730 S    
C62   H58   1.109654 S    
C71   C72   1.536339 S    
C43   H15   1.110569 S    
C61   H55   1.110536 S    
C51   C52   1.525558 S    
O13   C53   1.419577 S    
C32   C36   1.408646 A    
C79   H99   1.110345 S    
C74   C75   1.532540 S    
C83   C84   1.526795 S    
O18   C68   1.416753 S    
C75   C76   1.526040 S    
C54   H40   1.110397 S    
C75   H88   1.108765 S    
C24   O18   1.383743 S    
C87   H116  1.104590 S    
C15   C17   1.433024 S    
C72   H81   1.110461 S    
C56   H44   1.109720 S    
C84   C85   1.522089 S    
C16   C18   1.431111 S    
C62   H59   1.109158 S    
C49   H27   1.106046 S    
C20   O14   1.383916 S    
C53   H38   1.115900 S    
C3    C14   1.463159 S    
C81   C82   1.522771 S    
C35   H5    1.081111 S    
C69   H75   1.101511 S    
C37   H7    1.081201 S    
C42   H11   1.111590 S    
O23   C83   1.407770 S    
O4    Cu2   1.976744 S    
O9    C41   1.414861 S    
O2    Cu2   1.972763 S    
C88   H120  1.111115 S    
C7    C11   1.397376 A    
C73   H85   1.110001 S    
O8    C3    1.293562 A    
C33   C39   1.413589 A    
C46   H20   1.110025 S    
C38   H8    1.070000 S    
O5    Cu1   1.934473 S    
C86   C87   1.527587 S    
O1    Cu1   1.972766 S    
O22   C80   1.417848 S    
C48   H25   1.111762 S    
C81   H103  1.111567 S    
C51   H32   1.111539 S    
C12   H4    1.080217 S    
C48   C49   1.525161 S    
C63   H60   1.111437 S    
C65   H65   1.108661 S    
C22   C29   1.416209 A    
C66   H67   1.110758 S    
C54   H39   1.111474 S    
C80   H101  1.117535 S    
C22   O16   1.385255 S    
C85   H111  1.110793 S    
C55   H43   1.110816 S    
C63   H61   1.111008 S    
O16   C62   1.416421 S    
C60   H53   1.110109 S    
C73   H83   1.111054 S    
C53   C54   1.529383 S    
