data_mof_unit_57069.cif
_audit_creation_date              2013-03-05T15:41:03-0500
_audit_creation_method            fapswitch 2.2
_symmetry_space_group_name_H-M    P1
_symmetry_Int_Tables_number       1
_space_group_crystal_system       triclinic
_cell_length_a                    28.126422
_cell_length_b                    18.402572
_cell_length_c                    17.000491
_cell_angle_alpha                 90.294445
_cell_angle_beta                  62.138538
_cell_angle_gamma                 89.662257
_cell_volume                      7778.95515683

loop_
_atom_site_label
_atom_site_type_symbol
_atom_site_description
_atom_site_fract_x
_atom_site_fract_y
_atom_site_fract_z
_atom_type_partial_charge
O1    O     O_R   0.746490 0.236330 0.638080 -0.607175
O2    O     O_R   0.253510 0.763670 0.361920 -0.622406
O3    O     O_R   0.253510 0.236330 0.361920 -0.661131
O4    O     O_R   0.746490 0.763670 0.638080 -0.662546
O5    O     O_R   0.246490 0.736330 0.638080 -0.665676
O6    O     O_R   0.753510 0.263670 0.361920 -0.595333
O7    O     O_R   0.753510 0.736330 0.361920 -0.610158
O8    O     O_R   0.246490 0.263670 0.638080 -0.676779
O9    O     O_R   0.674170 0.186160 0.516270 -0.592144
O10   O     O_R   0.325830 0.813840 0.483730 -0.604032
O11   O     O_R   0.325830 0.186160 0.483730 -0.596029
O12   O     O_R   0.674170 0.813840 0.516270 -0.603436
O13   O     O_R   0.174170 0.686160 0.516270 -0.585920
O14   O     O_R   0.825830 0.313840 0.483730 -0.582905
O15   O     O_R   0.825830 0.686160 0.483730 -0.597401
O16   O     O_R   0.174170 0.313840 0.516270 -0.618167
O17   O     O_R   0.739960 0.127620 0.525000 -0.644366
O18   O     O_R   0.260040 0.872380 0.475000 -0.639797
O19   O     O_R   0.260040 0.127620 0.475000 -0.623946
O20   O     O_R   0.739960 0.872380 0.525000 -0.631946
O21   O     O_R   0.239960 0.627620 0.525000 -0.641114
O22   O     O_R   0.760040 0.372380 0.475000 -0.654572
O23   O     O_R   0.760040 0.627620 0.475000 -0.643133
O24   O     O_R   0.239960 0.372380 0.525000 -0.637510
O25   O     O_R   0.680700 0.294870 0.629350 -0.558272
O26   O     O_R   0.319300 0.705130 0.370650 -0.526802
O27   O     O_R   0.319300 0.294870 0.370650 -0.514373
O28   O     O_R   0.680700 0.705130 0.629350 -0.542946
O29   O     O_R   0.180700 0.794870 0.629350 -0.542728
O30   O     O_R   0.819300 0.205130 0.370650 -0.557434
O31   O     O_R   0.819300 0.794870 0.370650 -0.537095
O32   O     O_R   0.180700 0.205130 0.629350 -0.520074
C1    C     C_R   0.700831 0.265369 0.676973 0.956812
C2    C     C_R   0.298063 0.732519 0.323841 0.974990
C3    C     C_R   0.292930 0.278633 0.327981 0.936392
C4    C     C_R   0.701330 0.733464 0.676957 0.914785
C5    C     C_R   0.201150 0.766180 0.676927 0.922662
C6    C     C_R   0.799547 0.235224 0.322943 0.945710
C7    C     C_R   0.798211 0.767280 0.323648 0.959610
C8    C     C_R   0.202429 0.231421 0.676098 0.940212
C9    C     C_R   0.697940 0.128380 0.512093 0.913324
C10   C     C_R   0.308787 0.870235 0.463153 0.893742
C11   C     C_R   0.308874 0.129546 0.462920 0.929056
C12   C     C_R   0.696548 0.871778 0.516154 0.916224
C13   C     C_R   0.197922 0.627507 0.513704 0.952941
C14   C     C_R   0.802158 0.372490 0.486089 0.937310
C15   C     C_R   0.808935 0.629452 0.463206 0.909511
C16   C     C_R   0.191078 0.370538 0.536802 0.906279
Zn1   Zn    Zn3+2 0.792340 0.208750 0.507670 1.122946
Zn2   Zn    Zn3+2 0.207660 0.791250 0.492330 1.123155
Zn3   Zn    Zn3+2 0.207660 0.208750 0.492330 1.097451
Zn4   Zn    Zn3+2 0.792340 0.791250 0.507670 1.096132
Zn5   Zn    Zn3+2 0.292340 0.708750 0.507670 1.095857
Zn6   Zn    Zn3+2 0.707660 0.291250 0.492330 1.120975
Zn7   Zn    Zn3+2 0.707660 0.708750 0.492330 1.109098
Zn8   Zn    Zn3+2 0.292340 0.291250 0.507670 1.095878
H1    H     H_    0.977856 0.304766 0.696113 0.218820
H2    H     H_    0.022227 0.695142 0.303880 0.220927
H3    H     H_    0.896190 0.309723 0.687909 0.200610
H4    H     H_    0.103910 0.690147 0.311885 0.203123
H5    H     H_    0.566489 0.750271 0.421729 0.201836
H6    H     H_    0.501815 0.241403 0.356945 0.226115
H7    H     H_    0.490244 0.749331 0.399126 0.215760
H8    H     H_    0.578775 0.242155 0.376165 0.204985
C17   C     C_R   0.574101 0.129211 0.418356 -0.001810
C18   C     C_R   0.475898 0.866502 0.411968 -0.011896
C19   C     C_R   0.479506 0.129214 0.397837 -0.010576
C20   C     C_R   0.569961 0.867778 0.433861 -0.006392
C21   C     C_R   0.079531 0.605266 0.412507 -0.000551
C22   C     C_R   0.920637 0.394657 0.587351 -0.000396
C23   C     C_R   0.982460 0.609657 0.399989 -0.008653
C24   C     C_R   0.017642 0.390288 0.600058 -0.009136
C25   C     C_R   0.557434 0.191660 0.390067 -0.153368
C26   C     C_R   0.503537 0.801764 0.408692 -0.139382
C27   C     C_R   0.511384 0.191552 0.379627 -0.136599
C28   C     C_R   0.549156 0.802346 0.420536 -0.144858
C29   C     C_R   0.072731 0.653645 0.354472 -0.146603
C30   C     C_R   0.927407 0.346245 0.645397 -0.148694
C31   C     C_R   0.024922 0.656461 0.349314 -0.133980
C32   C     C_R   0.975182 0.343458 0.650674 -0.137631
C33   C     C_R   0.497825 0.064672 0.419593 0.031053
C34   C     C_R   0.542583 0.933119 0.438382 0.030019
C35   C     C_R   0.544605 0.064934 0.430883 0.028568
C36   C     C_R   0.495939 0.932618 0.426755 0.031233
C37   C     C_R   0.990941 0.555389 0.451045 0.030527
C38   C     C_R   0.009171 0.444562 0.548957 0.029445
C39   C     C_R   0.039147 0.553690 0.458125 0.023874
C40   C     C_R   0.960975 0.446272 0.541850 0.022919
C41   C     C_R   0.952146 0.501439 0.492534 -0.037922
C42   C     C_R   0.047960 0.498519 0.507458 -0.037584
C43   C     C_R   0.472095 0.998737 0.422252 -0.042820
C44   C     C_R   0.565002 0.999471 0.445443 -0.043002
C45   C     C_R   0.868496 0.443915 0.516850 -0.037022
C46   C     C_R   0.131622 0.556002 0.483026 -0.037874
C47   C     C_R   0.107122 0.438891 0.557674 -0.034232
C48   C     C_R   0.892950 0.561108 0.442373 -0.027526
C49   C     C_R   0.398381 0.932444 0.418010 -0.021631
C50   C     C_R   0.634406 0.065753 0.464335 -0.021081
C51   C     C_R   0.632965 0.934058 0.469050 -0.019033
C52   C     C_R   0.398880 0.065340 0.415302 -0.027116
C53   C     C_R   0.828192 0.439238 0.488494 -0.066629
C54   C     C_R   0.171937 0.560714 0.511302 -0.063238
C55   C     C_R   0.158897 0.436722 0.553243 -0.061098
C56   C     C_R   0.841179 0.563278 0.446728 -0.060204
C57   C     C_R   0.343521 0.934074 0.435741 -0.077326
C58   C     C_R   0.673531 0.064424 0.496902 -0.064279
C59   C     C_R   0.672296 0.935871 0.500592 -0.063517
C60   C     C_R   0.343697 0.064877 0.434921 -0.081210
C61   C     C_R   0.813983 0.499713 0.456762 -0.274241
C62   C     C_R   0.186160 0.500260 0.543029 -0.254479
C63   C     C_R   0.318021 0.999698 0.441530 -0.258479
C64   C     C_R   0.689134 0.000345 0.518425 -0.268592
H9    H     H_    0.779040 0.498848 0.445587 0.194012
H10   H     H_    0.221146 0.501123 0.554084 0.197540
H11   H     H_    0.275897 0.000072 0.457709 0.202774
H12   H     H_    0.716914 0.000492 0.546235 0.187962
C65   C     C_R   0.904787 0.502097 0.483726 -0.012731
C66   C     C_R   0.095302 0.497866 0.516261 -0.014138
C67   C     C_R   0.423093 0.998833 0.418676 0.001258
C68   C     C_R   0.609475 0.999955 0.462801 -0.001365
C69   C     C_R   0.067215 0.386017 0.602654 0.253564
C70   C     C_R   0.932863 0.613989 0.397498 0.255622
C71   C     C_R   0.873997 0.393856 0.575799 0.278109
C72   C     C_R   0.126241 0.605948 0.423895 0.277660
C73   C     C_R   0.619596 0.870432 0.435749 0.277016
C74   C     C_R   0.431226 0.128798 0.391108 0.249328
C75   C     C_R   0.429782 0.867536 0.398618 0.251230
C76   C     C_R   0.621786 0.127827 0.427126 0.282933
C77   C     C_R   0.720724 0.265145 0.954415 0.042388
C78   C     C_R   0.284709 0.745629 0.041645 0.044040
C79   C     C_R   0.269721 0.286029 0.055630 0.041993
C80   C     C_R   0.720611 0.733138 0.955009 0.042173
C81   C     C_R   0.220349 0.766379 0.955083 0.042126
C82   C     C_R   0.785413 0.244358 0.040773 0.044372
C83   C     C_R   0.785113 0.754658 0.041208 0.043357
C84   C     C_R   0.209688 0.254681 0.964100 0.041884
C85   C     C_R   0.770368 0.227179 0.910629 0.072549
C86   C     C_R   0.235339 0.784072 0.085119 0.073848
C87   C     C_R   0.214986 0.264829 0.103903 0.083751
C88   C     C_R   0.770126 0.770352 0.911381 0.087461
C89   C     C_R   0.270706 0.729955 0.910718 0.087068
C90   C     C_R   0.736031 0.282860 0.084267 0.078662
C91   C     C_R   0.736504 0.715653 0.084020 0.077137
C92   C     C_R   0.260901 0.286983 0.919475 0.086679
C93   C     C_R   0.803936 0.219786 0.952314 -0.005593
C94   C     C_R   0.201723 0.791033 0.043569 -0.011148
C95   C     C_R   0.185960 0.244285 0.056922 -0.013595
C96   C     C_R   0.803551 0.778224 0.953046 -0.009184
C97   C     C_R   0.303998 0.722415 0.952718 -0.010004
C98   C     C_R   0.702556 0.290347 0.042563 -0.006495
C99   C     C_R   0.702758 0.708287 0.042748 -0.012223
C100  C     C_R   0.293069 0.295155 0.962873 -0.016231
C101  C     C_R   0.638521 0.313157 0.954750 -0.083572
C102  C     C_R   0.363947 0.691205 0.045046 -0.079568
C103  C     C_R   0.355638 0.320369 0.052346 -0.085143
C104  C     C_R   0.638426 0.686203 0.955251 -0.084558
C105  C     C_R   0.137511 0.812334 0.955762 -0.082576
C106  C     C_R   0.865988 0.192666 0.042537 -0.083236
C107  C     C_R   0.863915 0.809342 0.044694 -0.080519
C108  C     C_R   0.133009 0.196014 0.956939 -0.084039
C109  C     C_R   0.611750 0.336521 0.904849 -0.187798
C110  C     C_R   0.384548 0.656994 0.098938 -0.199979
C111  C     C_R   0.382499 0.345950 0.101044 -0.186371
C112  C     C_R   0.612196 0.662184 0.904712 -0.195440
C113  C     C_R   0.111125 0.835967 0.905387 -0.192764
C114  C     C_R   0.890573 0.165845 0.094221 -0.183182
C115  C     C_R   0.885210 0.842351 0.098315 -0.194398
C116  C     C_R   0.114141 0.158855 0.902087 -0.192046
C117  C     C_R   0.628125 0.309263 0.819233 0.211235
C118  C     C_R   0.358783 0.667211 0.190550 0.237092
C119  C     C_R   0.360924 0.332183 0.191371 0.225003
C120  C     C_R   0.629175 0.688068 0.818500 0.222074
C121  C     C_R   0.128084 0.809371 0.819256 0.222117
C122  C     C_R   0.873139 0.191371 0.181120 0.222929
C123  C     C_R   0.861354 0.829397 0.189415 0.233022
C124  C     C_R   0.139844 0.169037 0.810292 0.230597
C125  C     C_R   0.677023 0.272079 0.775017 -0.214917
C126  C     C_R   0.319611 0.720912 0.228062 -0.163489
C127  C     C_R   0.310216 0.301911 0.236656 -0.225503
C128  C     C_R   0.677608 0.725671 0.775030 -0.235752
C129  C     C_R   0.177365 0.773074 0.774945 -0.234800
C130  C     C_R   0.824823 0.230072 0.224377 -0.220801
C131  C     C_R   0.820796 0.778021 0.227177 -0.176337
C132  C     C_R   0.180265 0.220469 0.772379 -0.204067
C133  C     C_R   0.705995 0.251169 0.822716 0.087813
C134  C     C_R   0.296128 0.752570 0.176621 0.068582
C135  C     C_R   0.277276 0.294083 0.193744 0.049488
C136  C     C_R   0.706088 0.746524 0.823307 0.058790
C137  C     C_R   0.206445 0.752791 0.822621 0.059203
C138  C     C_R   0.797932 0.254278 0.174852 0.086438
C139  C     C_R   0.797387 0.747282 0.175267 0.073732
C140  C     C_R   0.203177 0.252233 0.824474 0.055089
C141  C     C_R   0.688650 0.277145 0.910240 0.034078
C142  C     C_R   0.314720 0.729405 0.087922 0.035546
C143  C     C_R   0.300934 0.299911 0.100471 0.044306
C144  C     C_R   0.688554 0.721318 0.910855 0.037826
C145  C     C_R   0.188247 0.777682 0.910892 0.035178
C146  C     C_R   0.816395 0.230175 0.086201 0.034427
C147  C     C_R   0.815272 0.770890 0.087282 0.036220
C148  C     C_R   0.182183 0.233562 0.915026 0.037485
C149  C     C_R   0.615973 0.320516 0.048678 0.321999
C150  C     C_R   0.389036 0.687828 0.950604 0.324950
C151  C     C_R   0.380587 0.315631 0.958057 0.324575
C152  C     C_R   0.615852 0.679514 0.049355 0.323917
C153  C     C_R   0.114583 0.819284 0.050002 0.325800
C154  C     C_R   0.889652 0.186151 0.948191 0.323993
C155  C     C_R   0.888399 0.813037 0.950398 0.323273
C156  C     C_R   0.105709 0.197088 0.051519 0.324227
C157  C     C_R   0.648976 0.314740 0.089672 -0.279633
C158  C     C_R   0.357868 0.698157 0.906639 -0.279923
C159  C     C_R   0.348788 0.307491 0.915069 -0.276613
C160  C     C_R   0.649239 0.684666 0.089951 -0.275326
C161  C     C_R   0.147762 0.814176 0.090966 -0.288722
C162  C     C_R   0.857455 0.194596 0.905832 -0.288935
C163  C     C_R   0.856926 0.802937 0.906994 -0.277102
C164  C     C_R   0.133063 0.217222 0.099427 -0.265999
C165  C     C_R   0.750050 0.201921 0.788748 -0.055711
C166  C     C_R   0.254201 0.805176 0.209424 -0.065194
C167  C     C_R   0.221323 0.282670 0.240955 -0.147228
C168  C     C_R   0.749992 0.794943 0.789705 -0.138888
C169  C     C_R   0.251581 0.705263 0.787754 -0.138747
C170  C     C_R   0.754640 0.304577 0.208628 -0.054655
C171  C     C_R   0.756425 0.694418 0.206972 -0.055524
C172  C     C_R   0.246447 0.301878 0.790753 -0.140124
C173  C     C_R   0.782584 0.192559 0.829516 -0.195635
C174  C     C_R   0.223016 0.818004 0.166750 -0.191645
C175  C     C_R   0.191296 0.266422 0.197402 -0.198724
C176  C     C_R   0.782282 0.804289 0.830638 -0.214370
C177  C     C_R   0.283902 0.696422 0.828781 -0.218909
C178  C     C_R   0.723404 0.316579 0.166116 -0.189146
C179  C     C_R   0.725154 0.681469 0.164535 -0.174228
C180  C     C_R   0.276767 0.314639 0.834429 -0.220138
H13   H     H_    0.630310 0.321735 0.161036 0.185956
H14   H     H_    0.377675 0.693039 0.834989 0.187836
H15   H     H_    0.368942 0.304631 0.843173 0.190590
H16   H     H_    0.631050 0.677570 0.161144 0.192055
H17   H     H_    0.129240 0.821232 0.162335 0.186472
H18   H     H_    0.876452 0.187818 0.834404 0.183470
H19   H     H_    0.876299 0.808219 0.835484 0.189417
H20   H     H_    0.111022 0.213202 0.170736 0.185120
H21   H     H_    0.759317 0.166719 0.732532 0.170998
H22   H     H_    0.244379 0.838083 0.267643 0.174266
H23   H     H_    0.199090 0.288528 0.312366 0.174819
H24   H     H_    0.759017 0.830330 0.734403 0.180880
H25   H     H_    0.261682 0.670107 0.731276 0.181503
H26   H     H_    0.744988 0.338121 0.266349 0.171466
H27   H     H_    0.747715 0.661187 0.263991 0.172125
H28   H     H_    0.258125 0.333294 0.731580 0.184618
O33   O     O_R   0.062020 0.072840 0.007170 -0.630443
O34   O     O_R   0.937980 0.927160 0.992830 -0.629000
O35   O     O_R   0.937980 0.072840 0.992830 -0.628331
O36   O     O_R   0.062020 0.927160 0.007170 -0.626968
O37   O     O_R   0.562020 0.572840 0.007170 -0.624429
O38   O     O_R   0.437980 0.427160 0.992830 -0.629153
O39   O     O_R   0.437980 0.572840 0.992830 -0.630914
O40   O     O_R   0.562020 0.427160 0.007170 -0.623895
O41   O     O_R   0.947860 0.073950 0.109290 -0.541092
O42   O     O_R   0.052140 0.926050 0.890710 -0.542867
O43   O     O_R   0.052140 0.073950 0.890710 -0.536616
O44   O     O_R   0.947860 0.926050 0.109290 -0.538950
O45   O     O_R   0.447860 0.573950 0.109290 -0.540351
O46   O     O_R   0.552140 0.426050 0.890710 -0.551360
O47   O     O_R   0.552140 0.573950 0.890710 -0.545228
O48   O     O_R   0.447860 0.426050 0.109290 -0.541093
C181  C     C_R   0.073075 0.101714 0.935580 0.967998
C182  C     C_R   0.926560 0.898841 0.064747 0.969420
C183  C     C_R   0.928822 0.104089 0.063121 0.963619
C184  C     C_R   0.071606 0.896261 0.936683 0.955038
C185  C     C_R   0.572286 0.602906 0.936237 0.953164
C186  C     C_R   0.426782 0.398352 0.064541 0.964972
C187  C     C_R   0.426599 0.601245 0.064816 0.970330
C188  C     C_R   0.571939 0.396545 0.936393 0.946848
Zn9   Zn    Zn3+2 0.505960 0.500000 0.080520 1.215589
Zn10  Zn    Zn3+2 0.494040 0.500000 0.919480 1.190702
Zn11  Zn    Zn3+2 0.005960 1.000000 0.080520 1.210501
Zn12  Zn    Zn3+2 0.994040 0.000000 0.919480 1.209454
N1    N     N_R   0.074689 0.332973 0.657880 0.205967
O49   O     O_R   0.070647 0.263995 0.645087 -0.320543
O50   O     O_R   0.088053 0.353342 0.718249 -0.382134
N2    N     N_R   0.925311 0.667375 0.342755 0.204137
O51   O     O_R   0.911914 0.647485 0.282268 -0.392807
O52   O     O_R   0.929326 0.736223 0.356189 -0.318313
N3    N     N_R   0.830177 0.348091 0.631145 0.193450
O53   O     O_R   0.783201 0.376511 0.682695 -0.437071
O54   O     O_R   0.837517 0.278232 0.631254 -0.409566
N4    N     N_R   0.170507 0.650723 0.367573 0.190023
O55   O     O_R   0.163931 0.720601 0.365545 -0.409140
O56   O     O_R   0.217005 0.621102 0.315951 -0.413921
N5    N     N_R   0.662667 0.824406 0.374787 0.221217
O57   O     O_R   0.705928 0.854117 0.313558 -0.404664
O58   O     O_R   0.657253 0.754351 0.373802 -0.424793
N6    N     N_R   0.419484 0.187610 0.347498 0.226956
O59   O     O_R   0.406830 0.173645 0.284506 -0.353962
O60   O     O_R   0.414717 0.253792 0.377883 -0.335406
N7    N     N_R   0.421506 0.810107 0.348343 0.226723
O61   O     O_R   0.417443 0.742729 0.373243 -0.337997
O62   O     O_R   0.413052 0.826300 0.281455 -0.373505
N8    N     N_R   0.663565 0.177399 0.374825 0.208230
O63   O     O_R   0.656237 0.247247 0.387398 -0.417847
O64   O     O_R   0.707381 0.152246 0.308612 -0.411455
N9    N     N_R   0.593163 0.314884 0.779050 0.246553
O65   O     O_R   0.594665 0.372058 0.733113 -0.318182
O66   O     O_R   0.569786 0.256615 0.770993 -0.303952
N10   N     N_R   0.366705 0.615548 0.246988 0.223718
O67   O     O_R   0.334356 0.560759 0.278545 -0.348678
O68   O     O_R   0.404308 0.625192 0.270200 -0.243046
N11   N     N_R   0.389907 0.352519 0.238613 0.248085
O69   O     O_R   0.376322 0.411051 0.287973 -0.310470
O70   O     O_R   0.433339 0.317252 0.224169 -0.206656
N12   N     N_R   0.595482 0.679824 0.776349 0.256413
O71   O     O_R   0.599085 0.621091 0.730706 -0.325536
O72   O     O_R   0.572546 0.737278 0.764355 -0.301440
N13   N     N_R   0.093633 0.815287 0.778128 0.254834
O73   O     O_R   0.095117 0.873194 0.733310 -0.301498
O74   O     O_R   0.072659 0.756438 0.765357 -0.301960
N14   N     N_R   0.906144 0.181828 0.224383 0.257238
O75   O     O_R   0.902532 0.122508 0.268268 -0.299310
O76   O     O_R   0.926870 0.239098 0.241271 -0.309379
N15   N     N_R   0.874598 0.874537 0.245703 0.226397
O77   O     O_R   0.847530 0.934254 0.279809 -0.360743
O78   O     O_R   0.913841 0.856202 0.262160 -0.233453
N16   N     N_R   0.128847 0.120986 0.753719 0.223310
O79   O     O_R   0.157828 0.062426 0.721279 -0.395935
O80   O     O_R   0.090445 0.136251 0.733906 -0.232820
N17   N     N_R   0.558815 0.319607 0.104717 0.228904
O81   O     O_R   0.537740 0.348756 0.183906 -0.355522
O82   O     O_R   0.528627 0.281593 0.081094 -0.329202
N18   N     N_R   0.446589 0.685493 0.898338 0.229228
O83   O     O_R   0.476607 0.716686 0.927899 -0.349670
O84   O     O_R   0.468916 0.659038 0.817741 -0.342111
N19   N     N_R   0.438051 0.309388 0.905535 0.225637
O85   O     O_R   0.461720 0.331629 0.823580 -0.338119
O86   O     O_R   0.466121 0.274125 0.936069 -0.341539
N20   N     N_R   0.558486 0.680513 0.106005 0.229218
O87   O     O_R   0.527208 0.716816 0.082839 -0.337514
O88   O     O_R   0.537882 0.652232 0.185027 -0.352993
N21   N     N_R   0.057183 0.819331 0.106182 0.223227
O89   O     O_R   0.036279 0.847926 0.185646 -0.348104
O90   O     O_R   0.026214 0.783608 0.082137 -0.344342
N22   N     N_R   0.947135 0.182861 0.893418 0.221425
O91   O     O_R   0.978584 0.216391 0.918259 -0.343692
O92   O     O_R   0.967875 0.153997 0.814109 -0.346605
N23   N     N_R   0.945895 0.814507 0.897388 0.228965
O93   O     O_R   0.967687 0.840421 0.817107 -0.337655
O94   O     O_R   0.976402 0.782779 0.925780 -0.350140
N24   N     N_R   0.048472 0.189140 0.100251 0.224284
O95   O     O_R   0.017846 0.218281 0.070377 -0.357576
O96   O     O_R   0.026581 0.159764 0.178700 -0.335817
H29   H     H_    0.815822 0.154604 0.798472 0.152377
H30   H     H_    0.190278 0.856781 0.197382 0.153440
H31   H     H_    0.148997 0.257603 0.239301 0.153602
H32   H     H_    0.815209 0.841912 0.800174 0.153725
H33   H     H_    0.317754 0.659452 0.797318 0.152634
H34   H     H_    0.690578 0.355171 0.196934 0.147483
H35   H     H_    0.693201 0.642342 0.194332 0.147954
H36   H     H_    0.311134 0.349948 0.802731 0.155221

loop_
_geom_bond_atom_site_label_1
_geom_bond_atom_site_label_2
_geom_bond_distance
_ccdc_geom_bond_type
N16   O80   1.302477 A    
O4    C4    1.259609 A    
O5    C5    1.250989 A    
C59   C64   1.364212 A    
C23   C70   1.417051 A    
O7    Zn7   2.045209 S    
O31   Zn4   2.087295 S    
C119  C127  1.387324 A    
O8    Zn8   2.045209 S    
O36   C184  1.233363 A    
N21   O89   1.301637 A    
O38   Zn10  2.010547 S    
N9    O65   1.302608 A    
C106  C114  1.435999 A    
C118  C126  1.386041 A    
C75   N7    1.442621 S    
C150  N18   1.437396 S    
C83   C147  1.429654 A    
C38   C40   1.416276 A    
C176  H32   1.080850 S    
O30   C6    1.302043 A    
C149  C157  1.401043 A    
C86   C174  1.405316 A    
O20   C12   1.298234 A    
O44   Zn11  2.011874 S    
C152  N20   1.441634 S    
O33   Zn11  2.010547 S    
C36   C43   1.405505 A    
O34   Zn12  2.010547 S    
C49   C57   1.427336 A    
O2    C2    1.243983 A    
C91   C99   1.426371 A    
H5    C28   1.077216 S    
C25   C27   1.387066 A    
C154  C162  1.404203 A    
O6    Zn6   2.035760 S    
C180  H36   1.082171 S    
C136  C168  1.415630 A    
C101  C149  1.421492 A    
C29   C31   1.388541 A    
O46   Zn10  1.995374 S    
N12   O72   1.301055 A    
O41   Zn11  1.995373 S    
C88   C176  1.401371 A    
C111  C186  1.471139 S    
O42   Zn12  1.995374 S    
C105  C153  1.424880 A    
C97   C158  1.409869 A    
C38   C42   1.405172 A    
C45   C53   1.427009 A    
O27   C3    1.291849 A    
C101  C109  1.438200 A    
N14   O75   1.302868 A    
C164  H20   1.076312 S    
O47   Zn10  2.011873 S    
C5    C129  1.481655 S    
C152  C160  1.404718 A    
O43   Zn12  2.011873 S    
O35   Zn12  1.989497 S    
C50   C68   1.409005 A    
H2    C31   1.081112 S    
C100  C159  1.408426 A    
C34   C36   1.415208 A    
C48   C56   1.423344 A    
H6    C27   1.077249 S    
C163  H19   1.080257 S    
N8    O63   1.301262 A    
C105  C113  1.437861 A    
C78   C86   1.413766 A    
C139  C171  1.415083 A    
C178  H34   1.080585 S    
C123  C131  1.393483 A    
C137  C145  1.412790 A    
C124  C132  1.392071 A    
C81   C145  1.434002 A    
C15   C56   1.459429 S    
C81   C89   1.417529 A    
C79   C143  1.429426 A    
C45   C71   1.424652 A    
C69   N1    1.438750 S    
C70   N2    1.438095 S    
O23   Zn7   2.012512 S    
H7    C26   1.075549 S    
O24   Zn8   2.012512 S    
O9    C9    1.236575 A    
C50   C58   1.444770 A    
C60   C63   1.381528 A    
C171  H27   1.076815 S    
N6    O60   1.301932 A    
C115  C182  1.469343 S    
O12   C12   1.240866 A    
N4    O56   1.300620 A    
C106  C146  1.410217 A    
C107  C115  1.437926 A    
C11   C60   1.465222 S    
C140  C148  1.412366 A    
C175  H31   1.077291 S    
C84   C148  1.431434 A    
C13   C54   1.443832 S    
C93   C162  1.407650 A    
C126  C134  1.442585 A    
C77   C85   1.415477 A    
C40   C41   1.412665 A    
C46   C54   1.426388 A    
O7    C7    1.255442 A    
O9    Zn6   2.112874 S    
O8    C8    1.252890 A    
C89   C177  1.401483 A    
C166  C174  1.394812 A    
C73   N5    1.436823 S    
O11   Zn8   2.098834 S    
O13   C13   1.255785 A    
C112  C185  1.481685 S    
N15   O78   1.302169 A    
C21   C29   1.409258 A    
O41   C183  1.266572 A    
O16   Zn3   2.098834 S    
O42   C184  1.269633 A    
C122  C130  1.394243 A    
C23   C31   1.403026 A    
C34   C44   1.407589 A    
N7    O62   1.301456 A    
C134  C166  1.416031 A    
C26   C28   1.388732 A    
C55   C62   1.368768 A    
C52   C74   1.424187 A    
N14   O76   1.301355 A    
C162  H18   1.080200 S    
C138  C170  1.413127 A    
C30   C32   1.388619 A    
N13   O74   1.301069 A    
C18   C26   1.405232 A    
C120  N12   1.438729 S    
C177  H33   1.080795 S    
O33   C181  1.230908 A    
N17   O82   1.301696 A    
C117  N9    1.439354 S    
C85   C173  1.403928 A    
O2    Zn2   2.035760 S    
C159  H15   1.081396 S    
H8    C25   1.075126 S    
O6    C6    1.255483 A    
C62   H10   1.084850 S    
C109  C117  1.394810 A    
C83   C91   1.414589 A    
N1    O49   1.301342 A    
H1    C32   1.081070 S    
C151  C159  1.402815 A    
C45   C65   1.409691 A    
C103  C151  1.419867 A    
C174  H30   1.080978 S    
H3    C30   1.078788 S    
C117  C125  1.393593 A    
C160  H16   1.080434 S    
C47   C55   1.422906 A    
N20   O88   1.301757 A    
O21   C13   1.283425 A    
C109  C188  1.476354 S    
C3    C127  1.460853 S    
C14   C53   1.443864 S    
C110  C187  1.458136 S    
C52   C60   1.427091 A    
O23   C15   1.294418 A    
C99   C160  1.407531 A    
O39   Zn10  1.989497 S    
C1    C125  1.481742 S    
O24   C16   1.294020 A    
C48   C65   1.416597 A    
C103  C143  1.418416 A    
N2    O51   1.301273 A    
O17   Zn1   2.027587 S    
N20   O87   1.301892 A    
C103  C111  1.436162 A    
C16   C55   1.458715 S    
C49   C67   1.411768 A    
C108  C156  1.421580 A    
N24   O96   1.301482 A    
O3    C3    1.259010 A    
N5    O57   1.301104 A    
C52   C67   1.411539 A    
C74   N6    1.436295 S    
C41   C65   1.408251 A    
C19   C33   1.410114 A    
N23   O94   1.301607 A    
C43   C67   1.407694 A    
C112  C120  1.399548 A    
C19   C27   1.404335 A    
C169  C177  1.389760 A    
C64   H12   1.085966 S    
C115  C123  1.392858 A    
C12   C59   1.445275 S    
C116  C124  1.393998 A    
O48   C186  1.269300 A    
C102  C110  1.438520 A    
N18   O83   1.301649 A    
C33   C35   1.415664 A    
C20   C28   1.404646 A    
C130  C138  1.440304 A    
C6    C130  1.485391 S    
C153  N21   1.441330 S    
C20   C34   1.406265 A    
C44   C68   1.413143 A    
C24   C32   1.403060 A    
C118  N10   1.442513 S    
C46   C66   1.409600 A    
C47   C69   1.417618 A    
C86   C94   1.425861 A    
C107  C147  1.409839 A    
C166  H22   1.076551 S    
O45   C187  1.266699 A    
O12   Zn7   2.098834 S    
C79   C87   1.423119 A    
C121  C129  1.393873 A    
O13   Zn2   2.112874 S    
O47   C185  1.270170 A    
C101  C141  1.409393 A    
C170  C178  1.391314 A    
N3    O53   1.300841 A    
C91   C179  1.404995 A    
C20   C73   1.412452 A    
C165  C173  1.392668 A    
C72   N4    1.432433 S    
C96   C163  1.409505 A    
C24   C69   1.417230 A    
O10   C10   1.258488 A    
C4    C128  1.486413 S    
C116  C181  1.473036 S    
O14   C14   1.255366 A    
C108  C116  1.441896 A    
C42   C66   1.407726 A    
C85   C93   1.427239 A    
C104  C144  1.412869 A    
N22   O92   1.301608 A    
C127  C135  1.429540 A    
C102  C150  1.420963 A    
C53   C61   1.375381 A    
C125  C133  1.444584 A    
C168  C176  1.389221 A    
C87   C175  1.407402 A    
O10   Zn5   2.112874 S    
C128  C136  1.441337 A    
C124  N16   1.440516 S    
C129  C137  1.443732 A    
C172  H28   1.074012 S    
C171  C179  1.394512 A    
C113  C184  1.475230 S    
C114  C183  1.475207 S    
C132  C140  1.440099 A    
C111  C119  1.387568 A    
C21   C39   1.410458 A    
C120  C128  1.398596 A    
C50   C76   1.429547 A    
N16   O79   1.301262 A    
C57   C63   1.380250 A    
C153  C161  1.404181 A    
C88   C96   1.424612 A    
C79   C100  1.407921 A    
N8    O64   1.300558 A    
N21   O90   1.301843 A    
O19   C11   1.291135 A    
N9    O66   1.300730 A    
C123  N15   1.439854 S    
C114  C122  1.398806 A    
C9    C58   1.447550 S    
O1    C1    1.251651 A    
N11   O69   1.302523 A    
C106  C154  1.424519 A    
C17   C76   1.417127 A    
O25   Zn6   2.086245 S    
C140  C172  1.418039 A    
O22   Zn6   2.027587 S    
C19   C74   1.415092 A    
N7    O61   1.300591 A    
O3    Zn3   2.045209 S    
O27   Zn8   2.087295 S    
C58   C64   1.365814 A    
C21   C72   1.414768 A    
N19   O85   1.301560 A    
O32   Zn3   2.087295 S    
C82   C90   1.414575 A    
C168  H24   1.075924 S    
C110  C118  1.388024 A    
C119  N11   1.436001 S    
C155  C163  1.404875 A    
O15   Zn4   2.098834 S    
N22   O91   1.301712 A    
O34   C182  1.229238 A    
O22   C14   1.283612 A    
O40   Zn9   1.989499 S    
C2    C126  1.461764 S    
C179  H35   1.081027 S    
C138  C146  1.413047 A    
C173  H29   1.080614 S    
C82   C93   1.412588 A    
N12   O71   1.302745 A    
C37   C41   1.405142 A    
C92   C180  1.398490 A    
N2    O52   1.301135 A    
C78   C142  1.428554 A    
C149  N17   1.435749 S    
C24   C38   1.417253 A    
C80   C88   1.417633 A    
C51   C59   1.437766 A    
O37   C185  1.235709 A    
O48   Zn9   2.011874 S    
C48   C70   1.417508 A    
C90   C98   1.425313 A    
O18   C10   1.289645 A    
C84   C92   1.413174 A    
O37   Zn9   2.010547 S    
C170  H26   1.077255 S    
N13   O73   1.302685 A    
C56   C61   1.368659 A    
C105  C145  1.411285 A    
C158  H14   1.080221 S    
N17   O81   1.301716 A    
C10   C57   1.464706 S    
C165  H21   1.076916 S    
C94   C161  1.407108 A    
C90   C178  1.404996 A    
N15   O77   1.301718 A    
C33   C43   1.406566 A    
O28   C4    1.304526 A    
C92   C100  1.417722 A    
C39   C42   1.412697 A    
O29   C5    1.303634 A    
C80   C99   1.412743 A    
C81   C94   1.413085 A    
C167  C175  1.391425 A    
C151  N19   1.438958 S    
C7    C131  1.470868 S    
C8    C132  1.469565 S    
N23   O93   1.301573 A    
C22   C30   1.409399 A    
O15   C15   1.262404 A    
C49   C75   1.423683 A    
C22   C40   1.409889 A    
O16   C16   1.262506 A    
C89   C97   1.424890 A    
C51   C73   1.424858 A    
O39   C187  1.224213 A    
C35   C44   1.403331 A    
O40   C188  1.233071 A    
C87   C95   1.434353 A    
C133  C165  1.415216 A    
O4    Zn4   2.045209 S    
O18   Zn2   2.027587 S    
O5    Zn5   2.035760 S    
N6    O59   1.301529 A    
C139  C147  1.408945 A    
C161  H17   1.080364 S    
C172  C180  1.387861 A    
C156  N24   1.434180 S    
N4    O55   1.301025 A    
C137  C169  1.416417 A    
C17   C35   1.407762 A    
O14   Zn1   2.112874 S    
O45   Zn9   1.995373 S    
C113  C121  1.395784 A    
C154  N22   1.440788 S    
C17   C25   1.407771 A    
C18   C75   1.417453 A    
C51   C68   1.405644 A    
C23   C37   1.416778 A    
C22   C71   1.414443 A    
O26   C2    1.299603 A    
C167  H23   1.079253 S    
O1    Zn1   2.035760 S    
O11   C11   1.264040 A    
C61   H9    1.084868 S    
C155  N23   1.437599 S    
C156  C164  1.406589 A    
C108  C148  1.411863 A    
C121  N13   1.439613 S    
C150  C158  1.405422 A    
O28   Zn7   2.087295 S    
C157  H13   1.079997 S    
O29   Zn2   2.086245 S    
C37   C39   1.416309 A    
C47   C66   1.416480 A    
H4    C29   1.078404 S    
C98   C157  1.405071 A    
N18   O84   1.301567 A    
C95   C164  1.411139 A    
O46   C188  1.270077 A    
O38   C186  1.231357 A    
N11   O70   1.297075 A    
O35   C183  1.236342 A    
O43   C181  1.268474 A    
C134  C142  1.408119 A    
C78   C97   1.409390 A    
C107  C155  1.420766 A    
N19   O86   1.301692 A    
C104  C112  1.438852 A    
N10   O67   1.300929 A    
N1    O50   1.301295 A    
C135  C167  1.410698 A    
C104  C152  1.425207 A    
O26   Zn5   2.086245 S    
C82   C146  1.432614 A    
C135  C143  1.408923 A    
O30   Zn1   2.086245 S    
C133  C141  1.411372 A    
C131  C139  1.440359 A    
C77   C141  1.434987 A    
C76   N8    1.431090 S    
C77   C98   1.412863 A    
O20   Zn4   2.012512 S    
C71   N3    1.431826 S    
O21   Zn5   2.027587 S    
N24   O95   1.301442 A    
C169  H25   1.075940 S    
N10   O68   1.302822 A    
N5    O58   1.299976 A    
O31   C7    1.300191 A    
O32   C8    1.301032 A    
O36   Zn11  1.989499 S    
O17   C9    1.298987 A    
C84   C95   1.411528 A    
C54   C62   1.375217 A    
C18   C36   1.413737 A    
C102  C142  1.408024 A    
O19   Zn3   2.012512 S    
C136  C144  1.413275 A    
C83   C96   1.409335 A    
O25   C1    1.303901 A    
C80   C144  1.434208 A    
C63   H11   1.083869 S    
C122  N14   1.439150 S    
O44   C182  1.267575 A    
N3    O54   1.301007 A    
C46   C72   1.424196 A    
