data_mof_unit_54053.cif
_audit_creation_date              2013-03-05T15:57:27-0500
_audit_creation_method            fapswitch 2.2
_symmetry_space_group_name_H-M    P1
_symmetry_Int_Tables_number       1
_space_group_crystal_system       triclinic
_cell_length_a                    13.687045
_cell_length_b                    15.088023
_cell_length_c                    15.762533
_cell_angle_alpha                 89.860978
_cell_angle_beta                  70.365897
_cell_angle_gamma                 89.958143
_cell_volume                      3065.85787181

loop_
_atom_site_label
_atom_site_type_symbol
_atom_site_description
_atom_site_fract_x
_atom_site_fract_y
_atom_site_fract_z
_atom_type_partial_charge
O1    O     O_R   0.417730 0.629750 0.499970 -0.600289
O2    O     O_R   0.582270 0.370250 0.500030 -0.597774
O3    O     O_R   0.582270 0.629730 0.499980 -0.573102
O4    O     O_R   0.417730 0.370270 0.500020 -0.572882
C1    C     C_R   0.499832 0.671546 0.500406 0.836536
C2    C     C_R   0.499745 0.328463 0.500656 0.815707
O5    O     O_R   0.371590 0.500020 0.629830 -0.592526
O6    O     O_R   0.628410 0.499980 0.370170 -0.597365
O7    O     O_R   0.536130 0.499990 0.629840 -0.560118
O8    O     O_R   0.463870 0.500010 0.370160 -0.526239
C3    C     C_R   0.437416 0.499511 0.672373 0.897171
C4    C     C_R   0.562481 0.496956 0.327267 0.865959
Cu1   Cu    Cu3+1 0.402580 0.500010 0.499990 1.009817
Cu2   Cu    Cu3+1 0.597420 0.499990 0.500010 0.988469
C5    C     C_R   0.401407 0.481349 0.769159 -0.197659
C6    C     C_R   0.599908 0.492879 0.227723 -0.216082
C7    C     C_R   0.304974 0.379998 0.887800 0.357277
C8    C     C_R   0.733167 0.534913 0.087122 0.353720
C9    C     C_R   0.324083 0.417306 0.802653 -0.291892
C10   C     C_R   0.700102 0.522918 0.180279 -0.279131
C11   C     C_R   0.455670 0.513955 0.824141 0.250414
C12   C     C_R   0.534294 0.464900 0.180088 0.283430
C13   C     C_R   0.452415 0.464390 0.901595 -0.051043
C14   C     C_R   0.569226 0.470450 0.084448 -0.057324
C15   C     C_R   0.373030 0.399741 0.935699 -0.016123
C16   C     C_R   0.666530 0.511549 0.038930 -0.015727
C17   C     C_R   0.527103 0.476231 0.945281 0.109687
C18   C     C_R   0.507621 0.441349 0.032655 0.101470
C19   C     C_R   0.432732 0.373870 0.061964 -0.120259
C20   C     C_R   0.625136 0.513844 0.900889 -0.141667
C21   C     C_R   0.367541 0.352785 0.013956 -0.119468
C22   C     C_R   0.695243 0.527644 0.945991 -0.117456
H1    H     H_    0.314018 0.298346 0.038322 0.205146
H2    H     H_    0.770747 0.553673 0.907543 0.202912
H3    H     H_    0.750682 0.543924 0.216592 0.200669
H4    H     H_    0.279400 0.394991 0.761542 0.197350
H5    H     H_    0.427975 0.332453 0.119051 0.198237
H6    H     H_    0.650516 0.529129 0.829694 0.170907
C23   C     C_R   0.585140 0.185316 0.507910 -0.188766
C24   C     C_R   0.410055 0.814718 0.503948 -0.180216
C25   C     C_R   0.498385 0.231661 0.503641 -0.089054
C26   C     C_R   0.498857 0.768362 0.503224 -0.084579
C27   C     C_R   0.409699 0.185571 0.503273 -0.144921
C28   C     C_R   0.586420 0.814449 0.506333 -0.139225
C29   C     C_R   0.406017 0.092929 0.508208 -0.006484
C30   C     C_R   0.585964 0.907072 0.511482 -0.004607
C31   C     C_R   0.495448 0.046499 0.509927 0.029582
C32   C     C_R   0.496517 0.953503 0.509801 0.029003
C33   C     C_R   0.584581 0.093110 0.510384 0.063921
C34   C     C_R   0.408510 0.906908 0.506600 0.064505
C35   C     C_R   0.316680 0.045362 0.508699 0.332118
C36   C     C_R   0.673414 0.954637 0.515582 0.327854
C37   C     C_R   0.319784 0.952770 0.506333 -0.233467
C38   C     C_R   0.672145 0.047244 0.513474 -0.234754
H7    H     H_    0.653648 0.220932 0.508666 0.161164
H8    H     H_    0.342121 0.779124 0.501772 0.159512
H9    H     H_    0.344505 0.222521 0.497537 0.210066
H10   H     H_    0.655202 0.777515 0.503322 0.202290
H11   H     H_    0.251725 0.916331 0.505815 0.192237
H12   H     H_    0.739480 0.083676 0.515757 0.192340
C39   C     C_R   0.229106 0.554254 0.441890 0.102494
C40   C     C_R   0.770789 0.445952 0.558349 0.039414
N1    N     N_R   0.256170 0.500070 0.500040 -0.193139
N2    N     N_R   0.743830 0.499930 0.499960 -0.185981
C41   C     C_R   0.184256 0.445912 0.558280 0.056080
C42   C     C_R   0.815824 0.553911 0.441582 0.056389
C43   C     C_R   0.080604 0.444621 0.559717 -0.006869
C44   C     C_R   0.919433 0.555264 0.440244 -0.007329
C45   C     C_R   0.051825 0.499983 0.500026 0.085306
C46   C     C_R   0.948169 0.499981 0.500020 0.097727
C47   C     C_R   0.126639 0.555383 0.440363 -0.011177
C48   C     C_R   0.873307 0.444692 0.559783 -0.008694
C49   C     C_R   0.005373 0.389581 0.619158 -0.126751
C50   C     C_R   0.994656 0.610321 0.380830 -0.138770
C51   C     C_R   0.902632 0.389671 0.619242 -0.179259
C52   C     C_R   0.097329 0.610388 0.380898 -0.129387
H13   H     H_    0.287472 0.596676 0.396661 0.140942
H14   H     H_    0.712341 0.403725 0.603769 0.122929
H15   H     H_    0.207771 0.403675 0.603614 0.135746
H16   H     H_    0.792385 0.596010 0.396106 0.126986
H17   H     H_    0.025960 0.346501 0.665596 0.177287
H18   H     H_    0.974105 0.653335 0.334326 0.166548
H19   H     H_    0.846147 0.346687 0.665778 0.152821
H20   H     H_    0.153791 0.653439 0.334433 0.166476
N3    N     N_R   0.428986 0.440470 0.229403 0.113554
O9    O     O_R   0.352759 0.489652 0.224814 -0.345943
O10   O     O_R   0.409257 0.369837 0.279990 -0.355621
N4    N     N_R   0.497317 0.603102 0.811169 0.122664
O11   O     O_R   0.486667 0.652859 0.881079 -0.293172
O12   O     O_R   0.531138 0.639822 0.731880 -0.331014
N5    N     N_R   0.219548 0.319517 0.922380 0.128030
O13   O     O_R   0.195551 0.265614 0.868106 -0.321575
O14   O     O_R   0.155121 0.328852 0.004082 -0.302430
N6    N     N_R   0.832681 0.575018 0.043686 0.120879
O15   O     O_R   0.912655 0.548340 0.063824 -0.303254
O16   O     O_R   0.839089 0.649018 0.999573 -0.319753
N7    N     N_R   0.221982 0.089370 0.512904 0.129205
O17   O     O_R   0.181122 0.147885 0.575313 -0.344096
O18   O     O_R   0.167009 0.059537 0.465927 -0.297317
N8    N     N_R   0.763252 0.910598 0.523233 0.119016
O19   O     O_R   0.752800 0.851790 0.586209 -0.312753
O20   O     O_R   0.855506 0.940711 0.479127 -0.305476

loop_
_geom_bond_atom_site_label_1
_geom_bond_atom_site_label_2
_geom_bond_distance
_ccdc_geom_bond_type
C35   N7    1.437529 S    
C42   C44   1.411325 A    
C1    C26   1.461455 S    
N1    C41   1.367323 A    
C15   C21   1.400978 A    
C41   H15   1.082756 S    
C25   C27   1.401078 A    
C8    C16   1.414397 A    
C52   H20   1.083336 S    
N7    O17   1.301422 A    
C37   H11   1.084414 S    
C31   C33   1.410725 A    
C38   H12   1.084422 S    
N3    O9    1.301427 A    
O5    C3    1.291304 A    
C50   C52   1.405644 A    
O1    C1    1.291034 A    
C18   C19   1.407720 A    
C14   C16   1.424753 A    
C9    H4    1.083971 S    
C47   C52   1.405955 A    
C29   C35   1.416046 A    
C44   C50   1.405940 A    
C33   C38   1.398394 A    
C30   C36   1.416083 A    
C20   H6    1.081721 S    
C39   N1    1.367406 A    
C12   N3    1.436689 S    
O4    Cu1   1.968337 S    
C45   C47   1.407815 A    
C40   N2    1.367714 A    
C10   H3    1.083907 S    
C3    C5    1.462288 S    
C23   H7    1.084635 S    
C4    C6    1.479330 S    
C39   H13   1.082553 S    
C41   C43   1.411392 A    
C2    C25   1.461128 S    
C7    N5    1.437963 S    
C6    C12   1.415527 A    
C21   H1    1.081245 S    
C43   C49   1.406012 A    
C13   C17   1.423031 A    
O6    C4    1.297691 A    
C39   C47   1.410825 A    
C24   C26   1.398594 A    
C11   N4    1.448226 S    
Cu1   Cu2   2.666890 S    
C17   C20   1.407240 A    
C49   C51   1.405784 A    
O2    C2    1.291105 A    
C26   C28   1.401126 A    
C50   H18   1.083332 S    
C48   C51   1.406122 A    
C49   H17   1.083375 S    
N7    O18   1.301373 A    
C36   C38   1.397806 A    
C29   C31   1.418000 A    
C30   C32   1.418015 A    
C34   C37   1.398486 A    
N3    O10   1.302329 A    
C23   C25   1.398464 A    
C28   H10   1.080919 S    
N5    O13   1.301460 A    
C16   C22   1.403927 A    
C28   C30   1.399929 A    
C24   H8    1.084626 S    
C36   N8    1.437394 S    
C43   C45   1.408169 A    
N2    C42   1.367212 A    
C5    C9    1.398577 A    
O7    Cu2   1.933389 S    
N5    O14   1.301333 A    
O7    C3    1.290840 A    
C31   C32   1.403188 A    
Cu1   N1    2.003655 S    
C5    C11   1.407095 A    
C6    C10   1.398349 A    
Cu2   N2    2.003656 S    
N8    O20   1.301340 A    
C40   C48   1.411041 A    
N6    O16   1.301228 A    
C27   C29   1.399764 A    
O3    Cu2   1.968337 S    
O8    C4    1.291407 A    
O4    C2    1.290190 A    
C23   C33   1.391605 A    
N4    O12   1.300569 A    
C11   C13   1.418037 A    
C8    N6    1.436170 S    
C12   C14   1.422435 A    
O1    Cu1   1.968611 S    
O6    Cu2   1.945543 S    
C40   H14   1.082637 S    
C14   C18   1.426569 A    
O3    C1    1.290396 A    
O8    Cu1   1.933389 S    
C42   H16   1.082699 S    
C7    C15   1.414419 A    
C19   C21   1.387561 A    
C20   C22   1.388856 A    
C51   H19   1.083357 S    
C24   C34   1.391627 A    
C32   C34   1.410690 A    
N8    O19   1.301396 A    
C7    C9    1.395433 A    
C8    C10   1.394986 A    
C13   C15   1.423904 A    
N6    O15   1.301224 A    
O2    Cu2   1.968609 S    
C45   C46   1.418766 A    
C27   H9    1.080939 S    
O5    Cu1   1.945544 S    
N4    O11   1.301948 A    
C44   C46   1.408188 A    
C19   H5    1.078144 S    
C17   C18   1.412360 A    
C46   C48   1.407824 A    
C35   C37   1.397854 A    
C22   H2    1.080758 S    
