data_mof_unit_32495.cif
_audit_creation_date              2013-03-05T15:40:02-0500
_audit_creation_method            fapswitch 2.2
_symmetry_space_group_name_H-M    P1
_symmetry_Int_Tables_number       1
_space_group_crystal_system       triclinic
_cell_length_a                    24.365339
_cell_length_b                    17.291655
_cell_length_c                    15.539209
_cell_angle_alpha                 89.999629
_cell_angle_beta                  128.99543
_cell_angle_gamma                 89.999803
_cell_volume                      5088.25152196

loop_
_atom_site_label
_atom_site_type_symbol
_atom_site_description
_atom_site_fract_x
_atom_site_fract_y
_atom_site_fract_z
_atom_type_partial_charge
C1    C     C_R   0.333207 0.393028 0.200166 -0.123095
C2    C     C_R   0.666794 0.393029 0.799836 -0.123012
C3    C     C_R   0.833207 0.893027 0.200166 -0.123004
C4    C     C_R   0.166793 0.893027 0.799834 -0.122988
N1    N     N_R   0.389060 0.424180 0.294540 -0.046734
N2    N     N_R   0.610940 0.424180 0.705460 -0.046735
N3    N     N_R   0.889060 0.924180 0.294540 -0.046727
N4    N     N_R   0.110940 0.924180 0.705460 -0.046722
C5    C     C_R   0.596008 0.365334 0.406878 -0.099314
C6    C     C_R   0.404013 0.365320 0.593132 -0.099355
C7    C     C_R   0.096009 0.865335 0.406879 -0.099689
C8    C     C_R   0.903991 0.865334 0.593122 -0.099306
H1    H     H_    0.570423 0.352454 0.321169 0.104405
H2    H     H_    0.429613 0.352430 0.678844 0.104386
H3    H     H_    0.070424 0.852454 0.321170 0.104444
H4    H     H_    0.929576 0.852454 0.678832 0.104417
N5    N     N_R   0.579670 0.423790 0.443360 -0.044873
N6    N     N_R   0.420330 0.423790 0.556640 -0.044858
N7    N     N_R   0.079670 0.923790 0.443360 -0.044885
N8    N     N_R   0.920330 0.923790 0.556640 -0.044875
C9    C     C_R   0.669661 0.363793 0.592465 -0.121751
C10   C     C_R   0.330352 0.363782 0.407545 -0.121657
C11   C     C_R   0.169661 0.863794 0.592466 -0.121839
C12   C     C_R   0.830339 0.863794 0.407535 -0.121781
H5    H     H_    0.712523 0.350169 0.678029 0.109675
H6    H     H_    0.287495 0.350152 0.321983 0.109688
H7    H     H_    0.212524 0.850169 0.678029 0.109655
H8    H     H_    0.787477 0.850170 0.321972 0.109656
N9    N     N_R   0.625470 0.423490 0.556600 -0.048931
N10   N     N_R   0.374530 0.423490 0.443400 -0.048939
N11   N     N_R   0.125470 0.923490 0.556600 -0.048923
N12   N     N_R   0.874530 0.923490 0.443400 -0.048928
C13   C     C_R   0.575925 0.390630 0.800076 -0.141532
C14   C     C_R   0.424077 0.390627 0.199928 -0.141500
C15   C     C_R   0.075923 0.890626 0.800072 -0.141532
C16   C     C_R   0.924077 0.890626 0.199928 -0.141436
H9    H     H_    0.545987 0.392029 0.829776 0.111469
H10   H     H_    0.454018 0.392022 0.170231 0.111463
H11   H     H_    0.045982 0.892021 0.829769 0.111466
H12   H     H_    0.954018 0.892021 0.170231 0.111463
N13   N     N_R   0.555250 0.423100 0.705420 -0.045025
N14   N     N_R   0.444750 0.423100 0.294580 -0.045025
N15   N     N_R   0.055250 0.923100 0.705420 -0.045016
N16   N     N_R   0.944750 0.923100 0.294580 -0.045008
C17   C     C_R   0.353709 0.371486 0.138406 0.143480
C18   C     C_R   0.646293 0.371489 0.861598 0.143484
C19   C     C_R   0.853710 0.871485 0.138407 0.143465
C20   C     C_R   0.146291 0.871484 0.861594 0.143502
C21   C     C_R   0.651188 0.325596 0.499337 0.163307
C22   C     C_R   0.348842 0.325573 0.500683 0.163266
C23   C     C_R   0.151189 0.825597 0.499338 0.163385
C24   C     C_R   0.848812 0.825596 0.500664 0.163323
C25   C     C_R   0.311605 0.598862 0.409181 -0.157007
C26   C     C_R   0.688395 0.598861 0.590818 -0.156992
C27   C     C_R   0.811605 0.098860 0.409184 -0.156989
C28   C     C_R   0.188396 0.098840 0.590782 -0.156929
H13   H     H_    0.263187 0.592467 0.325126 0.100481
H14   H     H_    0.736812 0.592466 0.674873 0.100466
H15   H     H_    0.763187 0.092465 0.325130 0.100442
H16   H     H_    0.236822 0.092442 0.674828 0.100420
N17   N     N_R   0.375210 0.577180 0.443400 -0.045248
N18   N     N_R   0.624790 0.577180 0.556600 -0.045248
N19   N     N_R   0.875210 0.077180 0.443400 -0.045240
N20   N     N_R   0.124790 0.077180 0.556600 -0.045230
C29   C     C_R   0.441632 0.641772 0.242729 -0.122341
C30   C     C_R   0.558369 0.641771 0.757272 -0.122350
C31   C     C_R   0.941631 0.141772 0.242728 -0.122256
C32   C     C_R   0.058367 0.141773 0.757267 -0.122332
H17   H     H_    0.478801 0.658429 0.230007 0.113515
H18   H     H_    0.521199 0.658427 0.769994 0.113509
H19   H     H_    0.978799 0.158429 0.230004 0.113771
H20   H     H_    0.021198 0.158431 0.769990 0.113602
N21   N     N_R   0.445430 0.577570 0.294580 -0.046471
N22   N     N_R   0.554570 0.577570 0.705420 -0.046471
N23   N     N_R   0.945430 0.077570 0.294580 -0.046494
N24   N     N_R   0.054570 0.077570 0.705420 -0.046480
C33   C     C_R   0.650348 0.639844 0.756717 -0.117542
C34   C     C_R   0.349652 0.639845 0.243284 -0.117541
C35   C     C_R   0.150346 0.139846 0.756707 -0.117577
C36   C     C_R   0.849652 0.139845 0.243284 -0.117551
H21   H     H_    0.698240 0.653525 0.769532 0.092635
H22   H     H_    0.301760 0.653527 0.230469 0.092629
H23   H     H_    0.198234 0.153529 0.769513 0.092649
H24   H     H_    0.801761 0.153527 0.230470 0.092634
N25   N     N_R   0.611620 0.576500 0.705460 -0.046805
N26   N     N_R   0.388380 0.576500 0.294540 -0.046802
N27   N     N_R   0.111620 0.076500 0.705460 -0.046804
N28   N     N_R   0.888380 0.076500 0.294540 -0.046803
C37   C     C_R   0.386002 0.600179 0.592295 -0.089485
C38   C     C_R   0.613998 0.600179 0.407705 -0.089484
C39   C     C_R   0.886004 0.100178 0.592298 -0.089466
C40   C     C_R   0.113977 0.100157 0.407671 -0.089587
H25   H     H_    0.407794 0.597110 0.677795 0.151429
H26   H     H_    0.592206 0.597110 0.322204 0.151436
H27   H     H_    0.907797 0.097105 0.677798 0.151487
H28   H     H_    0.092157 0.097047 0.322164 0.151859
N29   N     N_R   0.421010 0.576890 0.556640 -0.056014
N30   N     N_R   0.578990 0.576890 0.443360 -0.056017
N31   N     N_R   0.921010 0.076890 0.556640 -0.056019
N32   N     N_R   0.078990 0.076890 0.443360 -0.056066
Ni1   Ni    Ni4+2 0.383200 0.500680 0.370150 0.212711
Ni2   Ni    Ni4+2 0.616800 0.500680 0.629850 0.212689
Ni3   Ni    Ni4+2 0.883200 0.000680 0.370150 0.212696
Ni4   Ni    Ni4+2 0.116800 0.000680 0.629850 0.212640
Ni5   Ni    Ni4+2 0.512440 0.500680 0.370150 0.239750
Ni6   Ni    Ni4+2 0.487560 0.500680 0.629850 0.239760
Ni7   Ni    Ni4+2 0.012440 0.000680 0.370150 0.239716
Ni8   Ni    Ni4+2 0.987560 0.000680 0.629850 0.239769
C41   C     C_R   0.316124 0.611134 0.500828 0.163272
C42   C     C_R   0.683875 0.611134 0.499171 0.163301
C43   C     C_R   0.816126 0.111132 0.500833 0.163307
C44   C     C_R   0.183859 0.111104 0.499105 0.163191
C45   C     C_R   0.382720 0.682789 0.211728 0.143723
C46   C     C_R   0.617280 0.682786 0.788274 0.143738
C47   C     C_R   0.882720 0.182788 0.211727 0.143684
C48   C     C_R   0.117278 0.182790 0.788264 0.143703
C49   C     C_2   0.740528 0.642075 0.415786 0.407070
C50   C     C_2   0.259472 0.642072 0.584214 0.407022
C51   C     C_2   0.240408 0.142175 0.415597 0.407420
C52   C     C_2   0.759480 0.142080 0.584228 0.407108
C53   C     C_2   0.745149 0.625608 0.504789 -0.331027
C54   C     C_2   0.254851 0.625607 0.495210 -0.330972
C55   C     C_2   0.245107 0.125545 0.504634 -0.331397
C56   C     C_2   0.754854 0.125603 0.495223 -0.331092
H29   H     H_    0.793013 0.639840 0.587036 0.124909
H30   H     H_    0.206987 0.639842 0.412963 0.124911
H31   H     H_    0.293035 0.139628 0.586890 0.124937
H32   H     H_    0.706985 0.139827 0.412974 0.124898
C57   C     C_2   0.285380 0.203914 0.423897 -0.222596
C58   C     C_2   0.714548 0.203861 0.575982 -0.222695
C59   C     C_2   0.785459 0.703858 0.424029 -0.222673
C60   C     C_2   0.214542 0.703856 0.575973 -0.222617
C61   C     C_2   0.313826 0.258893 0.502275 -0.243952
C62   C     C_2   0.686249 0.258954 0.497772 -0.244309
C63   C     C_2   0.813748 0.758958 0.502228 -0.244355
C64   C     C_2   0.186254 0.758958 0.497776 -0.244432
H33   H     H_    0.289872 0.208335 0.358787 0.173359
H34   H     H_    0.709913 0.208183 0.640944 0.173732
H35   H     H_    0.790104 0.708174 0.359077 0.173767
H36   H     H_    0.209895 0.708170 0.640923 0.173772
H37   H     H_    0.310009 0.257684 0.568061 0.146520
H38   H     H_    0.690201 0.257859 0.432128 0.146626
H39   H     H_    0.809787 0.757870 0.567862 0.146627
H40   H     H_    0.190218 0.757872 0.432143 0.146581
H41   H     H_    0.282498 0.776563 0.173416 0.132692
H42   H     H_    0.717505 0.776558 0.826593 0.132712
H43   H     H_    0.782499 0.276564 0.173417 0.132720
H44   H     H_    0.217509 0.276556 0.826594 0.132733
H45   H     H_    0.787427 0.371726 0.007316 0.127280
H46   H     H_    0.212575 0.371715 0.992690 0.127302
H47   H     H_    0.287425 0.871726 0.007315 0.127265
H48   H     H_    0.712575 0.871718 0.992691 0.127252
C65   C     C_2   0.691805 0.343979 0.975932 -0.191973
C66   C     C_2   0.308198 0.343973 0.024074 -0.192006
C67   C     C_2   0.191803 0.843972 0.975928 -0.192029
C68   C     C_2   0.808198 0.843972 0.024075 -0.191935
C69   C     C_2   0.762019 0.344750 0.037164 -0.090423
C70   C     C_2   0.237984 0.344742 0.962842 -0.090442
C71   C     C_2   0.262017 0.844748 0.037161 -0.090558
C72   C     C_2   0.737984 0.844742 0.962844 -0.090463
H49   H     H_    0.378212 0.772586 0.107793 0.145086
H50   H     H_    0.621788 0.772582 0.892209 0.145088
H51   H     H_    0.878212 0.272586 0.107793 0.145171
H52   H     H_    0.121782 0.272589 0.892193 0.145179
C73   C     C_2   0.357750 0.755440 0.150156 -0.198976
C74   C     C_2   0.642251 0.755436 0.849847 -0.199025
C75   C     C_2   0.857750 0.255440 0.150156 -0.198902
C76   C     C_2   0.142248 0.255441 0.849836 -0.199021
C77   C     C_2   0.303802 0.793567 0.132400 -0.106558
C78   C     C_2   0.696200 0.793562 0.867606 -0.106507
C79   C     C_2   0.803803 0.293569 0.132402 -0.106534
C80   C     C_2   0.196201 0.293563 0.867603 -0.106497
H53   H     H_    0.667064 0.316180 0.006582 0.134617
H54   H     H_    0.332940 0.316178 0.993424 0.134622
H55   H     H_    0.167061 0.816172 0.006576 0.134627
H56   H     H_    0.832940 0.816175 0.993426 0.134623
H57   H     H_    0.280093 0.395854 0.172839 0.088472
H58   H     H_    0.719908 0.395854 0.827162 0.088431
H59   H     H_    0.780093 0.895853 0.172840 0.088404
H60   H     H_    0.219907 0.895852 0.827162 0.088393
N33   N     N_R   0.691000 0.603247 0.311598 0.228065
O1    O     O_R   0.667420 0.637515 0.219541 -0.409750
O2    O     O_R   0.678707 0.529751 0.309805 -0.410614
N34   N     N_R   0.308998 0.603238 0.688401 0.228061
O3    O     O_R   0.332571 0.637499 0.780463 -0.409749
O4    O     O_R   0.321292 0.529742 0.690186 -0.410578
N35   N     N_R   0.190622 0.103703 0.311205 0.227855
O5    O     O_R   0.166303 0.138629 0.219170 -0.409811
O6    O     O_R   0.178520 0.030088 0.308951 -0.410654
N36   N     N_R   0.809025 0.103273 0.688428 0.228070
O7    O     O_R   0.832651 0.137578 0.780474 -0.409626
O8    O     O_R   0.821307 0.029771 0.690253 -0.410614

loop_
_geom_bond_atom_site_label_1
_geom_bond_atom_site_label_2
_geom_bond_distance
_ccdc_geom_bond_type
C12   C24   1.383229 A    
C35   H23   1.079272 S    
N1    N14   1.356642 A    
H48   C72   1.085041 S    
N23   Ni7   1.843768 S    
N36   O7    1.301100 A    
C27   H15   1.082012 S    
N5    N9    1.367638 A    
C15   H11   1.081378 S    
C14   N14   1.341626 A    
N4    N15   1.356643 A    
C4    N4    1.334590 A    
N7    N11   1.367638 A    
C9    C21   1.383235 A    
C2    N2    1.334592 A    
N33   O1    1.301213 A    
C2    C18   1.382987 A    
N31   Ni8   1.827158 S    
C7    N7    1.336254 A    
N30   Ni5   1.827174 S    
C1    N1    1.334590 A    
C66   C70   1.335545 D    
C59   C63   1.343635 D    
C42   C53   1.461212 S    
C26   H14   1.082012 S    
C49   N33   1.438552 S    
C41   C54   1.461208 S    
C62   H38   1.083409 S    
C19   C68   1.460487 S    
C67   H55   1.087494 S    
C30   N22   1.340287 A    
C65   H53   1.087490 S    
C40   H28   1.077958 S    
C29   N21   1.340288 A    
N34   O3    1.301284 A    
C26   C42   1.374015 A    
C16   C19   1.378516 A    
C50   C54   1.345576 D    
C39   C43   1.381777 A    
C5    H1    1.080355 S    
N19   N31   1.367636 A    
C21   C62   1.443751 S    
H44   C80   1.085577 S    
H50   C74   1.087584 S    
C7    H3    1.080355 S    
H46   C70   1.085035 S    
C8    H4    1.080355 S    
N18   Ni2   1.833631 S    
N2    N13   1.356643 A    
C27   N19   1.337151 A    
C28   N20   1.337260 A    
C38   H26   1.078016 S    
N6    N10   1.367637 A    
C11   H7    1.080024 S    
C71   C77   1.453856 S    
C70   C80   1.453860 S    
C36   H24   1.079265 S    
C10   C22   1.383303 A    
C34   N26   1.333671 A    
C63   H39   1.083407 S    
C33   N25   1.333670 A    
N24   Ni8   1.843786 S    
N18   N30   1.367638 A    
C35   C48   1.392220 A    
C65   C69   1.335545 D    
C13   C18   1.378512 A    
C58   C62   1.343633 D    
C1    H57   1.079769 S    
C4    H60   1.079772 S    
N8    N12   1.367637 A    
C15   C20   1.378516 A    
C35   N27   1.333665 A    
C8    C24   1.383092 A    
H43   C79   1.085581 S    
C46   C74   1.459855 S    
N1    Ni1   1.833519 S    
N33   O2    1.301964 A    
C73   C77   1.334969 D    
H41   C77   1.085580 S    
N13   Ni6   1.860441 S    
C66   H54   1.087489 S    
C67   C71   1.335547 D    
C16   H12   1.081378 S    
C59   H35   1.086661 S    
C44   C55   1.461321 S    
N19   Ni3   1.833641 S    
C6    H2    1.080351 S    
C25   H13   1.082012 S    
C40   C44   1.381696 A    
C37   C41   1.381785 A    
C75   C79   1.334967 D    
C26   N18   1.337140 A    
C9    N9    1.334268 A    
C13   H9    1.081376 S    
C3    H59   1.079769 S    
C37   N29   1.338466 A    
C32   H20   1.080526 S    
C11   N11   1.334268 A    
C54   H30   1.085486 S    
N17   Ni1   1.833641 S    
C12   N12   1.334268 A    
C53   H29   1.085484 S    
C52   N36   1.438529 S    
N22   Ni6   1.843786 S    
C23   C64   1.443747 S    
C34   H22   1.079266 S    
C11   C23   1.383230 A    
C36   C47   1.392217 A    
C68   C72   1.335547 D    
H51   C75   1.087584 S    
C60   C64   1.343638 D    
C8    N8    1.336259 A    
N12   Ni3   1.850504 S    
C5    C21   1.383088 A    
C14   C17   1.378518 A    
N3    N16   1.356642 A    
N4    Ni4   1.833507 S    
N24   N27   1.389775 A    
C32   C48   1.387525 A    
C57   C61   1.343565 D    
N29   Ni6   1.827158 S    
H52   C76   1.087585 S    
C5    N5    1.336253 A    
C20   C67   1.460486 S    
C74   C78   1.334968 D    
C51   C55   1.345624 D    
H42   C78   1.085579 S    
C58   H34   1.086659 S    
C76   C80   1.334968 D    
C52   C58   1.476384 S    
C16   N16   1.341626 A    
C34   C45   1.392219 A    
C31   N23   1.340290 A    
C38   C42   1.381785 A    
C25   N17   1.337143 A    
C33   C46   1.392217 A    
C6    C22   1.383045 A    
C55   H31   1.085493 S    
N28   Ni3   1.817096 S    
C15   N15   1.341624 A    
C40   N32   1.338329 A    
C4    C20   1.382989 A    
N16   Ni7   1.860461 S    
C25   C41   1.374016 A    
N20   Ni4   1.833631 S    
C18   C65   1.460487 S    
C9    H5    1.080024 S    
C68   H56   1.087492 S    
N32   Ni7   1.827174 S    
N36   O8    1.301943 A    
C30   C46   1.387516 A    
C27   C43   1.374030 A    
C43   C56   1.461215 S    
C14   H10   1.081374 S    
C29   C45   1.387515 A    
N17   N29   1.367636 A    
C12   H8    1.080023 S    
C38   N30   1.338471 A    
C22   C61   1.443791 S    
N5    Ni5   1.843882 S    
C17   C66   1.460488 S    
C49   C53   1.345575 D    
C60   H36   1.086661 S    
C3    N3    1.334588 A    
C56   H32   1.085484 S    
N21   Ni5   1.843768 S    
C13   N13   1.341629 A    
N11   Ni4   1.850512 S    
N35   O5    1.301798 A    
C36   N28   1.333672 A    
C10   N10   1.334266 A    
C69   C79   1.453857 S    
C45   C73   1.459854 S    
C32   N24   1.340288 A    
C1    C17   1.382990 A    
C30   H18   1.080527 S    
H45   C69   1.085040 S    
N6    Ni6   1.843902 S    
C6    N6    1.336238 A    
C29   H17   1.080526 S    
N10   Ni1   1.850504 S    
C3    C19   1.382990 A    
C51   C57   1.476198 S    
N34   O4    1.301981 A    
N9    Ni2   1.850512 S    
C31   H19   1.080525 S    
N15   Ni8   1.860441 S    
N2    Ni2   1.833507 S    
N22   N25   1.389775 A    
C37   H25   1.078019 S    
C49   C59   1.476398 S    
N14   Ni5   1.860461 S    
C31   C47   1.387513 A    
N21   N26   1.389776 A    
N35   O6    1.302120 A    
C7    C23   1.383091 A    
N25   Ni2   1.817106 S    
C39   H27   1.078014 S    
N27   Ni4   1.817106 S    
C50   C60   1.476398 S    
C28   H16   1.082011 S    
N23   N28   1.389776 A    
N20   N32   1.367638 A    
C57   H33   1.086663 S    
C64   H40   1.083409 S    
C33   H21   1.079266 S    
C10   H6    1.080019 S    
C24   C63   1.443751 S    
C72   C78   1.453854 S    
C48   C76   1.459856 S    
N3    Ni3   1.833519 S    
C61   H37   1.083410 S    
C2    H58   1.079770 S    
C51   N35   1.438413 S    
C39   N31   1.338456 A    
N26   Ni1   1.817096 S    
C47   C75   1.459854 S    
C28   C44   1.374187 A    
H49   C73   1.087584 S    
C50   N34   1.438563 S    
C52   C56   1.345575 D    
H47   C71   1.085040 S    
N8    Ni8   1.843902 S    
N7    Ni7   1.843882 S    
