data_mof_unit_19869.cif
_audit_creation_date              2012-12-10T20:46:49-0500
_audit_creation_method            fapswitch 2.2
_symmetry_space_group_name_H-M    P1
_symmetry_Int_Tables_number       1
_space_group_crystal_system       triclinic
_cell_length_a                    12.948699
_cell_length_b                    8.931713
_cell_length_c                    8.109171
_cell_angle_alpha                 89.98551
_cell_angle_beta                  96.142499
_cell_angle_gamma                 89.962275
_cell_volume                      932.473936595

loop_
_atom_site_label
_atom_site_type_symbol
_atom_type_description
_atom_site_fract_x
_atom_site_fract_y
_atom_site_fract_z
_atom_type_partial_charge
C1    C     C_R   0.499929 0.218005 0.500000 0.926690
C2    C     C_R   0.500070 0.781995 0.499999 0.926714
C3    C     C_R   0.298083 0.510437 0.469955 0.941676
C4    C     C_R   0.701920 0.489594 0.530045 0.941760
C5    C     C_R   0.813409 0.474063 0.544851 -0.254134
C6    C     C_R   0.186604 0.526093 0.455152 -0.253656
C7    C     C_R   0.024541 0.536881 0.280959 0.608769
C8    C     C_R   0.975461 0.463468 0.719061 0.608428
C9    C     C_R   0.132008 0.535488 0.297682 -0.349259
C10   C     C_R   0.868004 0.464736 0.702325 -0.348455
C11   C     C_R   0.133594 0.530348 0.597780 0.393773
C12   C     C_R   0.866424 0.469895 0.402223 0.394139
C13   C     C_R   0.027628 0.499368 0.580525 -0.179225
C14   C     C_R   0.972383 0.500934 0.419485 -0.178697
C15   C     C_1   0.499977 0.065196 0.500014 -0.169732
C16   C     C_1   0.500022 0.934804 0.499986 -0.169705
H1    H     H_    0.827838 0.453728 0.812281 0.245725
H2    H     H_    0.172182 0.546410 0.187726 0.245515
N1    N     N_1   0.500020 0.500000 0.073640 0.005431
N2    N     N_1   0.499980 0.500000 0.926360 0.005446
O1    O     O_R   0.499990 0.285340 0.636850 -0.619703
O2    O     O_R   0.500010 0.714660 0.363150 -0.619691
O3    O     O_R   0.500010 0.285340 0.363150 -0.610461
O4    O     O_R   0.499990 0.714660 0.636850 -0.610428
O5    O     O_R   0.346350 0.500000 0.614250 -0.568082
O6    O     O_R   0.653650 0.500000 0.385750 -0.568041
O7    O     O_R   0.346360 0.500000 0.340500 -0.628312
O8    O     O_R   0.653640 0.500000 0.659500 -0.628261
Zn1   Zn    Zn3+2 0.499990 0.500000 0.682780 1.046543
Zn2   Zn    Zn3+2 0.500010 0.500000 0.317220 1.046532
Cl1   Cl    Cl    0.805673 0.401084 0.209415 -0.573604
Cl2   Cl    Cl    0.194378 0.599120 0.790582 -0.574431
O9    O     O_3   0.971118 0.571319 0.129164 -0.519083
C17   C     C_3   0.971631 0.727929 0.107675 -0.186814
H3    H     H_    0.051606 0.770308 0.098550 0.164390
H4    H     H_    0.936182 0.786183 0.209245 0.133713
H5    H     H_    0.924216 0.755443 0.989411 0.191425
O10   O     O_3   0.028831 0.429073 0.870895 -0.519106
C18   C     C_3   0.029244 0.272358 0.891586 -0.186810
H6    H     H_    0.065593 0.215156 0.790236 0.134159
H7    H     H_    0.949439 0.228761 0.899495 0.163399
H8    H     H_    0.076313 0.244934 0.010192 0.191464

loop_
_geom_bond_atom_site_label_1
_geom_bond_atom_site_label_2
_ccdc_geom_bond_type
C2    O2    A    
C4    O6    A    
C1    O1    A    
C8    C13   A    
C1    C15   S    
C17   H5    S    
C11   C13   A    
N1    N2    T    
C3    C6    S    
C6    C9    A    
C3    O7    A    
O9    C17   S    
C5    C10   A    
C18   H7    S    
C13   C14   A    
O7    Zn2   S    
O5    Zn1   S    
C7    O9    S    
C8    O10   S    
O8    Zn1   S    
C4    O8    A    
C12   C14   A    
C11   Cl2   S    
C1    O3    A    
C18   H8    S    
C17   H4    S    
N2    Zn1   S    
C6    C11   A    
C12   Cl1   S    
C2    O4    A    
O10   C18   S    
C10   H1    S    
C15   C16   T    
O3    Zn2   S    
C9    H2    S    
C3    O5    A    
C2    C16   S    
C5    C12   A    
C8    C10   A    
C17   H3    S    
C18   H6    S    
C7    C9    A    
O4    Zn1   S    
O2    Zn2   S    
N1    Zn2   S    
O1    Zn1   S    
C7    C14   A    
C4    C5    S    
O6    Zn2   S    
