data_mof_unit_9655.cif
_audit_creation_date              2012-12-10T17:50:42-0500
_audit_creation_method            fapswitch 2.2
_symmetry_space_group_name_H-M    P1
_symmetry_Int_Tables_number       1
_space_group_crystal_system       triclinic
_cell_length_a                    14.838454
_cell_length_b                    15.03822
_cell_length_c                    15.920894
_cell_angle_alpha                 74.475414
_cell_angle_beta                  104.235834
_cell_angle_gamma                 115.991912
_cell_volume                      3042.69722208

loop_
_atom_site_label
_atom_site_type_symbol
_atom_type_description
_atom_site_fract_x
_atom_site_fract_y
_atom_site_fract_z
_atom_type_partial_charge
C1    C     C_R   0.880239 0.312664 0.513734 0.823598
C2    C     C_R   0.119756 0.687321 0.486366 0.822076
C3    C     C_R   0.780210 0.035632 0.607058 -0.105251
C4    C     C_R   0.219508 0.964796 0.394760 -0.094553
C5    C     C_R   0.848509 0.132951 0.579903 -0.164324
C6    C     C_R   0.151333 0.867195 0.421238 -0.163366
C7    C     C_R   0.711205 0.175094 0.490879 -0.132545
C8    C     C_R   0.288772 0.824804 0.509639 -0.129954
C9    C     C_R   0.640243 0.076362 0.515325 0.074315
C10   C     C_R   0.359585 0.923773 0.485837 0.074926
C11   C     C_R   0.675085 0.007816 0.579989 0.012666
C12   C     C_R   0.324633 0.992701 0.421892 0.000762
C13   C     C_R   0.535182 0.046534 0.481242 0.010103
C14   C     C_R   0.464628 0.953596 0.519950 0.039758
C15   C     C_R   0.500918 0.893033 0.591662 -0.179877
C16   C     C_R   0.498737 0.107290 0.409823 -0.128667
C17   C     C_R   0.604104 0.915636 0.618346 0.342455
C18   C     C_R   0.395557 0.085295 0.384123 0.430839
C19   C     C_R   0.710833 0.666495 0.353341 -0.290436
C20   C     C_R   0.288770 0.332979 0.646149 -0.280584
C21   C     C_R   0.787617 0.632164 0.368619 0.559669
C22   C     C_R   0.212323 0.367691 0.631240 0.558324
C23   C     C_R   0.000955 0.499863 0.660030 0.823090
C24   C     C_R   0.999045 0.500139 0.339967 0.824463
C25   C     C_R   0.718736 0.515311 0.494029 0.063733
C26   C     C_R   0.281226 0.484734 0.505937 0.062388
C27   C     C_R   0.628783 0.535149 0.468812 0.022670
C28   C     C_R   0.370995 0.464600 0.530881 0.021279
C29   C     C_R   0.632356 0.619215 0.402676 0.011167
C30   C     C_R   0.367166 0.380205 0.596700 0.014941
C31   C     C_R   0.537540 0.478714 0.507907 -0.057162
C32   C     C_R   0.462187 0.520952 0.491704 -0.046917
C33   C     C_R   0.483181 0.618397 0.438751 0.361343
C34   C     C_R   0.516406 0.381114 0.560593 0.404325
C35   C     C_R   0.559896 0.659015 0.387417 -0.214326
C36   C     C_R   0.439313 0.340091 0.611566 -0.166961
C37   C     C_3   0.960514 0.405937 0.043032 -0.013636
C38   C     C_3   0.039384 0.594055 0.956922 0.007963
C39   C     C_3   0.906450 0.453682 0.960682 0.047277
C40   C     C_3   0.093471 0.546322 0.039275 0.016198
C41   C     C_1   0.002907 0.499369 0.749948 -0.093370
C42   C     C_1   0.997080 0.500634 0.250040 -0.093931
C43   C     C_3   0.057273 0.451071 0.999616 0.323231
C44   C     C_3   0.942634 0.548911 0.000347 0.396362
C45   C     C_3   0.002751 0.499270 0.916562 -0.049966
C46   C     C_3   0.997159 0.500728 0.083405 -0.064755
C47   C     C_1   0.003477 0.499222 0.825372 0.112213
C48   C     C_1   0.996475 0.500784 0.174604 0.107647
C49   C     C_R   0.813228 0.205008 0.526818 -0.067223
C50   C     C_R   0.186738 0.794974 0.473724 -0.070713
Cu1   Cu    Cu3+1 0.081740 0.475690 0.522610 1.053533
Cu2   Cu    Cu3+1 0.918260 0.524310 0.477390 1.056709
H1    H     H_    0.271479 0.535576 0.446174 0.193143
H2    H     H_    0.728490 0.464588 0.553899 0.197739
H3    H     H_    0.708324 0.727193 0.299072 0.202607
H4    H     H_    0.291121 0.272065 0.700240 0.200293
H5    H     H_    0.311362 0.767336 0.552506 0.196146
H6    H     H_    0.688836 0.232396 0.447400 0.196503
H7    H     H_    0.071543 0.847403 0.396627 0.210698
H8    H     H_    0.928302 0.152696 0.604437 0.210980
H9    H     H_    0.810946 0.984446 0.652047 0.218711
H10   H     H_    0.188700 0.016099 0.350094 0.217112
H11   H     H_    0.449793 0.827038 0.628656 0.179133
H12   H     H_    0.549615 0.173210 0.372536 0.199680
H13   H     H_    0.570003 0.729482 0.341640 0.197699
H14   H     H_    0.428970 0.269419 0.657070 0.175917
N1    N     N_R   0.795440 0.560790 0.443380 -0.252812
N2    N     N_R   0.204560 0.439210 0.556620 -0.252494
O1    O     O_R   0.977900 0.338120 0.529810 -0.554152
O2    O     O_R   0.022100 0.661880 0.470190 -0.553813
O3    O     O_R   0.839850 0.379180 0.491620 -0.557266
O4    O     O_R   0.160150 0.620820 0.508380 -0.558908
O5    O     O_R   0.069010 0.479460 0.640020 -0.500988
O6    O     O_R   0.930990 0.520540 0.359980 -0.498803
O7    O     O_R   0.930960 0.520530 0.601820 -0.598724
O8    O     O_R   0.069040 0.479470 0.398180 -0.602581
N3    N     N_3   0.804037 0.402377 0.917462 -0.490911
H15   H     H_    0.755732 0.374761 0.964808 0.275412
H16   H     H_    0.802182 0.339896 0.898957 0.233644
N4    N     N_3   0.195869 0.597750 0.082456 -0.543685
H17   H     H_    0.244188 0.625241 0.035137 0.273035
H18   H     H_    0.197693 0.660301 0.100811 0.246532
S1    S     S_3+6 0.145161 0.327534 0.722963 0.072298
O9    O     O_2   0.166118 0.242065 0.786019 -0.253686
O10   O     O_2   0.184798 0.413978 0.770928 -0.212443
O11   O     O_3   0.018889 0.287526 0.696606 -0.550615
H19   H     H_    0.993723 0.274316 0.752733 0.380515
S2    S     S_3+6 0.855228 0.672718 0.277113 0.068738
O12   O     O_2   0.815779 0.586526 0.228877 -0.213256
O13   O     O_2   0.834447 0.758352 0.214187 -0.259782
O14   O     O_3   0.981476 0.712687 0.303693 -0.548454
H20   H     H_    0.006787 0.725920 0.247634 0.381732
S3    S     S_3+6 0.441835 0.706602 0.453405 -0.010017
O15   O     O_2   0.352288 0.709459 0.385343 -0.284567
O16   O     O_2   0.414561 0.679729 0.544333 -0.293931
O17   O     O_3   0.535813 0.822102 0.440763 -0.516270
H21   H     H_    0.594841 0.815121 0.482815 0.357523
S4    S     S_3+6 0.558350 0.293362 0.546134 -0.024530
O18   O     O_2   0.586563 0.321057 0.455508 -0.274376
O19   O     O_2   0.647708 0.290324 0.614557 -0.341967
O20   O     O_3   0.463113 0.178325 0.556694 -0.536627
H22   H     H_    0.483129 0.140139 0.613808 0.360086
N5    N     N_3   0.915185 0.302992 0.089777 -0.530239
H23   H     H_    0.901662 0.255270 0.046832 0.264307
H24   H     H_    0.969694 0.291344 0.142000 0.263523
N6    N     N_3   0.084694 0.697002 0.910171 -0.535975
H25   H     H_    0.098539 0.744725 0.953215 0.262231
H26   H     H_    0.030055 0.708751 0.858139 0.269601
S5    S     S_3+6 0.866096 0.613268 0.999364 0.069570
O21   O     O_2   0.775438 0.541501 0.043620 -0.211324
O22   O     O_2   0.927130 0.699360 0.047935 -0.250117
O23   O     O_3   0.827516 0.657290 0.894443 -0.485632
H27   H     H_    0.786080 0.692220 0.898710 0.417103
S6    S     S_3+6 0.133456 0.386358 0.000299 0.086324
O24   O     O_2   0.072957 0.302630 0.949021 -0.208633
O25   O     O_2   0.225881 0.458074 0.958403 -0.211973
O26   O     O_3   0.169003 0.337707 0.104553 -0.457428
H28   H     H_    0.204349 0.395873 0.135316 0.357363
S7    S     S_3+6 0.640541 0.827536 0.702333 0.030996
O27   O     O_2   0.701595 0.792186 0.666801 -0.255908
O28   O     O_2   0.704773 0.877114 0.779385 -0.276858
O29   O     O_3   0.538849 0.726770 0.736808 -0.452198
H29   H     H_    0.515815 0.748907 0.777870 0.358570
S8    S     S_3+6 0.359126 0.174601 0.301911 0.058171
O30   O     O_2   0.296337 0.126806 0.223625 -0.241222
O31   O     O_2   0.297226 0.207682 0.338871 -0.269326
O32   O     O_3   0.461360 0.276002 0.269362 -0.483496
H30   H     H_    0.433741 0.323538 0.228294 0.400841

loop_
_geom_bond_atom_site_label_1
_geom_bond_atom_site_label_2
_ccdc_geom_bond_type
C38   N6    S    
S3    O15   D    
C27   C29   A    
C24   C42   S    
C25   N1    A    
C20   H4    S    
Cu2   O7    S    
S6    O24   D    
C20   C30   A    
N3    H15   S    
C40   C46   S    
C1    O3    A    
C39   N3    S    
C19   C21   A    
Cu2   O6    S    
S5    O22   D    
C43   S6    S    
C36   H14   S    
N6    H25   S    
C35   H13   S    
C3    H9    S    
C4    H10   S    
C15   C17   A    
C45   C47   S    
C9    C13   A    
C38   C45   S    
C2    C50   S    
C34   S4    S    
C40   C43   S    
C31   C32   A    
C40   N4    S    
C4    C12   A    
C7    H6    S    
C39   C45   S    
C44   S5    S    
S7    O28   D    
C21   S2    S    
S3    O16   D    
C13   C14   A    
C21   N1    A    
C5    C49   A    
C23   O5    A    
C2    O4    A    
O23   H27   S    
C44   C46   S    
N3    H16   S    
C46   C48   S    
C27   C31   A    
Cu1   Cu2   S    
O20   H22   S    
C28   C32   A    
C3    C11   A    
C25   H2    S    
C7    C49   A    
N4    H18   S    
C10   C14   A    
S5    O23   S    
C23   O7    A    
O14   H20   S    
C37   N5    S    
O11   H19   S    
C24   O8    A    
C1    O1    A    
C37   C43   S    
C38   C44   S    
C8    H5    S    
C9    C11   A    
S1    O9    D    
S2    O14   S    
O17   H21   S    
C41   C47   T    
C31   C34   A    
N5    H24   S    
C16   C18   A    
C42   C48   T    
C6    C50   A    
C43   C45   S    
C22   N2    A    
Cu2   N1    S    
C10   C12   A    
S8    O32   S    
C4    C6    A    
S1    O10   D    
S2    O13   D    
S3    O17   S    
S4    O19   D    
Cu1   O4    S    
O32   H30   S    
C19   C29   A    
C26   H1    S    
C8    C50   A    
N5    H23   S    
S8    O31   D    
S7    O29   S    
C19   H3    S    
C7    C9    A    
C11   C17   A    
C5    H8    S    
C6    H7    S    
Cu1   O5    S    
C20   C22   A    
N4    H17   S    
C3    C5    A    
C33   S3    S    
S6    O25   D    
S7    O27   D    
C39   C44   S    
C25   C27   A    
S4    O20   S    
Cu1   O1    S    
C29   C35   A    
C26   C28   A    
C23   C41   S    
C30   C36   A    
C26   N2    A    
C32   C33   A    
C28   C30   A    
O29   H29   S    
C37   C39   S    
Cu2   O3    S    
C2    O2    A    
O26   H28   S    
C22   S1    S    
C38   C40   S    
C24   O6    A    
N6    H26   S    
C33   C35   A    
C34   C36   A    
Cu1   N2    S    
S6    O26   S    
Cu2   O2    S    
C17   S7    S    
S1    O11   S    
S2    O12   D    
C8    C10   A    
S4    O18   D    
C13   C16   A    
C12   C18   A    
Cu1   O8    S    
C15   H11   S    
C14   C15   A    
C16   H12   S    
C37   C46   S    
S5    O21   D    
C1    C49   S    
C18   S8    S    
S8    O30   D    
