data_mof_unit_17475.cif
_audit_creation_date              2012-12-10T17:43:41-0500
_audit_creation_method            fapswitch 2.2
_symmetry_space_group_name_H-M    P1
_symmetry_Int_Tables_number       1
_space_group_crystal_system       triclinic
_cell_length_a                    15.022609
_cell_length_b                    10.719345
_cell_length_c                    9.907951
_cell_angle_alpha                 88.113496
_cell_angle_beta                  89.936467
_cell_angle_gamma                 93.347961
_cell_volume                      1591.90869277

loop_
_atom_site_label
_atom_site_type_symbol
_atom_type_description
_atom_site_fract_x
_atom_site_fract_y
_atom_site_fract_z
_atom_type_partial_charge
C1    C     C_R   0.502944 0.259474 0.503261 0.906866
C2    C     C_R   0.184819 0.488891 0.380147 -0.222641
C3    C     C_R   0.231686 0.507608 0.499613 -0.085275
C4    C     C_R   0.326891 0.500630 0.500003 0.920066
C5    C     C_R   0.188193 0.536854 0.617851 -0.241752
C6    C     C_R   0.477239 0.097736 0.762305 -0.090797
C7    C     C_R   0.435215 0.027780 0.867991 -0.149404
C8    C     C_R   0.393253 0.911874 0.843762 -0.131232
C9    C     C_R   0.401309 0.860740 0.717378 -0.147115
C10   C     C_R   0.450688 0.926811 0.613094 0.105104
C11   C     C_R   0.477300 0.052647 0.629090 0.106507
C12   C     C_R   0.910280 0.552582 0.618317 -0.108628
C13   C     C_R   0.503632 0.124943 0.510660 -0.127203
C14   C     C_R   0.519146 0.067058 0.389012 -0.193457
C15   C     C_R   0.509624 0.939805 0.382753 -0.195743
C16   C     C_R   0.491307 0.738250 0.498159 0.860052
C17   C     C_R   0.478297 0.869435 0.495348 -0.112983
C18   C     C_R   0.376526 0.344391 0.150872 -0.300232
C19   C     C_R   0.309863 0.272867 0.089497 0.504609
C20   C     C_R   0.305714 0.270983 0.950400 0.031559
C21   C     C_R   0.370860 0.339615 0.872586 0.500411
C22   C     C_R   0.437335 0.421945 0.931965 -0.128176
C23   C     C_R   0.954581 0.475050 0.259477 -0.127229
C24   C     C_R   0.438414 0.422942 0.076616 -0.000627
C25   C     C_R   0.558373 0.574518 0.068602 -0.156934
C26   C     C_R   0.558315 0.574764 0.925555 0.701841
C27   C     C_R   0.673680 0.501747 0.499917 0.972000
C28   C     C_R   0.817073 0.539333 0.618571 0.555204
C29   C     C_R   0.770543 0.510337 0.499486 -0.374809
C30   C     C_R   0.816538 0.492341 0.379285 0.507489
C31   C     C_R   0.908790 0.498989 0.378370 0.020387
C32   C     C_R   0.955881 0.526975 0.498347 -0.149204
C33   C     C_3   0.151505 0.244595 0.884198 -0.684097
C34   C     C_R   0.046555 0.473670 0.259901 -0.238126
C35   C     C_3   0.140961 0.724961 0.873860 -0.777722
C36   C     C_3   0.888543 0.760588 0.834191 -0.586144
C37   C     C_R   0.093464 0.496718 0.378800 0.160074
C38   C     C_R   0.048556 0.525543 0.498439 0.090163
C39   C     C_R   0.096384 0.547955 0.618621 0.042452
C40   C     C_R   0.052230 0.579723 0.737196 0.108859
C41   C     C_R   0.958694 0.586855 0.735920 0.191006
F1    F     F_    0.771457 0.549753 0.735792 -0.585303
F2    F     F_    0.251003 0.200682 0.166600 -0.647070
F3    F     F_    0.368049 0.315374 0.741663 -0.652965
F4    F     F_    0.772000 0.463095 0.263894 -0.644884
F5    F     F_    0.617501 0.652372 0.855759 -0.605937
H1    H     H_    0.512543 0.183307 0.789970 0.176096
H2    H     H_    0.219133 0.466318 0.288488 0.176472
H3    H     H_    0.226563 0.551689 0.708976 0.196720
H4    H     H_    0.541011 0.119965 0.298656 0.181768
H5    H     H_    0.256061 0.157341 0.797718 0.275331
H6    H     H_    0.102256 0.175504 0.841425 0.228927
H7    H     H_    0.153831 0.331195 0.819310 0.232682
H8    H     H_    0.128999 0.266103 0.987270 0.263356
H9    H     H_    0.075861 0.557704 0.944907 0.213404
H10   H     H_    0.088948 0.787918 0.903675 0.249070
H11   H     H_    0.173780 0.761856 0.778963 0.247176
H12   H     H_    0.434455 0.064339 0.968536 0.143506
H13   H     H_    0.192106 0.723549 0.954598 0.239381
H14   H     H_    0.939989 0.612639 0.943295 0.217042
H15   H     H_    0.948624 0.825437 0.824015 0.187976
H16   H     H_    0.849940 0.785415 0.924093 0.242982
H17   H     H_    0.846154 0.772951 0.743559 0.258923
H18   H     H_    0.357679 0.859403 0.924220 0.144479
H19   H     H_    0.369547 0.769013 0.702171 0.138987
H20   H     H_    0.529313 0.896519 0.290863 0.173203
H21   H     H_    0.606046 0.635541 0.120225 0.179029
H22   H     H_    0.377350 0.334360 0.257497 0.255140
H23   H     H_    0.919461 0.454676 0.166583 0.199006
H24   H     H_    0.080918 0.451839 0.168164 0.142582
N1    N     N_R   0.499150 0.498800 0.142780 -0.115955
N2    N     N_R   0.499120 0.498720 0.857170 -0.150161
N3    N     N_2   0.238374 0.193102 0.888659 -0.248034
N4    N     N_2   0.102380 0.599545 0.857713 -0.328932
N5    N     N_2   0.913639 0.632459 0.849778 -0.231398
O1    O     O_R   0.500000 0.316780 0.614690 -0.573295
O2    O     O_R   0.499990 0.316750 0.385360 -0.641263
O3    O     O_R   0.367850 0.499980 0.614680 -0.571137
O4    O     O_R   0.367840 0.499960 0.385350 -0.659443
O5    O     O_R   0.500010 0.683250 0.614640 -0.588300
O6    O     O_R   0.500000 0.683220 0.385310 -0.635056
O7    O     O_R   0.632160 0.500040 0.614650 -0.522810
O8    O     O_R   0.632150 0.500020 0.385320 -0.559580
Zn1   Zn    Zn3+2 0.500010 0.500020 0.653130 1.063125
Zn2   Zn    Zn3+2 0.499990 0.499980 0.346870 0.980042

loop_
_geom_bond_atom_site_label_1
_geom_bond_atom_site_label_2
_ccdc_geom_bond_type
C35   N4    S    
C27   C29   S    
C34   C37   A    
C1    O2    A    
C23   H23   S    
C30   F4    S    
C19   C20   A    
C25   H21   S    
O5    Zn1   S    
O1    Zn1   S    
C7    C8    A    
C33   H6    S    
C12   C41   A    
C12   C28   A    
C18   C24   A    
C28   C29   A    
C37   C38   A    
C30   C31   A    
C10   C17   A    
C18   H22   S    
C26   N2    A    
C35   H13   S    
C18   C19   A    
N1    Zn2   S    
H9    N4    S    
C8    C9    A    
C25   N1    A    
C32   C38   A    
C36   H17   S    
C9    C10   A    
C34   H24   S    
C7    H12   S    
O2    Zn2   S    
C21   C22   A    
C12   C32   A    
C5    H3    S    
C36   H16   S    
C22   N2    A    
C19   F2    S    
C33   H7    S    
C38   C39   A    
C6    H1    S    
C4    O4    A    
C6    C11   A    
C16   C17   S    
C2    H2    S    
C25   C26   A    
C15   H20   S    
C16   O5    A    
C23   C31   A    
C4    O3    A    
C29   C30   A    
C36   N5    S    
C41   N5    S    
C21   F3    S    
C31   C32   A    
C23   C34   A    
N2    Zn1   S    
C8    H18   S    
C33   N3    S    
C40   C41   A    
O8    Zn2   S    
O7    Zn1   S    
C5    C39   A    
C22   C24   A    
C1    C13   S    
C36   H15   S    
O4    Zn2   S    
C33   H8    S    
C15   C17   A    
C35   H10   S    
C1    O1    A    
C27   O7    A    
H5    N3    S    
C3    C5    A    
C6    C7    A    
H14   N5    S    
C35   H11   S    
C27   O8    A    
C2    C3    A    
C11   C13   A    
C2    C37   A    
C14   H4    S    
C28   F1    S    
C16   O6    A    
C40   N4    S    
C20   N3    S    
C9    H19   S    
C10   C11   A    
C26   F5    S    
C39   C40   A    
O3    Zn1   S    
C20   C21   A    
C14   C15   A    
C13   C14   A    
O6    Zn2   S    
C3    C4    S    
C24   N1    A    
