data_mof_unit_44896.cif
_audit_creation_date              2012-12-10T20:39:08-0500
_audit_creation_method            fapswitch 2.2
_symmetry_space_group_name_H-M    P1
_symmetry_Int_Tables_number       1
_space_group_crystal_system       triclinic
_cell_length_a                    18.952555
_cell_length_b                    10.718108
_cell_length_c                    9.858303
_cell_angle_alpha                 89.361517
_cell_angle_beta                  89.543126
_cell_angle_gamma                 90.378144
_cell_volume                      2002.33881747

loop_
_atom_site_label
_atom_site_type_symbol
_atom_type_description
_atom_site_fract_x
_atom_site_fract_y
_atom_site_fract_z
_atom_type_partial_charge
C1    C     C_R   0.504305 0.260393 0.500266 0.940787
C2    C     C_R   0.290520 0.537308 0.497715 -0.056540
C3    C     C_R   0.931382 0.598754 0.485823 0.287817
C4    C     C_R   0.073264 0.622349 0.486176 0.353122
C5    C     C_R   0.816967 0.589697 0.610119 -0.151415
C6    C     C_R   0.745391 0.561703 0.614617 -0.198689
C7    C     C_R   0.711308 0.518499 0.498308 -0.036159
C8    C     C_R   0.749808 0.501191 0.378279 -0.163771
C9    C     C_R   0.821368 0.529120 0.373683 -0.176358
C10   C     C_R   0.855421 0.574200 0.489400 0.090317
C11   C     C_R   0.474822 0.063490 0.606049 0.027481
C12   C     C_R   0.365169 0.505374 0.500067 0.871859
C13   C     C_R   0.507699 0.127943 0.499186 -0.179563
C14   C     C_R   0.532181 0.063447 0.383133 -0.039801
C15   C     C_R   0.523998 0.934883 0.380736 -0.279648
C16   C     C_R   0.497713 0.871423 0.495220 -0.179500
C17   C     C_R   0.470795 0.936184 0.604808 0.149026
C18   C     C_3   0.487218 0.922982 0.752141 0.319743
C19   C     C_3   0.491740 0.064250 0.754262 -0.511517
C20   C     C_R   0.438607 0.484153 0.072563 0.102885
C21   C     C_R   0.559218 0.531727 0.069929 0.510693
C22   C     C_R   0.559277 0.528945 0.925947 -0.240863
C23   C     C_R   0.499720 0.739714 0.499083 0.887827
C24   C     C_R   0.438415 0.485326 0.930113 0.213511
C25   C     C_3   0.389234 0.376405 0.926846 -0.470511
C26   C     C_3   0.390132 0.374582 0.080893 -0.452267
C27   C     C_R   0.634991 0.501793 0.499513 0.879289
C28   C     C_R   0.249014 0.526993 0.614948 -0.160598
C29   C     C_R   0.179061 0.564132 0.612340 -0.151055
C30   C     C_R   0.149922 0.613514 0.492899 0.005281
C31   C     C_R   0.192841 0.632513 0.376421 -0.013446
C32   C     C_R   0.262515 0.591303 0.379610 -0.242221
H1    H     H_    0.270137 0.488135 0.707649 0.149360
H2    H     H_    0.544186 0.883677 0.294668 0.169477
H3    H     H_    0.538230 0.874240 0.770453 0.070675
H4    H     H_    0.449122 0.106615 0.815516 0.220439
H5    H     H_    0.545731 0.100107 0.775119 0.191686
H6    H     H_    0.607376 0.549290 0.870286 0.169822
H7    H     H_    0.336949 0.401540 0.885194 0.198538
H8    H     H_    0.413819 0.293628 0.880704 0.209100
H9    H     H_    0.338402 0.398674 0.127262 0.212944
H10   H     H_    0.146777 0.548576 0.702218 0.165292
H11   H     H_    0.415831 0.290469 0.124736 0.221929
H12   H     H_    0.295831 0.605736 0.290826 0.182987
H13   H     H_    0.842005 0.623333 0.701173 0.154510
H14   H     H_    0.716531 0.576733 0.708207 0.146737
H15   H     H_    0.724628 0.466903 0.287738 0.203011
H16   H     H_    0.849848 0.515267 0.279450 0.156751
N1    N     N_R   0.039485 0.581280 0.374465 -0.142479
N2    N     N_R   0.969770 0.570381 0.373993 -0.166477
N3    N     N_R   0.965116 0.641468 0.597142 -0.173183
N4    N     N_R   0.034952 0.652605 0.597568 -0.162258
N5    N     N_R   0.499530 0.499140 0.142800 -0.147458
N6    N     N_R   0.499530 0.499180 0.857150 -0.126288
O1    O     O_R   0.500010 0.316790 0.614690 -0.611373
O2    O     O_R   0.500000 0.316760 0.385350 -0.599996
O3    O     O_R   0.398140 0.500000 0.614710 -0.606536
O4    O     O_R   0.398130 0.499970 0.385370 -0.625350
O5    O     O_R   0.500000 0.683240 0.614650 -0.609605
O6    O     O_R   0.499990 0.683210 0.385310 -0.638399
O7    O     O_R   0.601870 0.500030 0.614630 -0.637527
O8    O     O_R   0.601860 0.500000 0.385290 -0.551938
Zn1   Zn    Zn3+2 0.500000 0.500020 0.653130 0.962744
Zn2   Zn    Zn3+2 0.500000 0.499980 0.346870 0.981548
O9    O     O_3   0.427982 0.875831 0.824636 -0.568470
C33   C     C_3   0.448308 0.843833 0.957865 0.090344
H17   H     H_    0.473953 0.924265 0.009012 0.177627
H18   H     H_    0.485134 0.763656 0.956023 0.120008
C34   C     C_3   0.383412 0.805348 0.040338 -0.751154
H19   H     H_    0.356418 0.725364 0.991720 0.264399
H20   H     H_    0.399326 0.777106 0.144406 0.205345
H21   H     H_    0.346213 0.884700 0.047097 0.264477
O10   O     O_3   0.621109 0.558951 0.135964 -0.605699
C35   C     C_3   0.633767 0.689353 0.133850 0.117320
H22   H     H_    0.637585 0.721210 0.240371 0.173981
H23   H     H_    0.591809 0.746392 0.084681 0.092583
C36   C     C_3   0.703884 0.717121 0.063088 -0.860062
H24   H     H_    0.701516 0.688810 0.955260 0.236533
H25   H     H_    0.715524 0.818677 0.067196 0.232224
H26   H     H_    0.747023 0.665551 0.114100 0.262965
C37   C     C_2   0.167514 0.698703 0.252755 0.911605
O11   O     O_2   0.194130 0.676939 0.142107 -0.638613
O12   O     O_R   0.114847 0.788986 0.263067 -0.787933
H27   H     H_    0.102639 0.827855 0.172079 0.353881
C38   C     C_2   0.572635 0.123974 0.270134 0.930117
O13   O     O_2   0.564865 0.088202 0.153764 -0.678770
O14   O     O_R   0.621537 0.218609 0.297289 -0.794768
H28   H     H_    0.645594 0.252309 0.212137 0.347658

loop_
_geom_bond_atom_site_label_1
_geom_bond_atom_site_label_2
_ccdc_geom_bond_type
C33   H18   S    
O14   H28   S    
C29   H10   S    
O10   C35   S    
C2    C12   S    
C37   O11   D    
C7    C8    A    
C22   N6    A    
C36   H24   S    
C18   O9    S    
C23   O5    A    
C11   C19   S    
C35   H23   S    
C4    N4    A    
C28   C29   A    
C1    O2    A    
C19   H4    S    
C25   H8    S    
C30   C31   A    
N5    Zn2   S    
C33   C34   S    
N6    Zn1   S    
C24   N6    A    
C15   C16   A    
C22   H6    S    
C21   O10   S    
C7    C27   S    
C2    C32   A    
C18   C19   S    
C34   H20   S    
O8    Zn2   S    
C27   O7    A    
C20   C24   A    
C8    C9    A    
C35   C36   S    
O1    Zn1   S    
O2    Zn2   S    
C19   H5    S    
C9    C10   A    
C15   H2    S    
C12   O4    A    
C38   O14   S    
C33   H17   S    
C13   C14   A    
C37   O12   S    
C3    N2    A    
C26   H11   S    
O3    Zn1   S    
C36   H25   S    
O4    Zn2   S    
C23   O6    A    
C35   H22   S    
N3    N4    A    
C24   C25   S    
C3    N3    A    
C16   C17   A    
C25   C26   S    
C38   O13   D    
C5    H13   S    
C34   H21   S    
C29   C30   A    
C27   O8    A    
O12   H27   S    
O7    Zn1   S    
C17   C18   S    
C32   H12   S    
C12   O3    A    
C28   H1    S    
N1    N2    A    
C16   C23   S    
C1    C13   S    
C18   H3    S    
C36   H26   S    
C11   C17   A    
C6    H14   S    
C31   C32   A    
C14   C38   S    
C20   N5    A    
C6    C7    A    
O5    Zn1   S    
C31   C37   S    
C4    N1    A    
O6    Zn2   S    
C1    O1    A    
C8    H15   S    
C5    C10   A    
C3    C10   S    
C25   H7    S    
C21   N5    A    
C11   C13   A    
C5    C6    A    
C20   C26   S    
C34   H19   S    
C9    H16   S    
O9    C33   S    
C14   C15   A    
C2    C28   A    
C21   C22   A    
C4    C30   S    
C26   H9    S    
