data_mof_unit_10884.cif
_audit_creation_date              2012-12-10T16:56:33-0500
_audit_creation_method            fapswitch 2.2
_symmetry_space_group_name_H-M    P1
_symmetry_Int_Tables_number       1
_space_group_crystal_system       triclinic
_cell_length_a                    10.733591
_cell_length_b                    10.933272
_cell_length_c                    9.69427
_cell_angle_alpha                 90.02743
_cell_angle_beta                  90.185639
_cell_angle_gamma                 90.012231
_cell_volume                      1137.64815615

loop_
_atom_site_label
_atom_site_type_symbol
_atom_type_description
_atom_site_fract_x
_atom_site_fract_y
_atom_site_fract_z
_atom_type_partial_charge
C1    C     C_R   0.501152 0.265366 0.500019 0.854452
C2    C     C_3   0.878104 0.494674 0.499737 0.102350
C3    C     C_3   0.928688 0.624569 0.529967 -0.396683
C4    C     C_3   0.927304 0.452229 0.357029 -0.395461
C5    C     C_2   0.499602 0.933047 0.386688 -0.161484
C6    C     C_2   0.491201 0.866628 0.502423 -0.325037
C7    C     C_2   0.493813 0.067004 0.386852 -0.155459
C8    C     C_2   0.506913 0.133396 0.502204 -0.319928
C9    C     C_2   0.453005 0.411912 0.922068 -0.079108
C10   C     C_2   0.463767 0.407274 0.077127 -0.099658
C11   C     C_R   0.259883 0.496197 0.499657 0.783687
C12   C     C_R   0.498188 0.734646 0.500113 0.851554
C13   C     C_R   0.740114 0.497042 0.500065 0.774263
C14   C     C_3   0.071880 0.408131 0.613957 -0.352255
C15   C     C_3   0.928329 0.404953 0.610842 -0.383171
C16   C     C_3   0.072296 0.624639 0.525584 -0.482402
C17   C     C_3   0.070820 0.447866 0.356343 0.352643
C18   C     C_3   0.121726 0.493576 0.498543 0.095639
Cu1   Cu    Cu3+1 0.500030 0.500020 0.638630 0.927364
Cu2   Cu    Cu3+1 0.499970 0.499980 0.361370 0.926464
H1    H     H_    0.103043 0.442234 0.716541 0.173995
H2    H     H_    0.895354 0.516318 0.274949 0.134211
H3    H     H_    0.104731 0.687576 0.442910 0.161162
H4    H     H_    0.891865 0.690582 0.452534 0.162113
H5    H     H_    0.509380 0.888384 0.287181 0.161457
H6    H     H_    0.476127 0.907618 0.602560 0.145807
H7    H     H_    0.480537 0.111713 0.287818 0.152754
H8    H     H_    0.524853 0.092405 0.601830 0.142582
H9    H     H_    0.406896 0.335938 0.871226 0.152487
H10   H     H_    0.550200 0.565725 0.894413 0.192275
H11   H     H_    0.437155 0.322622 0.127059 0.142900
H12   H     H_    0.109488 0.313945 0.601635 0.191247
H13   H     H_    0.516076 0.580893 0.105906 0.192445
H14   H     H_    0.895863 0.310373 0.587994 0.164558
H15   H     H_    0.892529 0.430013 0.714707 0.180767
H16   H     H_    0.109453 0.660110 0.625218 0.189190
H17   H     H_    0.896873 0.655679 0.633376 0.179119
H18   H     H_    0.103185 0.513311 0.275419 0.061321
H19   H     H_    0.888047 0.360603 0.331696 0.183922
N1    N     N_2   0.498630 0.498660 0.846910 -0.280762
N2    N     N_2   0.498590 0.498630 0.153040 -0.284184
O1    O     O_R   0.500020 0.321960 0.617040 -0.584927
O2    O     O_R   0.499980 0.321920 0.382900 -0.578910
O3    O     O_R   0.317710 0.500000 0.617070 -0.582057
O4    O     O_R   0.317670 0.499960 0.382930 -0.584052
O5    O     O_R   0.500020 0.678080 0.617100 -0.582078
O6    O     O_R   0.499980 0.678040 0.382960 -0.581544
O7    O     O_R   0.682330 0.500040 0.617070 -0.583033
O8    O     O_R   0.682290 0.500000 0.382930 -0.579567
O9    O     O_3   0.110819 0.325389 0.333333 -0.617987
C19   C     C_3   0.156355 0.307242 0.197957 0.069673
H20   H     H_    0.215941 0.224175 0.200197 0.162794
H21   H     H_    0.217209 0.383326 0.162840 0.144377
C20   C     C_3   0.049735 0.286207 0.095117 -0.375210
H22   H     H_    0.987184 0.213148 0.134371 0.231324
H23   H     H_    0.994777 0.371640 0.083151 0.203849
C21   C     C_3   0.099626 0.248635 0.954117 -0.945014
H24   H     H_    0.164698 0.319221 0.914544 0.249377
H25   H     H_    0.021024 0.238642 0.880206 0.260459
H26   H     H_    0.149420 0.159821 0.961528 0.255387

loop_
_geom_bond_atom_site_label_1
_geom_bond_atom_site_label_2
_ccdc_geom_bond_type
C17   O9    S    
C13   O7    A    
C2    C4    S    
C4    H19   S    
C11   C18   S    
Cu2   O8    S    
C1    C8    S    
C4    H2    S    
C9    C10   S    
C14   C18   S    
C15   H14   S    
Cu1   Cu2   S    
Cu1   O1    S    
C9    H9    S    
C19   C20   S    
H13   N2    S    
O9    C19   S    
C21   H24   S    
Cu1   O5    S    
H10   N1    S    
C7    C8    D    
C16   H16   S    
C10   N2    D    
C2    C15   S    
C3    H4    S    
C6    H6    S    
C12   O6    A    
C5    H5    S    
C4    C17   S    
C14   H1    S    
C16   C18   S    
C17   C18   S    
C16   H3    S    
C2    C3    S    
C17   H18   S    
C6    C12   S    
C5    C6    D    
C8    H8    S    
C13   O8    A    
C21   H25   S    
Cu2   O6    S    
C11   O4    A    
Cu1   N1    S    
C19   H20   S    
C1    O1    A    
C11   O3    A    
Cu2   O2    S    
C7    H7    S    
Cu1   O3    S    
C3    H17   S    
C12   O5    A    
C15   H15   S    
C20   H22   S    
C5    C7    S    
C2    C13   S    
C14   C15   S    
C21   H26   S    
Cu1   O7    S    
C14   H12   S    
C10   H11   S    
C1    O2    A    
C9    N1    D    
C3    C16   S    
Cu2   O4    S    
Cu2   N2    S    
C20   H23   S    
C19   H21   S    
C20   C21   S    
