data_mof_unit_52931.cif
_audit_creation_date              2012-12-11T15:53:54-0500
_audit_creation_method            fapswitch 2.2
_symmetry_space_group_name_H-M    P1
_symmetry_Int_Tables_number       1
_space_group_crystal_system       triclinic
_cell_length_a                    10.67121
_cell_length_b                    10.660164
_cell_length_c                    17.073134
_cell_angle_alpha                 80.634942
_cell_angle_beta                  99.2927
_cell_angle_gamma                 118.352869
_cell_volume                      1678.47180371

loop_
_atom_site_label
_atom_site_type_symbol
_atom_type_description
_atom_site_fract_x
_atom_site_fract_y
_atom_site_fract_z
_atom_type_partial_charge
C1    C     C_R   0.383763 0.283437 0.631979 0.523701
C2    C     C_1   0.332687 0.186328 0.781407 -0.043095
C3    C     C_1   0.337229 0.663361 0.277543 -0.050132
C4    C     C_R   0.411845 0.621600 0.601678 0.536736
C5    C     C_1   0.324307 0.672674 0.206849 -0.057679
C6    C     C_R   0.866731 0.681195 0.166038 0.017351
C7    C     C_R   0.925170 0.609515 0.224556 -0.039766
C8    C     C_R   0.890745 0.584442 0.300744 0.080313
C9    C     C_R   0.794699 0.754625 0.268825 -0.184656
C10   C     C_R   0.807886 0.760073 0.188775 -0.180793
C11   C     C_3   0.925301 0.468670 0.227241 -0.180961
C12   C     C_R   0.510304 0.714590 0.733844 -0.174755
C13   C     C_3   0.870817 0.431226 0.309721 0.506922
C14   C     C_R   0.827075 0.658711 0.324869 -0.001470
C15   C     C_R   0.319558 0.173272 0.156610 0.015593
C16   C     C_R   0.722866 0.588746 0.633469 0.530224
C17   C     C_R   0.206470 0.115781 0.204131 0.040254
C18   C     C_R   0.227188 0.153178 0.280011 0.043833
C19   C     C_R   0.469149 0.330086 0.256993 -0.120466
C20   C     C_R   0.451547 0.283861 0.181903 -0.160816
C21   C     C_3   0.072121 0.131337 0.185551 -0.271179
C22   C     C_3   0.090880 0.165133 0.269785 -0.268413
C23   C     C_R   0.489905 0.727855 0.810420 -0.146157
C24   C     C_R   0.360895 0.256459 0.308446 0.019083
C25   C     C_R   0.886139 0.699368 0.856942 0.546125
C26   C     C_R   0.316376 0.705419 0.899191 0.542615
C27   C     C_R   0.286143 0.118263 0.858268 0.548138
C28   C     C_R   0.378970 0.295445 0.387825 0.562936
C29   C     C_R   0.892467 0.692990 0.085420 0.550675
C30   C     C_R   0.313033 0.700604 0.123770 0.547415
C31   C     C_R   0.288104 0.115078 0.081703 0.541182
C32   C     C_R   0.366119 0.653794 0.360575 0.570775
C33   C     C_R   0.770464 0.620817 0.399843 0.562617
C34   C     C_3   0.090060 0.494833 0.775590 -0.206107
C35   C     C_R   0.352661 0.651249 0.837855 0.008031
C36   C     C_R   0.247000 0.541513 0.794532 -0.041582
C37   C     C_R   0.266574 0.531774 0.718100 0.007545
C38   C     C_3   0.703131 0.194182 0.282969 -0.140667
C39   C     C_3   0.892648 0.300285 0.433166 0.013168
C40   C     C_3   0.983465 0.327667 0.511699 -0.326692
C41   C     C_3   0.162577 0.729926 0.638912 -0.064811
C42   C     C_3   0.111252 0.487939 0.690712 0.162289
C43   C     C_R   0.394471 0.623998 0.684247 -0.009879
C44   C     C_1   0.776628 0.631866 0.712007 -0.049687
C45   C     C_1   0.822165 0.670334 0.777682 -0.057421
C46   C     C_1   0.363898 0.232917 0.714289 -0.050979
Cr1   Cr    Cr6+3 0.608440 0.389080 0.519680 1.023297
Cr2   Cr    Cr6+3 0.288640 0.400090 0.490760 0.991991
Cr3   Cr    Cr6+3 0.602940 0.710800 0.489510 0.990215
Cr4   Cr    Cr6+3 0.052530 0.947560 0.964210 1.015901
Cr5   Cr    Cr6+3 0.059970 0.626800 0.992920 1.005609
Cr6   Cr    Cr6+3 0.373320 0.938440 0.995370 1.017359
H1    H     H_    0.613505 0.782854 0.711504 0.139773
H2    H     H_    0.057539 0.576923 0.782103 0.173289
H3    H     H_    0.024833 0.387623 0.806478 0.111880
H4    H     H_    0.055161 0.376227 0.674498 0.126373
H5    H     H_    0.744989 0.813656 0.284964 0.145141
H6    H     H_    0.769389 0.822574 0.144781 0.125834
H7    H     H_    0.034923 0.481085 0.228787 0.125318
H8    H     H_    0.630746 0.103424 0.322349 0.154034
H9    H     H_    0.802759 0.184324 0.284074 0.103198
H10   H     H_    0.649739 0.182691 0.221361 0.132954
H11   H     H_    0.870885 0.193492 0.418684 0.110882
H12   H     H_    0.848364 0.402806 0.180303 0.125188
H13   H     H_    0.790488 0.295847 0.443377 0.206088
H14   H     H_    0.032473 0.443010 0.519453 0.236265
H15   H     H_    0.916230 0.263440 0.561009 0.067221
H16   H     H_    0.066253 0.293709 0.512443 0.195635
H17   H     H_    0.252233 0.772382 0.601173 0.162266
H18   H     H_    0.204828 0.758376 0.700728 0.103818
H19   H     H_    0.097055 0.785660 0.615238 0.154517
H20   H     H_    0.564943 0.424018 0.274588 0.161650
H21   H     H_    0.537295 0.336559 0.143308 0.120564
H22   H     H_    0.976843 0.030202 0.172469 0.153951
H23   H     H_    0.083793 0.223900 0.140917 0.141403
H24   H     H_    0.107949 0.275407 0.273805 0.156263
H25   H     H_    0.009194 0.079530 0.307270 0.146604
H26   H     H_    0.577508 0.808793 0.844229 0.144987
O1    O     O_R   0.754020 0.497590 0.609930 -0.465994
O2    O     O_R   0.406180 0.826930 0.920660 -0.519997
O3    O     O_R   0.358620 0.062870 0.901950 -0.494901
O4    O     O_R   0.481420 0.271390 0.600630 -0.492537
O5    O     O_R   0.163910 0.085460 0.050210 -0.520749
O6    O     O_R   0.935200 0.815170 0.045770 -0.502383
O7    O     O_R   0.916120 0.596690 0.069430 -0.531348
O8    O     O_R   0.192310 0.631200 0.086170 -0.506734
O9    O     O_R   0.406770 0.819480 0.096420 -0.514726
O10   O     O_R   0.359170 0.055960 0.064880 -0.500707
O11   O     O_3   0.161940 0.837600 0.984160 -0.244645
O12   O     O_R   0.295080 0.533620 0.397890 -0.480680
O13   O     O_R   0.263810 0.254550 0.589590 -0.529188
O14   O     O_R   0.300820 0.531200 0.560890 -0.507031
O15   O     O_R   0.491480 0.744020 0.564270 -0.512515
O16   O     O_R   0.726290 0.693800 0.583010 -0.507139
O17   O     O_R   0.747830 0.500190 0.434090 -0.501137
O18   O     O_R   0.475680 0.273800 0.437630 -0.474709
O19   O     O_R   0.257620 0.257160 0.413750 -0.515114
O20   O     O_3   0.725122 0.324542 0.308122 -0.591886
O21   O     O_3   0.965879 0.407755 0.372344 -0.559392
O22   O     O_3   0.075784 0.581450 0.632363 -0.552124
O23   O     O_R   0.485280 0.746620 0.388440 -0.520460
O24   O     O_R   0.720550 0.696220 0.420010 -0.511701
O25   O     O_3   0.500010 0.499990 0.499980 -0.330336
O26   O     O_R   0.163320 0.092900 0.874450 -0.511306
O27   O     O_R   0.934650 0.822080 0.882840 -0.494455
O28   O     O_R   0.915520 0.604140 0.893670 -0.519930
O29   O     O_R   0.191760 0.638110 0.923230 -0.504999

loop_
_geom_bond_atom_site_label_1
_geom_bond_atom_site_label_2
_ccdc_geom_bond_type
C28   O19   A    
C37   C43   A    
C8    C13   S    
C19   C20   A    
C34   C42   S    
C22   H24   S    
C38   O20   S    
Cr5   O7    S    
C14   C33   S    
Cr6   O11   S    
Cr4   O6    S    
C7    C8    A    
C2    C46   T    
C7    C11   S    
Cr2   O19   S    
C12   C23   A    
C18   C24   A    
C36   C37   A    
C10   H6    S    
C12   C43   A    
Cr3   O23   S    
C1    C46   S    
C27   O26   A    
C37   C42   S    
C31   O5    A    
Cr1   O4    S    
C13   O20   S    
C42   H4    S    
C32   O12   A    
C35   C36   A    
Cr2   O13   S    
C25   O28   A    
Cr4   O27   S    
Cr1   O18   S    
C2    C27   S    
Cr1   O1    S    
Cr3   O16   S    
C30   O8    A    
C9    C10   A    
C16   C44   S    
C29   O7    A    
C12   H1    S    
C41   H19   S    
C38   H9    S    
C4    O14   A    
C34   H3    S    
C1    O13   A    
Cr2   O12   S    
C21   C22   S    
C39   H13   S    
C19   H20   S    
Cr6   O3    S    
C11   H7    S    
C33   O17   A    
Cr5   O8    S    
Cr4   O5    S    
C15   C20   A    
Cr1   O25   S    
C25   O27   A    
C33   O24   A    
Cr6   O10   S    
C29   O6    A    
C11   H12   S    
Cr3   O24   S    
C1    O4    A    
Cr2   O25   S    
C21   H22   S    
C40   H15   S    
C26   O2    A    
C13   O21   S    
C9    C14   A    
C6    C10   A    
C42   O22   S    
Cr4   O11   S    
C39   O21   S    
C27   O3    A    
C17   C18   A    
C41   O22   S    
C38   H8    S    
C34   H2    S    
C23   C35   A    
Cr2   O14   S    
C25   C45   S    
C39   C40   S    
C44   C45   T    
C41   H17   S    
C5    C30   S    
C15   C17   A    
C8    C14   A    
C31   O10   A    
C18   C22   S    
Cr6   O9    S    
C24   C28   S    
C22   H25   S    
C3    C5    T    
C26   O29   A    
Cr3   O25   S    
C15   C31   S    
C6    C7    A    
C4    C43   S    
C39   H11   S    
C21   H23   S    
C16   O16   A    
C28   O18   A    
C16   O1    A    
C19   C24   A    
Cr5   O11   S    
C11   C13   S    
Cr5   O28   S    
C34   C36   S    
C20   H21   S    
C9    H5    S    
C23   H26   S    
C3    C32   S    
C17   C21   S    
C4    O15   A    
C26   C35   S    
C6    C29   S    
Cr5   O29   S    
C40   H16   S    
Cr1   O17   S    
C32   O23   A    
C40   H14   S    
Cr3   O15   S    
C30   O9    A    
Cr6   O2    S    
Cr4   O26   S    
C41   H18   S    
C38   H10   S    
