data_mof_unit_65447.cif
_audit_creation_date              2012-12-10T20:01:16-0500
_audit_creation_method            fapswitch 2.2
_symmetry_space_group_name_H-M    P1
_symmetry_Int_Tables_number       1
_space_group_crystal_system       triclinic
_cell_length_a                    32.126928
_cell_length_b                    32.124817
_cell_length_c                    23.56072
_cell_angle_alpha                 90.010842
_cell_angle_beta                  89.999879
_cell_angle_gamma                 89.925131
_cell_volume                      24316.3307423

loop_
_atom_site_label
_atom_site_type_symbol
_atom_type_description
_atom_site_fract_x
_atom_site_fract_y
_atom_site_fract_z
_atom_type_partial_charge
C1    C     C_R   0.000018 0.419343 0.499928 0.913142
C2    C     C_R   0.419361 0.000050 0.500023 0.913109
C3    C     C_R   0.999950 0.580638 0.499979 0.913088
C4    C     C_R   0.580658 0.999982 0.500073 0.913134
C5    C     C_R   0.500018 0.919341 0.999920 0.912906
C6    C     C_R   0.919363 0.500034 0.000093 0.913378
C7    C     C_R   0.499952 0.080638 0.999979 0.913110
C8    C     C_R   0.080658 0.499981 0.000076 0.913125
C9    C     C_1   0.999997 0.161890 0.500893 -0.054790
C10   C     C_1   0.161905 0.999394 0.499863 -0.058715
C11   C     C_1   0.000633 0.838096 0.500138 -0.058654
C12   C     C_1   0.838108 0.000022 0.499113 -0.054890
C13   C     C_1   0.499315 0.661882 0.000982 -0.055912
C14   C     C_1   0.661904 0.500181 0.999413 -0.056673
C15   C     C_1   0.500799 0.338100 0.000173 -0.058865
C16   C     C_1   0.338108 0.499978 0.999239 -0.054891
C17   C     C_1   0.000108 0.337991 0.497665 -0.059005
C18   C     C_1   0.338057 0.000859 0.500642 -0.055541
C19   C     C_1   0.999149 0.661942 0.499338 -0.055555
C20   C     C_1   0.662008 0.999876 0.502325 -0.058967
C21   C     C_1   0.499990 0.837982 0.997911 -0.057463
C22   C     C_1   0.838064 0.500444 0.001332 -0.057265
C23   C     C_1   0.499227 0.161945 0.999381 -0.055613
C24   C     C_1   0.162006 0.499857 0.002465 -0.059024
C25   C     C_1   0.000044 0.375223 0.498856 -0.204268
C26   C     C_1   0.375272 0.000313 0.500328 -0.202135
C27   C     C_1   0.999689 0.624727 0.499664 -0.202094
C28   C     C_1   0.624776 0.999953 0.501141 -0.204335
C29   C     C_1   0.500030 0.875216 0.998935 -0.202208
C30   C     C_1   0.875278 0.500171 0.000743 -0.202777
C31   C     C_1   0.499710 0.124729 0.999684 -0.202120
C32   C     C_1   0.124776 0.499947 0.001208 -0.204324
C33   C     C_1   0.000001 0.124681 0.500254 -0.203671
C34   C     C_1   0.124691 0.999660 0.499952 -0.207491
C35   C     C_1   0.000356 0.875309 0.500039 -0.207405
C36   C     C_1   0.875317 0.000007 0.499757 -0.203862
C37   C     C_1   0.499532 0.624674 0.000232 -0.204190
C38   C     C_1   0.624691 0.500210 0.999807 -0.207018
C39   C     C_1   0.500456 0.375313 0.000049 -0.208039
C40   C     C_1   0.375317 0.499979 0.999794 -0.203589
C41   C     C_R   0.000002 0.500014 0.390460 0.906624
C42   C     C_R   0.499958 0.000000 0.390458 0.907583
C43   C     C_R   0.999998 0.500043 0.609540 0.907586
C44   C     C_R   0.499987 0.000003 0.609541 0.906676
C45   C     C_R   0.500000 0.000017 0.890460 0.906845
C46   C     C_R   0.999982 0.500001 0.890458 0.907910
C47   C     C_R   0.499996 0.000037 0.109541 0.907789
C48   C     C_R   0.000007 0.500004 0.109541 0.906927
C49   C     C_R   0.080609 0.999968 0.499994 0.914109
C50   C     C_R   0.000036 0.919391 0.500001 0.914195
C51   C     C_R   0.919394 0.000006 0.499976 0.914294
C52   C     C_R   0.999994 0.080605 0.500028 0.914276
C53   C     C_R   0.580608 0.500109 0.999978 0.913937
C54   C     C_R   0.500058 0.419392 0.000003 0.914043
C55   C     C_R   0.419394 0.499999 0.999981 0.913794
C56   C     C_R   0.499876 0.580604 0.000022 0.914422
C57   C     C_1   0.000009 0.500030 0.330319 -0.196730
C58   C     C_1   0.499908 0.000018 0.330316 -0.195836
C59   C     C_1   0.999988 0.500090 0.669681 -0.195651
C60   C     C_1   0.499977 0.000013 0.669682 -0.196665
C61   C     C_1   0.499997 0.000033 0.830318 -0.196522
C62   C     C_1   0.999964 0.500022 0.830317 -0.195105
C63   C     C_1   0.499970 0.000080 0.169682 -0.195716
C64   C     C_1   0.000016 0.500015 0.169683 -0.195953
C65   C     C_1   0.000017 0.500035 0.279601 -0.000406
C66   C     C_1   0.499895 0.000058 0.279598 0.000358
C67   C     C_1   0.999971 0.500101 0.720399 0.000375
C68   C     C_1   0.499977 0.000025 0.720400 -0.000238
C69   C     C_1   0.499987 0.000035 0.779600 -0.000157
C70   C     C_1   0.999959 0.500067 0.779598 0.000705
C71   C     C_1   0.499926 0.000089 0.220400 0.000436
C72   C     C_1   0.000020 0.500027 0.220402 0.000008
C73   C     C_R   0.038198 0.227959 0.507668 0.048286
C74   C     C_R   0.228006 0.985744 0.548902 0.050250
C75   C     C_R   0.985837 0.772053 0.548583 0.050357
C76   C     C_R   0.772080 0.038134 0.506465 0.053697
C77   C     C_R   0.961789 0.227918 0.494580 0.053666
C78   C     C_R   0.772036 0.961930 0.491245 0.048259
C79   C     C_R   0.015043 0.771981 0.451516 0.050314
C80   C     C_R   0.227962 0.013436 0.451021 0.050366
C81   C     C_R   0.537663 0.727774 0.008056 0.058073
C82   C     C_R   0.727909 0.467002 0.026316 0.051768
C83   C     C_R   0.486102 0.272067 0.048688 0.050340
C84   C     C_R   0.272087 0.538072 0.006877 0.053721
C85   C     C_R   0.461174 0.728057 0.995747 0.050785
C86   C     C_R   0.272027 0.461891 0.991449 0.048240
C87   C     C_R   0.515248 0.271977 0.951594 0.050304
C88   C     C_R   0.728059 0.532914 0.972198 0.049460
C89   C     C_R   0.999958 0.206563 0.501687 0.033149
C90   C     C_R   0.206581 0.999291 0.499810 0.035400
C91   C     C_R   0.000739 0.793419 0.500206 0.035436
C92   C     C_R   0.793436 0.000073 0.498307 0.033257
C93   C     C_R   0.499310 0.706557 0.002185 0.035927
C94   C     C_R   0.706574 0.499951 0.999066 0.036488
C95   C     C_R   0.500963 0.293424 0.000283 0.035437
C96   C     C_R   0.293434 0.500025 0.998558 0.033212
C97   C     C_R   0.961976 0.271887 0.491690 0.049410
C98   C     C_R   0.271950 0.015271 0.451989 0.051461
C99   C     C_R   0.013245 0.727994 0.450526 0.051287
C100  C     C_R   0.728110 0.961419 0.496963 0.053987
C101  C     C_R   0.038629 0.271883 0.501911 0.053980
C102  C     C_R   0.728113 0.037906 0.509365 0.049330
C103  C     C_R   0.983997 0.728064 0.547562 0.051487
C104  C     C_R   0.271993 0.987548 0.549845 0.051326
C105  C     C_R   0.461512 0.772033 0.992993 0.052236
C106  C     C_R   0.772068 0.533651 0.974261 0.051019
C107  C     C_R   0.513413 0.227991 0.950599 0.051277
C108  C     C_R   0.228102 0.461384 0.997172 0.053970
C109  C     C_R   0.538222 0.771677 0.002189 0.048535
C110  C     C_R   0.228119 0.537852 0.009739 0.049356
C111  C     C_R   0.484238 0.228079 0.047672 0.051516
C112  C     C_R   0.771894 0.467875 0.028670 0.050148
C113  C     C_R   0.000280 0.293279 0.496357 0.037032
C114  C     C_R   0.293381 0.001459 0.500947 0.035984
C115  C     C_R   0.998563 0.706619 0.499013 0.036022
C116  C     C_R   0.706718 0.999680 0.503618 0.037082
C117  C     C_R   0.499963 0.793266 0.996950 0.031936
C118  C     C_R   0.793387 0.500793 0.001736 0.035881
C119  C     C_R   0.498726 0.206625 0.999089 0.036028
C120  C     C_R   0.206716 0.499644 0.003855 0.037048
O1    O     O_R   0.965560 0.438990 0.499980 -0.617960
O2    O     O_R   0.438990 0.034440 0.499980 -0.618555
O3    O     O_R   0.034440 0.561010 0.499980 -0.617858
O4    O     O_R   0.561010 0.965560 0.499980 -0.617688
O5    O     O_R   0.034440 0.438990 0.500020 -0.617731
O6    O     O_R   0.561010 0.034440 0.500020 -0.617960
O7    O     O_R   0.965560 0.561010 0.500020 -0.618518
O8    O     O_R   0.438990 0.965560 0.500020 -0.617859
O9    O     O_R   0.465560 0.938990 0.999980 -0.617962
O10   O     O_R   0.938990 0.534440 0.999980 -0.618747
O11   O     O_R   0.534440 0.061010 0.999980 -0.617812
O12   O     O_R   0.061010 0.465560 0.999980 -0.617647
O13   O     O_R   0.534440 0.938990 0.000020 -0.618659
O14   O     O_R   0.061010 0.534440 0.000020 -0.618029
O15   O     O_R   0.465560 0.061010 0.000020 -0.618574
O16   O     O_R   0.938990 0.465560 0.000020 -0.617703
O17   O     O_R   0.060930 0.999970 0.453240 -0.619329
O18   O     O_R   0.999970 0.939070 0.453240 -0.618913
O19   O     O_R   0.939070 0.000030 0.453240 -0.619088
O20   O     O_R   0.000030 0.060930 0.453240 -0.617388
O21   O     O_R   0.939070 0.999970 0.546760 -0.617460
O22   O     O_R   0.000030 0.939070 0.546760 -0.619354
O23   O     O_R   0.060930 0.000030 0.546760 -0.618903
O24   O     O_R   0.999970 0.060930 0.546760 -0.619135
O25   O     O_R   0.560930 0.499970 0.953240 -0.619697
O26   O     O_R   0.499970 0.439070 0.953240 -0.618650
O27   O     O_R   0.439070 0.500030 0.953240 -0.619037
O28   O     O_R   0.500030 0.560930 0.953240 -0.618304
O29   O     O_R   0.439070 0.499970 0.046760 -0.617795
O30   O     O_R   0.500030 0.439070 0.046760 -0.618853
O31   O     O_R   0.560930 0.500030 0.046760 -0.617838
O32   O     O_R   0.499970 0.560930 0.046760 -0.618751
O33   O     O_R   0.965560 0.499980 0.417220 -0.616786
O34   O     O_R   0.499980 0.034440 0.417220 -0.616748
O35   O     O_R   0.034440 0.500020 0.417220 -0.616063
O36   O     O_R   0.500020 0.965560 0.417220 -0.616525
O37   O     O_R   0.034440 0.499980 0.582780 -0.616368
O38   O     O_R   0.500020 0.034440 0.582780 -0.616997
O39   O     O_R   0.965560 0.500020 0.582780 -0.616818
O40   O     O_R   0.499980 0.965560 0.582780 -0.615796
O41   O     O_R   0.465560 0.999980 0.917220 -0.616731
O42   O     O_R   0.999980 0.534440 0.917220 -0.616351
O43   O     O_R   0.534440 0.000020 0.917220 -0.616530
O44   O     O_R   0.000020 0.465560 0.917220 -0.616641
O45   O     O_R   0.534440 0.999980 0.082780 -0.615764
O46   O     O_R   0.000020 0.534440 0.082780 -0.616920
O47   O     O_R   0.465560 0.000020 0.082780 -0.616954
O48   O     O_R   0.999980 0.465560 0.082780 -0.616630
Zn1   Zn    Zn3+2 0.954010 0.500000 0.500000 0.954643
Zn2   Zn    Zn3+2 0.500000 0.045990 0.500000 0.954437
Zn3   Zn    Zn3+2 0.045990 0.500000 0.500000 0.955519
Zn4   Zn    Zn3+2 0.500000 0.954010 0.500000 0.955621
Zn5   Zn    Zn3+2 0.454010 0.000000 0.000000 0.954353
Zn6   Zn    Zn3+2 0.000000 0.545990 0.000000 0.953557
Zn7   Zn    Zn3+2 0.545990 0.000000 0.000000 0.955275
Zn8   Zn    Zn3+2 0.000000 0.454010 0.000000 0.954815
Zn9   Zn    Zn3+2 0.000000 0.000000 0.437610 0.949261
Zn10  Zn    Zn3+2 0.000000 0.000000 0.562390 0.949157
Zn11  Zn    Zn3+2 0.500000 0.500000 0.937610 0.950278
Zn12  Zn    Zn3+2 0.500000 0.500000 0.062390 0.950535
C121  C     C_3   0.079288 0.296688 0.500425 -0.404855
C122  C     C_3   0.088655 0.312611 0.440208 -0.331696
C123  C     C_3   0.129839 0.336180 0.438306 -0.886031
H1    H     H_    0.128742 0.363428 0.467312 0.268027
H2    H     H_    0.155916 0.315414 0.450938 0.257385
H3    H     H_    0.135622 0.347467 0.394470 0.250346
H4    H     H_    0.090262 0.285981 0.410211 0.210900
H5    H     H_    0.063638 0.333775 0.425267 0.232689
H6    H     H_    0.077227 0.323311 0.530436 0.205755
H7    H     H_    0.106557 0.278608 0.514712 0.201753
C124  C     C_3   0.296614 0.975348 0.602746 -0.406853
C125  C     C_3   0.310584 0.929714 0.599738 -0.338104
C126  C     C_3   0.335270 0.917417 0.652461 -0.879761
H8    H     H_    0.363594 0.937013 0.656387 0.265441
H9    H     H_    0.315819 0.921184 0.691109 0.258545
H10   H     H_    0.344964 0.884320 0.649085 0.249914
H11   H     H_    0.283008 0.909060 0.596000 0.213432
H12   H     H_    0.330463 0.924781 0.561723 0.233345
H13   H     H_    0.324273 0.995774 0.607612 0.204886
H14   H     H_    0.278599 0.980949 0.642125 0.199382
C127  C     C_3   0.966050 0.703499 0.597336 -0.406266
C128  C     C_3   0.000604 0.689365 0.637980 -0.341104
C129  C     C_3   0.982864 0.664352 0.687402 -0.879221
H15   H     H_    0.960468 0.683590 0.711994 0.259302
H16   H     H_    0.966842 0.636040 0.671456 0.264184
H17   H     H_    0.008526 0.654600 0.716054 0.252133
H18   H     H_    0.023477 0.669657 0.614912 0.230577
H19   H     H_    0.017363 0.716884 0.655048 0.214606
H20   H     H_    0.942160 0.721606 0.620658 0.198591
H21   H     H_    0.948691 0.675915 0.581596 0.207348
C130  C     C_3   0.703524 0.077970 0.519218 -0.406797
C131  C     C_3   0.690123 0.097488 0.462663 -0.330941
C132  C     C_3   0.665854 0.137735 0.472191 -0.883794
H22   H     H_    0.637330 0.131504 0.497439 0.267274
H23   H     H_    0.685463 0.160825 0.494887 0.257126
H24   H     H_    0.656526 0.151076 0.430613 0.249457
H25   H     H_    0.717931 0.104363 0.436260 0.213380
H26   H     H_    0.670127 0.075358 0.438810 0.232366
H27   H     H_    0.675599 0.071673 0.545670 0.207295
H28   H     H_    0.721406 0.100758 0.544702 0.197610
C133  C     C_3   0.921776 0.296481 0.482996 -0.406850
C134  C     C_3   0.903108 0.309836 0.540108 -0.331041
C135  C     C_3   0.862726 0.334104 0.531751 -0.883468
H29   H     H_    0.868573 0.362650 0.506378 0.267289
H30   H     H_    0.839308 0.314505 0.509676 0.257111
H31   H     H_    0.850009 0.343398 0.573709 0.249590
H32   H     H_    0.896636 0.282004 0.566652 0.213432
H33   H     H_    0.925587 0.329821 0.563364 0.232305
H34   H     H_    0.927672 0.324430 0.456421 0.207351
H35   H     H_    0.898618 0.278615 0.458123 0.197488
C136  C     C_3   0.703296 0.920748 0.497213 -0.404970
C137  C     C_3   0.687316 0.910427 0.557113 -0.331682
C138  C     C_3   0.663773 0.869205 0.557763 -0.885483
H36   H     H_    0.636560 0.870737 0.528743 0.267968
H37   H     H_    0.684568 0.843342 0.544409 0.257357
H38   H     H_    0.652441 0.862730 0.601397 0.250517
H39   H     H_    0.713909 0.908369 0.587109 0.210856
H40   H     H_    0.666121 0.935191 0.572750 0.232876
H41   H     H_    0.676700 0.923290 0.467233 0.205634
H42   H     H_    0.721379 0.893706 0.482136 0.201880
C139  C     C_3   0.026270 0.703357 0.397993 -0.406773
C140  C     C_3   0.071842 0.689384 0.402324 -0.337757
C141  C     C_3   0.084968 0.664699 0.349962 -0.880420
H43   H     H_    0.065438 0.636375 0.345453 0.265532
H44   H     H_    0.081816 0.684154 0.311220 0.258491
H45   H     H_    0.118001 0.655002 0.354297 0.249762
H46   H     H_    0.092433 0.716961 0.406673 0.213362
H47   H     H_    0.076173 0.669502 0.440466 0.233389
H48   H     H_    0.005925 0.675695 0.392540 0.204913
H49   H     H_    0.021290 0.721364 0.358459 0.199379
C142  C     C_3   0.296532 0.032407 0.401701 -0.406255
C143  C     C_3   0.310652 0.997199 0.362088 -0.341086
C144  C     C_3   0.335722 0.014122 0.312190 -0.879435
H50   H     H_    0.316534 0.036155 0.286936 0.259229
H51   H     H_    0.364044 0.030352 0.327697 0.264275
H52   H     H_    0.345457 0.988000 0.284299 0.251985
H53   H     H_    0.330312 0.974668 0.385837 0.230621
H54   H     H_    0.283124 0.980208 0.345482 0.214547
H55   H     H_    0.278447 0.055930 0.377676 0.198563
H56   H     H_    0.324120 0.049999 0.416928 0.207277
C145  C     C_3   0.579045 0.795986 0.999921 -0.397315
C146  C     C_3   0.594607 0.807068 0.059555 -0.332177
C147  C     C_3   0.634076 0.833352 0.056856 -0.884559
H57   H     H_    0.659212 0.816036 0.034649 0.258218
H58   H     H_    0.627908 0.863020 0.034122 0.267193
H59   H     H_    0.644691 0.840710 0.100567 0.249686
H60   H     H_    0.570171 0.824857 0.082585 0.228080
H61   H     H_    0.601437 0.778356 0.083926 0.221351
H62   H     H_    0.603088 0.779012 0.975331 0.181838
H63   H     H_    0.575169 0.825127 0.975127 0.210816
C148  C     C_3   0.796403 0.434280 0.060117 -0.406004
C149  C     C_3   0.810341 0.399701 0.019380 -0.333488
C150  C     C_3   0.834670 0.365949 0.050639 -0.882181
H64   H     H_    0.862969 0.379384 0.070567 0.267121
H65   H     H_    0.814962 0.351472 0.083951 0.257408
H66   H     H_    0.844375 0.341435 0.020140 0.249071
H67   H     H_    0.782772 0.385346 0.998749 0.212370
H68   H     H_    0.830456 0.412950 0.985551 0.233312
H69   H     H_    0.824067 0.448083 0.081227 0.206054
H70   H     H_    0.778301 0.420908 0.095736 0.198696
C151  C     C_3   0.466374 0.203522 0.097506 -0.406410
C152  C     C_3   0.501008 0.189375 0.138014 -0.340864
C153  C     C_3   0.483366 0.164339 0.187476 -0.879373
H71   H     H_    0.461013 0.183564 0.212159 0.259198
H72   H     H_    0.467320 0.136031 0.171562 0.264285
H73   H     H_    0.509084 0.154580 0.216029 0.252162
H74   H     H_    0.523840 0.169680 0.114850 0.230586
H75   H     H_    0.517794 0.216893 0.155043 0.214732
H76   H     H_    0.442539 0.221637 0.120919 0.198541
H77   H     H_    0.448972 0.175947 0.081828 0.207356
C154  C     C_3   0.203537 0.577908 0.019670 -0.406842
C155  C     C_3   0.190252 0.597547 0.963145 -0.330809
C156  C     C_3   0.166004 0.637796 0.972744 -0.884130
H78   H     H_    0.137434 0.631541 0.997884 0.267257
H79   H     H_    0.185598 0.660823 0.995583 0.257115
H80   H     H_    0.156757 0.651225 0.931186 0.249446
H81   H     H_    0.218112 0.604448 0.936856 0.213445
H82   H     H_    0.170276 0.575479 0.939152 0.232331
H83   H     H_    0.175557 0.571575 0.045999 0.207285
H84   H     H_    0.221387 0.600627 0.045309 0.197489
C157  C     C_3   0.421312 0.796798 0.985206 -0.405311
C158  C     C_3   0.403385 0.810159 0.042752 -0.332617
C159  C     C_3   0.363065 0.834698 0.035348 -0.883613
H85   H     H_    0.368800 0.863264 0.009970 0.267373
H86   H     H_    0.339273 0.815297 0.013694 0.257139
H87   H     H_    0.350885 0.843978 0.077608 0.249296
H88   H     H_    0.397041 0.782308 0.069319 0.213186
H89   H     H_    0.426255 0.829954 0.065597 0.231635
H90   H     H_    0.426995 0.824746 0.958546 0.207998
H91   H     H_    0.397774 0.779061 0.960836 0.197399
C160  C     C_3   0.203280 0.420720 0.997416 -0.404902
C161  C     C_3   0.187288 0.410415 0.057315 -0.331638
C162  C     C_3   0.163717 0.369210 0.057965 -0.886013
H92   H     H_    0.136507 0.370762 0.028940 0.268026
H93   H     H_    0.184497 0.343334 0.044615 0.257387
H94   H     H_    0.152377 0.362747 0.101598 0.250299
H95   H     H_    0.213881 0.408339 0.087310 0.210836
H96   H     H_    0.166109 0.435196 0.072945 0.232807
H97   H     H_    0.176690 0.423265 0.967428 0.205688
H98   H     H_    0.221361 0.393670 0.982361 0.201825
C163  C     C_3   0.526410 0.203348 0.898062 -0.406799
C164  C     C_3   0.571963 0.189319 0.902401 -0.337798
C165  C     C_3   0.585061 0.164619 0.850040 -0.880384
H99   H     H_    0.565495 0.136319 0.845531 0.265506
H100  H     H_    0.581931 0.184079 0.811300 0.258531
H101  H     H_    0.618082 0.154882 0.854380 0.249768
H102  H     H_    0.592586 0.216872 0.906753 0.213280
H103  H     H_    0.576267 0.169430 0.940543 0.233403
H104  H     H_    0.506029 0.175714 0.892597 0.204859
H105  H     H_    0.521460 0.221369 0.858534 0.199407
C166  C     C_3   0.796823 0.569246 0.947735 -0.406735
C167  C     C_3   0.810610 0.558185 0.887229 -0.335980
C168  C     C_3   0.835558 0.593522 0.860598 -0.882490
H106  H     H_    0.816355 0.622252 0.858247 0.257841
H107  H     H_    0.863986 0.599827 0.886017 0.266788
H108  H     H_    0.845095 0.584636 0.816942 0.251156
H109  H     H_    0.830243 0.529684 0.887882 0.229591
H110  H     H_    0.782920 0.551807 0.860362 0.214290
H111  H     H_    0.778987 0.598778 0.947559 0.199092
H112  H     H_    0.824555 0.576520 0.974101 0.208964
C169  C     C_3   0.077672 0.203459 0.521942 -0.397854
C170  C     C_3   0.102729 0.192749 0.468478 -0.329029
C171  C     C_3   0.140905 0.166516 0.482981 -0.907980
H113  H     H_    0.161223 0.183377 0.513399 0.262279
H114  H     H_    0.131291 0.136334 0.501863 0.260698
H115  H     H_    0.159008 0.160222 0.443784 0.251870
H116  H     H_    0.082822 0.175060 0.438365 0.227661
H117  H     H_    0.113246 0.221609 0.447100 0.223401
H118  H     H_    0.096996 0.220199 0.553513 0.181963
H119  H     H_    0.069945 0.174129 0.544503 0.208236
C172  C     C_3   0.203419 0.969105 0.599495 -0.406824
C173  C     C_3   0.189345 0.004739 0.638412 -0.331401
C174  C     C_3   0.164771 0.988312 0.689060 -0.884386
H120  H     H_    0.136504 0.971604 0.674340 0.266356
H121  H     H_    0.184332 0.966819 0.714647 0.257748
H122  H     H_    0.154995 0.014743 0.716376 0.249056
H123  H     H_    0.216874 0.022131 0.654227 0.212929
H124  H     H_    0.169362 0.026812 0.614361 0.231805
H125  H     H_    0.175822 0.951359 0.584643 0.205697
H126  H     H_    0.221492 0.945849 0.623998 0.198254
C175  C     C_3   0.972652 0.796728 0.601017 -0.402940
C176  C     C_3   0.927363 0.811475 0.595896 -0.339595
C177  C     C_3   0.914301 0.836737 0.647781 -0.886469
H127  H     H_    0.916923 0.817515 0.686808 0.258743
H128  H     H_    0.934247 0.864780 0.652120 0.268079
H129  H     H_    0.881462 0.846949 0.643012 0.248769
H130  H     H_    0.923659 0.831194 0.557489 0.232507
H131  H     H_    0.906335 0.784227 0.591579 0.214113
H132  H     H_    0.976870 0.778562 0.640570 0.197781
H133  H     H_    0.993426 0.824014 0.606979 0.208183
C178  C     C_3   0.796754 0.078651 0.510937 -0.408339
C179  C     C_3   0.810360 0.086780 0.572375 -0.330193
C180  C     C_3   0.836956 0.125974 0.576714 -0.898990
H134  H     H_    0.866381 0.121833 0.552653 0.261434
H135  H     H_    0.819797 0.153317 0.559745 0.261670
H136  H     H_    0.844815 0.131973 0.621864 0.251135
H137  H     H_    0.782543 0.090439 0.599938 0.213031
H138  H     H_    0.828750 0.059945 0.588486 0.232165
H139  H     H_    0.824563 0.077434 0.482961 0.205434
H140  H     H_    0.778926 0.105610 0.494460 0.199351
C181  C     C_3   0.921224 0.203235 0.491155 -0.408290
C182  C     C_3   0.912240 0.189666 0.429920 -0.329914
C183  C     C_3   0.873178 0.162802 0.426634 -0.899529
H141  H     H_    0.877947 0.133331 0.450366 0.261179
H142  H     H_    0.846005 0.179704 0.444572 0.261943
H143  H     H_    0.866484 0.155042 0.381632 0.251168
H144  H     H_    0.907967 0.217504 0.402566 0.212928
H145  H     H_    0.938941 0.171483 0.412966 0.232093
H146  H     H_    0.922839 0.175408 0.519063 0.205496
H147  H     H_    0.894496 0.221045 0.508359 0.199112
C184  C     C_3   0.796526 0.922673 0.475841 -0.397624
C185  C     C_3   0.807133 0.896736 0.528550 -0.329424
C186  C     C_3   0.833205 0.858687 0.512911 -0.908093
H148  H     H_    0.816285 0.838951 0.481845 0.262430
H149  H     H_    0.863449 0.868472 0.494381 0.260805
H150  H     H_    0.839368 0.839906 0.551544 0.251839
H151  H     H_    0.824902 0.916095 0.559237 0.227533
H152  H     H_    0.778239 0.885997 0.549628 0.223558
H153  H     H_    0.779809 0.903887 0.443646 0.182060
H154  H     H_    0.825899 0.930726 0.453598 0.208332
C187  C     C_3   0.032475 0.796557 0.401412 -0.406969
C188  C     C_3   0.997464 0.810626 0.361470 -0.331281
C189  C     C_3   0.014685 0.835187 0.311305 -0.884512
H155  H     H_    0.031160 0.863458 0.326501 0.266303
H156  H     H_    0.036570 0.815617 0.286348 0.257720
H157  H     H_    0.988692 0.844961 0.283229 0.249094
H158  H     H_    0.980321 0.783094 0.345159 0.212967
H159  H     H_    0.975022 0.830619 0.384873 0.231910
H160  H     H_    0.049985 0.824158 0.416769 0.205586
H161  H     H_    0.056106 0.778474 0.377589 0.198256
C190  C     C_3   0.203304 0.025835 0.398230 -0.403071
C191  C     C_3   0.188620 0.071217 0.402061 -0.339375
C192  C     C_3   0.163410 0.083515 0.349796 -0.886189
H162  H     H_    0.182646 0.080257 0.310867 0.258706
H163  H     H_    0.135337 0.063552 0.346007 0.268103
H164  H     H_    0.153254 0.116440 0.353621 0.248577
H165  H     H_    0.168887 0.075538 0.440341 0.232435
H166  H     H_    0.215895 0.092270 0.405803 0.214197
H167  H     H_    0.221464 0.020975 0.358803 0.197742
H168  H     H_    0.175991 0.005011 0.392869 0.208159
C193  C     C_3   0.577039 0.702728 0.021569 -0.412724
C194  C     C_3   0.576504 0.686649 0.083076 -0.327560
C195  C     C_3   0.614749 0.660013 0.095721 -0.900294
H169  H     H_    0.615134 0.632170 0.067774 0.267950
H170  H     H_    0.643668 0.678284 0.089039 0.259795
H171  H     H_    0.613810 0.649453 0.140572 0.252127
H172  H     H_    0.575805 0.713362 0.112977 0.210760
H173  H     H_    0.548366 0.667587 0.091240 0.234283
H174  H     H_    0.579671 0.676189 0.991502 0.207063
H175  H     H_    0.606042 0.720600 0.015930 0.199458
C196  C     C_3   0.703226 0.430980 0.051859 -0.408881
C197  C     C_3   0.688976 0.441256 0.112418 -0.332083
C198  C     C_3   0.664079 0.405449 0.137949 -0.887280
H176  H     H_    0.635860 0.399266 0.112040 0.264202
H177  H     H_    0.683449 0.376814 0.139900 0.258097
H178  H     H_    0.654200 0.413750 0.181675 0.250124
H179  H     H_    0.716439 0.447499 0.139769 0.213463
H180  H     H_    0.669163 0.469636 0.112133 0.233561
H181  H     H_    0.675707 0.423819 0.025022 0.203428
H182  H     H_    0.721272 0.401566 0.051570 0.198719
C199  C     C_3   0.472970 0.296754 0.101133 -0.402662
C200  C     C_3   0.427664 0.311468 0.096102 -0.339771
C201  C     C_3   0.414659 0.336766 0.147978 -0.886139
H183  H     H_    0.417352 0.317580 0.187029 0.258780
H184  H     H_    0.434592 0.364828 0.152216 0.268181
H185  H     H_    0.381806 0.346949 0.143275 0.248720
H186  H     H_    0.423893 0.331151 0.057673 0.232531
H187  H     H_    0.406648 0.284201 0.091883 0.214068
H188  H     H_    0.477256 0.278605 0.140687 0.197778
H189  H     H_    0.493733 0.324057 0.107023 0.208337
C202  C     C_3   0.296778 0.578559 0.011641 -0.408370
C203  C     C_3   0.310314 0.586466 0.073164 -0.329808
C204  C     C_3   0.337123 0.625497 0.077781 -0.899964
H190  H     H_    0.366624 0.621196 0.053945 0.261292
H191  H     H_    0.320197 0.652958 0.060732 0.261984
H192  H     H_    0.344832 0.631401 0.123004 0.250889
H193  H     H_    0.282460 0.590213 0.100636 0.212903
H194  H     H_    0.328523 0.559489 0.089226 0.232073
H195  H     H_    0.324616 0.577414 0.983717 0.205398
H196  H     H_    0.278992 0.605588 0.995294 0.199350
C205  C     C_3   0.420515 0.703515 0.992741 -0.409537
C206  C     C_3   0.410923 0.690389 0.931497 -0.328293
C207  C     C_3   0.371672 0.663787 0.928506 -0.900327
H197  H     H_    0.376472 0.634131 0.951787 0.261495
H198  H     H_    0.344759 0.680728 0.947088 0.261904
H199  H     H_    0.364542 0.656370 0.883521 0.251236
H200  H     H_    0.406594 0.718415 0.904519 0.213289
H201  H     H_    0.437370 0.672148 0.913929 0.232311
H202  H     H_    0.422314 0.675483 0.020244 0.205094
H203  H     H_    0.394022 0.721297 0.010670 0.199125
C208  C     C_3   0.296514 0.422633 0.976049 -0.397646
C209  C     C_3   0.307155 0.396734 0.028780 -0.329405
C210  C     C_3   0.333289 0.358720 0.013179 -0.908065
H204  H     H_    0.316395 0.338934 0.982146 0.262379
H205  H     H_    0.363512 0.368546 0.994623 0.260837
H206  H     H_    0.339496 0.339980 0.051836 0.251812
H207  H     H_    0.324890 0.416133 0.059456 0.227533
H208  H     H_    0.278270 0.385963 0.049855 0.223492
H209  H     H_    0.279787 0.403822 0.943891 0.182007
H210  H     H_    0.325871 0.430684 0.953766 0.208362
C211  C     C_3   0.532694 0.296543 0.901494 -0.407096
C212  C     C_3   0.497694 0.310617 0.861539 -0.331402
C213  C     C_3   0.514935 0.335153 0.811366 -0.883861
H211  H     H_    0.531425 0.363418 0.826552 0.266475
H212  H     H_    0.536813 0.315561 0.786426 0.257744
H213  H     H_    0.488951 0.344933 0.783280 0.249096
H214  H     H_    0.480539 0.283088 0.845239 0.212924
H215  H     H_    0.475259 0.330628 0.884924 0.231968
H216  H     H_    0.550205 0.324143 0.916857 0.205316
H217  H     H_    0.556327 0.278449 0.877691 0.198231
C214  C     C_3   0.703585 0.566706 0.941079 -0.403405
C215  C     C_3   0.691035 0.601842 0.981763 -0.331230
C216  C     C_3   0.667593 0.636272 0.950599 -0.912841
H218  H     H_    0.686973 0.649071 0.915694 0.262988
H219  H     H_    0.638011 0.624031 0.932825 0.264414
H220  H     H_    0.660260 0.661878 0.980598 0.253438
H221  H     H_    0.670785 0.589259 0.015911 0.226525
H222  H     H_    0.719159 0.615403 0.001984 0.215938
H223  H     H_    0.721361 0.579380 0.904678 0.198722
H224  H     H_    0.675267 0.553399 0.921039 0.207453

loop_
_geom_bond_atom_site_label_1
_geom_bond_atom_site_label_2
_ccdc_geom_bond_type
C181  H147  S    
C1    C25   S    
C82   C94   A    
C101  C113  A    
C108  C120  A    
C154  C155  S    
C208  H210  S    
C42   C58   S    
C135  H31   S    
C143  H54   S    
C159  H86   S    
C176  H131  S    
C157  C158  S    
O10   Zn6   S    
C210  H206  S    
C130  H28   S    
C129  H16   S    
C73   C169  S    
C152  C153  S    
C52   O24   A    
C46   C62   S    
O15   Zn5   S    
C79   C99   A    
C189  H156  S    
C170  H116  S    
C98   C142  S    
C47   O45   A    
C98   C114  A    
C212  H214  S    
C158  H89   S    
C150  H66   S    
C163  H104  S    
C179  C180  S    
C62   C70   T    
C80   C190  S    
C147  H58   S    
O23   Zn10  S    
C215  H222  S    
C88   C214  S    
C45   O41   A    
C209  H207  S    
C21   C117  S    
C37   C56   S    
C135  H29   S    
C149  C150  S    
O2    Zn2   S    
C18   C26   T    
C141  H43   S    
C125  H12   S    
C5    C29   S    
C187  H160  S    
C148  H69   S    
C205  H202  S    
C192  H163  S    
C106  C118  A    
C75   C103  A    
O9    Zn5   S    
C155  H81   S    
C174  H121  S    
C3    O3    A    
C195  H171  S    
C132  H23   S    
O46   Zn6   S    
C128  C129  S    
C207  H197  S    
C175  H133  S    
C142  C143  S    
C139  H48   S    
C82   C196  S    
C180  H136  S    
C170  C171  S    
C20   C28   T    
C108  C160  S    
C106  C166  S    
C168  H106  S    
C21   C29   T    
C23   C31   T    
O32   Zn12  S    
C204  H192  S    
C42   O36   A    
C123  H1    S    
C103  C127  S    
C142  H56   S    
C14   C38   T    
C121  H7    S    
C159  H85   S    
O4    Zn4   S    
C198  H178  S    
C77   C89   A    
C160  H98   S    
O25   Zn11  S    
O40   Zn4   S    
C2    C26   S    
C105  C157  S    
C124  H14   S    
C15   C39   T    
C16   C40   T    
C188  H159  S    
C197  C198  S    
C6    C30   S    
C63   C71   T    
O28   Zn11  S    
C216  H219  S    
C181  C182  S    
C110  C120  A    
C183  H141  S    
C20   C116  S    
C168  H108  S    
C175  H132  S    
C22   C118  S    
C86   C208  S    
C149  H68   S    
O14   Zn6   S    
C86   C108  A    
C199  H188  S    
C190  H167  S    
C50   O18   A    
C186  H148  S    
C60   C68   T    
C211  H216  S    
C74   C90   A    
C11   C35   T    
C45   O43   A    
C17   C25   T    
O37   Zn3   S    
C47   C63   S    
C166  H111  S    
C38   C53   S    
C134  H32   S    
C200  H187  S    
O5    Zn3   S    
C201  H184  S    
C73   C89   A    
O27   Zn11  S    
C213  H213  S    
C87   C107  A    
C131  C132  S    
C163  C164  S    
C148  C149  S    
C143  C144  S    
C110  C154  S    
O16   Zn8   S    
C99   C139  S    
C193  C194  S    
C49   O17   A    
C172  C173  S    
C6    O10   A    
O43   Zn7   S    
C193  H175  S    
C187  C188  S    
O31   Zn12  S    
C17   C113  S    
C54   O30   A    
C205  C206  S    
C33   C52   S    
C197  H180  S    
O34   Zn2   S    
C185  H151  S    
O19   Zn9   S    
C191  C192  S    
C42   O34   A    
C43   O39   A    
C23   C119  S    
C144  H50   S    
C102  C130  S    
C162  H93   S    
C39   C54   S    
C202  H195  S    
C176  C177  S    
C193  H174  S    
C47   O47   A    
C161  C162  S    
C4    O4    A    
C111  C119  A    
C139  C140  S    
C45   C61   S    
C59   C67   T    
C122  C123  S    
C85   C93   A    
C206  H200  S    
C164  H103  S    
C196  C197  S    
C87   C95   A    
C133  H35   S    
C77   C97   A    
C19   C115  S    
C138  H36   S    
C145  H62   S    
C75   C91   A    
C141  H45   S    
C191  H166  S    
C152  H74   S    
C153  H73   S    
C112  C148  S    
C127  H20   S    
C55   O29   A    
C168  H107  S    
C41   O33   A    
C51   O21   A    
C76   C102  A    
C186  H150  S    
C88   C94   A    
C16   C96   S    
C178  H139  S    
C179  H137  S    
C8    O14   A    
C107  C163  S    
C209  C210  S    
C123  H3    S    
C146  H60   S    
O38   Zn2   S    
C78   C92   A    
O36   Zn4   S    
C140  H47   S    
C136  H42   S    
C165  H100  S    
C156  H78   S    
O6    Zn2   S    
C11   C91   S    
C169  H119  S    
C213  H211  S    
C126  H10   S    
C211  C212  S    
C79   C187  S    
C122  H5    S    
C154  H84   S    
O13   Zn7   S    
C214  H223  S    
C157  H91   S    
C126  H8    S    
C128  H18   S    
C171  H114  S    
C194  C195  S    
C177  H129  S    
C161  H96   S    
C84   C202  S    
C133  H34   S    
C182  C183  S    
C101  C121  S    
C172  H126  S    
C196  H181  S    
C188  C189  S    
C181  H146  S    
O48   Zn8   S    
C34   C49   S    
C22   C30   T    
C12   C92   S    
C100  C136  S    
C203  C204  S    
C87   C211  S    
C208  H209  S    
C167  H109  S    
C144  H52   S    
C135  H30   S    
C146  C147  S    
C190  H168  S    
O7    Zn1   S    
C65   C72   S    
C130  H27   S    
C54   O26   A    
C67   C70   S    
C3    C27   S    
C183  H143  S    
C170  H117  S    
C137  H39   S    
C182  H144  S    
C212  H215  S    
C73   C101  A    
C150  H65   S    
C138  H38   S    
C1    O1    A    
C202  C203  S    
C153  H71   S    
C53   O31   A    
C200  C201  S    
O18   Zn9   S    
C50   O22   A    
C41   O35   A    
C51   O19   A    
C192  H162  S    
C44   O38   A    
C155  H82   S    
C100  C116  A    
C160  C161  S    
C174  H120  S    
C109  C117  A    
C147  H57   S    
C195  H170  S    
C121  C122  S    
C194  H173  S    
C74   C104  A    
C81   C93   A    
C75   C175  S    
C156  H80   S    
C173  H124  S    
C180  H135  S    
C15   C95   S    
C48   C64   S    
C131  H25   S    
C178  C179  S    
C77   C181  S    
C215  C216  S    
O12   Zn8   S    
C204  H191  S    
C142  H55   S    
C121  H6    S    
C74   C172  S    
C68   C69   S    
C198  H177  S    
C160  H97   S    
C207  H199  S    
C177  H127  S    
C56   O32   A    
C7    O11   A    
C151  H77   S    
O47   Zn5   S    
C5    O9    A    
C164  C165  S    
C216  H218  S    
C9    C33   T    
C111  C151  S    
C105  C117  A    
C107  C119  A    
C143  H53   S    
C159  H87   S    
C176  H130  S    
C2    O2    A    
C129  H17   S    
C24   C120  S    
C189  H157  S    
C9    C89   S    
C81   C193  S    
C206  C207  S    
C83   C199  S    
C43   O37   A    
C104  C124  S    
C158  H88   S    
O29   Zn12  S    
C163  H105  S    
C124  C125  S    
C13   C93   S    
C82   C112  A    
C215  H221  S    
C5    O13   A    
C166  C167  S    
O41   Zn5   S    
C130  C131  S    
C132  H22   S    
C124  H13   S    
C53   O25   A    
C140  C141  S    
C85   C205  S    
C125  H11   S    
C86   C96   A    
C187  H161  S    
C148  H70   S    
C213  H212  S    
C81   C109  A    
C205  H203  S    
C192  H164  S    
C78   C100  A    
C44   O40   A    
C83   C111  A    
C210  H205  S    
C109  C145  S    
C174  H122  S    
O30   Zn12  S    
C78   C184  S    
C132  H24   S    
O39   Zn1   S    
C80   C98   A    
C139  H49   S    
C57   C65   T    
C185  C186  S    
C4    O6    A    
C41   C57   S    
O21   Zn10  S    
C162  H92   S    
C145  C146  S    
C44   C60   S    
C49   O23   A    
C99   C115  A    
O11   Zn7   S    
C137  C138  S    
C52   O20   A    
O26   Zn11  S    
O44   Zn8   S    
C188  H158  S    
C206  H201  S    
C48   O46   A    
C10   C90   S    
C212  C213  S    
C216  H220  S    
O33   Zn1   S    
C190  C191  S    
C203  H193  S    
C14   C94   S    
O3    Zn3   S    
C2    O8    A    
C147  H59   S    
O1    Zn1   S    
C171  H113  S    
C152  H75   S    
C149  H67   S    
C153  H72   S    
C127  C128  S    
C103  C115  A    
C189  H155  S    
C199  H189  S    
C208  C209  S    
C18   C114  S    
C24   C32   T    
C184  C185  S    
O22   Zn10  S    
C169  C170  S    
C186  H149  S    
C179  H138  S    
C211  H217  S    
C155  C156  S    
C1    O5    A    
C123  H2    S    
C146  H61   S    
C3    O7    A    
C166  H112  S    
C136  H41   S    
C84   C96   A    
C200  H186  S    
C201  H185  S    
C185  H152  S    
C169  H118  S    
C58   C66   T    
C66   C71   S    
C141  H44   S    
C8    O12   A    
C6    O16   A    
C214  C215  S    
C134  H33   S    
C12   C36   T    
C154  H83   S    
C13   C37   T    
C40   C55   S    
C157  H90   S    
C46   O44   A    
C173  H123  S    
C173  C174  S    
C137  H40   S    
C177  H128  S    
C134  C135  S    
C85   C105  A    
C167  C168  S    
C4    C28   S    
C172  H125  S    
O20   Zn9   S    
C209  H208  S    
C197  H179  S    
C7    C31   S    
C8    C32   S    
C210  H204  S    
C167  H110  S    
C195  H169  S    
C144  H51   S    
C162  H94   S    
C202  H196  S    
C126  H9    S    
C151  C152  S    
C84   C110  A    
C56   O28   A    
C183  H142  S    
C7    O15   A    
C133  C134  S    
C88   C106  A    
C55   O27   A    
C164  H102  S    
C48   O48   A    
C182  H145  S    
C83   C95   A    
C35   C50   S    
C150  H64   S    
C10   C34   T    
C138  H37   S    
C145  H63   S    
C36   C51   S    
C76   C92   A    
C104  C114  A    
C191  H165  S    
O8    Zn4   S    
C97   C113  A    
C127  H21   S    
C76   C178  S    
C19   C27   T    
C61   C69   T    
C158  C159  S    
C184  H154  S    
C178  H140  S    
C79   C91   A    
O24   Zn10  S    
O42   Zn6   S    
C43   C59   S    
C184  H153  S    
O45   Zn7   S    
C175  C176  S    
C140  H46   S    
C165  H101  S    
C125  C126  S    
C201  H183  S    
C156  H79   S    
C180  H134  S    
C112  C118  A    
C199  C200  S    
C131  H26   S    
C97   C133  S    
C165  H99   S    
C122  H4    S    
C64   C72   T    
C80   C90   A    
C204  H190  S    
C214  H224  S    
C102  C116  A    
O35   Zn3   S    
C194  H172  S    
O17   Zn9   S    
C198  H176  S    
C46   O42   A    
C171  H115  S    
C136  C137  S    
C207  H198  S    
C161  H95   S    
C128  H19   S    
C129  H15   S    
C203  H194  S    
C151  H76   S    
C196  H182  S    
