data_mof_unit_42904.cif
_audit_creation_date              2012-12-11T15:35:52-0500
_audit_creation_method            fapswitch 2.2
_symmetry_space_group_name_H-M    P1
_symmetry_Int_Tables_number       1
_space_group_crystal_system       triclinic
_cell_length_a                    7.127636
_cell_length_b                    12.003657
_cell_length_c                    35.732337
_cell_angle_alpha                 90.000156
_cell_angle_beta                  89.794022
_cell_angle_gamma                 90.00007
_cell_volume                      3057.15673404

loop_
_atom_site_label
_atom_site_type_symbol
_atom_type_description
_atom_site_fract_x
_atom_site_fract_y
_atom_site_fract_z
_atom_type_partial_charge
O1    O     O_R   0.379730 0.148600 0.662710 -0.544403
O2    O     O_R   0.620270 0.851400 0.337290 -0.548180
O3    O     O_R   0.120270 0.648600 0.337290 -0.544395
O4    O     O_R   0.879730 0.351400 0.662710 -0.548172
O5    O     O_R   0.722480 0.134490 0.741330 -0.514660
O6    O     O_R   0.277520 0.865510 0.258670 -0.518963
O7    O     O_R   0.777520 0.634490 0.258670 -0.514672
O8    O     O_R   0.222480 0.365510 0.741330 -0.518973
O9    O     O_R   0.892880 0.345890 0.741600 -0.520690
O10   O     O_R   0.107120 0.654110 0.258400 -0.521885
O11   O     O_R   0.607120 0.845890 0.258400 -0.520695
O12   O     O_R   0.392880 0.154110 0.741600 -0.521887
C1    C     C_R   0.553620 0.116245 0.755414 0.813847
C2    C     C_R   0.448948 0.892969 0.247791 0.824004
C3    C     C_R   0.946379 0.616248 0.244586 0.813853
C4    C     C_R   0.051052 0.392972 0.752208 0.824002
O13   O     O_R   0.709490 0.135560 0.662990 -0.540480
O14   O     O_R   0.290510 0.864440 0.337010 -0.542570
O15   O     O_R   0.790510 0.635560 0.337010 -0.540495
O16   O     O_R   0.209490 0.364440 0.662990 -0.542586
C5    C     C_R   0.541197 0.107829 0.651262 0.729010
C6    C     C_R   0.458791 0.892124 0.348760 0.713615
C7    C     C_R   0.958803 0.607829 0.348738 0.729019
C8    C     C_R   0.041208 0.392123 0.651240 0.713617
O17   O     O_3   0.552800 0.316610 0.702160 -0.374647
O18   O     O_3   0.447200 0.683390 0.297840 -0.370323
O19   O     O_3   0.947200 0.816610 0.297840 -0.374638
O20   O     O_3   0.052800 0.183390 0.702160 -0.370315
V1    V     V_3+5 0.827630 0.234380 0.702160 1.569225
V2    V     V_3+5 0.172370 0.765620 0.297840 1.564455
V3    V     V_3+5 0.672370 0.734380 0.297840 1.569187
V4    V     V_3+5 0.327630 0.265620 0.702160 1.564418
C9    C     C_R   0.046755 0.718356 0.896715 0.614451
C10   C     C_R   0.011341 0.405793 0.067452 0.567201
C11   C     C_R   0.453244 0.218344 0.103283 0.614440
C12   C     C_R   0.488662 0.905773 0.932543 0.567197
O21   O     O_2   0.042351 0.609542 0.904682 -0.564452
O22   O     O_2   0.076211 0.509185 0.062843 -0.562183
O23   O     O_2   0.457633 0.109528 0.095317 -0.564449
O24   O     O_2   0.423791 0.009165 0.937152 -0.562180
N1    N     N_R   0.063718 0.752061 0.860153 -0.513862
N2    N     N_R   0.946799 0.371047 0.102106 -0.526476
N3    N     N_R   0.436293 0.252051 0.139846 -0.513863
N4    N     N_R   0.553206 0.871026 0.897890 -0.526480
C13   C     C_R   0.065601 0.864596 0.852633 0.574125
C14   C     C_R   0.884824 0.262879 0.104863 0.509507
C15   C     C_R   0.434420 0.364586 0.147365 0.574146
C16   C     C_R   0.615180 0.762858 0.895133 0.509515
C17   C     C_R   0.942963 0.668252 0.800443 -0.043171
C18   C     C_R   0.021418 0.392027 0.170354 -0.115766
C19   C     C_R   0.557068 0.168238 0.199552 -0.043193
C20   C     C_R   0.478599 0.892010 0.829641 -0.115762
C21   C     C_R   0.931536 0.578284 0.775233 -0.221835
C22   C     C_R   0.023478 0.448996 0.204689 -0.179825
C23   C     C_R   0.568491 0.078270 0.224763 -0.221841
C24   C     C_R   0.476536 0.948984 0.795307 -0.179814
C25   C     C_R   0.158164 0.475863 0.811572 0.270960
C26   C     C_R   0.877633 0.607255 0.175301 0.266819
C27   C     C_R   0.341816 0.975864 0.188429 0.270954
C28   C     C_R   0.622356 0.107245 0.824698 0.266804
C29   C     C_R   0.187213 0.570071 0.833902 0.092826
C30   C     C_R   0.884134 0.552273 0.139813 0.102344
C31   C     C_R   0.312775 0.070072 0.166099 0.092824
C32   C     C_R   0.615867 0.052256 0.860185 0.102339
C33   C     C_R   0.070555 0.666358 0.830573 0.305311
C34   C     C_R   0.953334 0.440270 0.136765 0.283866
C35   C     C_R   0.429456 0.166351 0.169425 0.305322
C36   C     C_R   0.546676 0.940251 0.863231 0.283857
C37   C     C_R   0.037495 0.908872 0.919461 -0.027907
C38   C     C_R   0.968783 0.221359 0.039807 -0.030553
C39   C     C_R   0.462518 0.408860 0.080537 -0.027917
C40   C     C_R   0.531224 0.721341 0.960190 -0.030559
C41   C     C_R   0.027453 0.794769 0.926262 -0.095879
C42   C     C_R   0.015362 0.333357 0.035872 -0.063082
C43   C     C_R   0.472548 0.294755 0.073736 -0.095873
C44   C     C_R   0.484642 0.833333 0.964124 -0.063084
C45   C     C_R   0.001740 0.756877 0.962559 -0.147775
C46   C     C_R   0.060107 0.372283 0.000209 -0.117670
C47   C     C_R   0.498255 0.256861 0.037439 -0.147767
C48   C     C_R   0.439898 0.872267 0.999787 -0.117662
C49   C     C_R   0.068177 0.943755 0.882368 -0.033552
C50   C     C_R   0.899598 0.186751 0.074592 -0.025720
C51   C     C_R   0.431845 0.443744 0.117630 -0.033556
C52   C     C_R   0.600407 0.686731 0.925405 -0.025719
C53   C     C_R   0.040059 0.481838 0.780689 -0.105771
C54   C     C_R   0.951039 0.556523 0.207741 -0.121299
C55   C     C_R   0.459941 0.981833 0.219310 -0.105746
C56   C     C_R   0.548960 0.056515 0.792257 -0.121294
H1    H     H_    0.998431 0.667887 0.967864 0.170747
H2    H     H_    0.085949 0.460623 0.996418 0.159771
H3    H     H_    0.501554 0.167872 0.032134 0.170744
H4    H     H_    0.414057 0.960606 0.003578 0.159771
C57   C     C_R   0.947984 0.029601 0.015255 0.050100
C58   C     C_R   0.059726 0.102690 0.942818 0.053957
C59   C     C_R   0.552031 0.529585 0.984743 0.050097
C60   C     C_R   0.440294 0.602677 0.057180 0.053974
C61   C     C_R   0.040173 0.183245 0.972795 -0.001176
C62   C     C_R   0.981663 0.948558 0.986563 0.012767
C63   C     C_R   0.459841 0.683230 0.027202 -0.001172
C64   C     C_R   0.518351 0.448543 0.013435 0.012769
C65   C     C_R   0.988331 0.144317 0.009141 0.034321
C66   C     C_R   0.023577 0.987292 0.949735 0.046995
C67   C     C_R   0.511680 0.644300 0.990856 0.034321
C68   C     C_R   0.476438 0.487279 0.050263 0.046986
C69   C     C_R   0.863134 0.001310 0.049540 -0.207816
C70   C     C_R   0.125639 0.129791 0.906267 -0.108496
C71   C     C_R   0.636885 0.501292 0.950458 -0.207827
C72   C     C_R   0.374393 0.629782 0.093732 -0.108500
C73   C     C_R   0.844833 0.076135 0.078738 -0.111660
C74   C     C_R   0.115867 0.054904 0.876334 -0.098443
C75   C     C_R   0.655175 0.576115 0.921260 -0.111637
C76   C     C_R   0.384167 0.554896 0.123664 -0.098464
O25   O     O_2   0.815073 0.225607 0.137529 -0.557582
O26   O     O_2   0.068893 0.900545 0.816915 -0.530977
O27   O     O_2   0.684934 0.725585 0.862467 -0.557571
O28   O     O_2   0.431137 0.400536 0.183083 -0.530978
C77   C     C_R   0.982242 0.829707 0.992661 0.161309
C78   C     C_R   0.058727 0.302023 0.968569 0.106501
C79   C     C_R   0.517764 0.329692 0.007337 0.161310
C80   C     C_R   0.441287 0.802009 0.031428 0.106499
H5    H     H_    0.079230 0.407672 0.229196 0.186181
H6    H     H_    0.838386 0.584071 0.751432 0.181970
H7    H     H_    0.420790 0.907661 0.770799 0.186153
H8    H     H_    0.661657 0.084052 0.248561 0.181931
H9    H     H_    0.077808 0.308512 0.170123 0.167490
H10   H     H_    0.850654 0.738818 0.796511 0.196034
H11   H     H_    0.422213 0.808494 0.829871 0.167492
H12   H     H_    0.649393 0.238798 0.203482 0.196034
H13   H     H_    0.786501 0.045955 0.104858 0.208760
H14   H     H_    0.158224 0.082926 0.848753 0.195326
H15   H     H_    0.713506 0.545933 0.895140 0.208764
H16   H     H_    0.341819 0.582920 0.151245 0.195326
H17   H     H_    0.800879 0.922164 0.054325 0.162068
H18   H     H_    0.193529 0.206404 0.899688 0.174333
H19   H     H_    0.699150 0.422147 0.945675 0.162073
H20   H     H_    0.306515 0.706397 0.100311 0.174328
C81   C     C_R   0.964482 0.528148 0.379568 -0.095638
C82   C     C_R   0.035600 0.471790 0.620400 -0.090901
C83   C     C_R   0.535532 0.028142 0.620433 -0.095638
C84   C     C_R   0.464385 0.971796 0.379599 -0.090909
C85   C     C_R   0.920427 0.343046 0.404510 -0.183137
C86   C     C_R   0.080870 0.656742 0.595414 -0.180951
C87   C     C_R   0.579918 0.843079 0.595483 -0.183130
C88   C     C_R   0.418775 0.156710 0.404592 -0.180952
C89   C     C_R   0.926821 0.414822 0.373893 0.272773
C90   C     C_R   0.074332 0.585008 0.626037 0.267638
C91   C     C_R   0.573412 0.914843 0.626103 0.272761
C92   C     C_R   0.425431 0.084989 0.373968 0.267627
C93   C     C_R   0.995141 0.568986 0.415620 -0.273935
C94   C     C_R   0.004286 0.431001 0.584359 -0.271938
C95   C     C_R   0.504747 0.068963 0.584383 -0.273944
C96   C     C_R   0.495826 0.931023 0.415637 -0.271942
C97   C     C_R   0.984825 0.498428 0.447214 0.087282
C98   C     C_R   0.015252 0.501467 0.552747 0.086016
C99   C     C_R   0.515177 0.998421 0.552786 0.087259
C100  C     C_R   0.484744 0.001474 0.447252 0.085991
C101  C     C_R   0.947408 0.383773 0.440924 0.068046
C102  C     C_R   0.053323 0.616054 0.559019 0.067737
C103  C     C_R   0.552836 0.883796 0.559072 0.068074
C104  C     C_R   0.446425 0.116031 0.440985 0.067767
C105  C     C_R   0.007567 0.538136 0.484685 0.064527
C106  C     C_R   0.992594 0.461739 0.515274 0.064385
C107  C     C_R   0.492342 0.038123 0.515317 0.064517
C108  C     C_R   0.507496 0.961752 0.484724 0.064375
C109  C     C_R   0.956631 0.348190 0.507349 -0.193421
C110  C     C_R   0.043988 0.651637 0.492602 -0.193107
C111  C     C_R   0.543722 0.848233 0.492644 -0.193401
C112  C     C_R   0.455654 0.151595 0.507405 -0.193086
C113  C     C_R   0.934851 0.310460 0.470966 -0.180344
C114  C     C_R   0.066113 0.689334 0.528975 -0.180397
C115  C     C_R   0.565559 0.810506 0.529026 -0.180309
C116  C     C_R   0.433467 0.189289 0.471033 -0.180362
H21   H     H_    0.906544 0.222743 0.466340 0.140742
H22   H     H_    0.094947 0.776996 0.533591 0.140757
H23   H     H_    0.594070 0.722813 0.533648 0.140765
H24   H     H_    0.404427 0.276927 0.466421 0.140780
H25   H     H_    0.976783 0.343062 0.582143 0.110802
H26   H     H_    0.021585 0.657036 0.417856 0.110359
H27   H     H_    0.523482 0.843101 0.417851 0.110822
H28   H     H_    0.478150 0.156994 0.582149 0.110384
H29   H     H_    0.891530 0.255439 0.399869 0.161118
H30   H     H_    0.110468 0.744275 0.600036 0.161935
H31   H     H_    0.609004 0.755496 0.600120 0.161101
H32   H     H_    0.388985 0.244220 0.399975 0.161916
H33   H     H_    0.943750 0.285207 0.528609 0.128029
H34   H     H_    0.057350 0.714577 0.471339 0.128041
H35   H     H_    0.556783 0.785274 0.471380 0.128024
H36   H     H_    0.442112 0.214510 0.528671 0.128035
Br1   Br    Br    0.269433 0.334784 0.825150 -0.562589
Br2   Br    Br    0.765703 0.753850 0.180089 -0.522126
Br3   Br    Br    0.230518 0.834791 0.174853 -0.562580
Br4   Br    Br    0.734257 0.253849 0.819913 -0.522120
Br5   Br    Br    0.118865 0.644624 0.675037 -0.510149
Br6   Br    Br    0.883682 0.355180 0.324833 -0.500908
Br7   Br    Br    0.380742 0.144586 0.324971 -0.510097
Br8   Br    Br    0.616718 0.855218 0.675159 -0.500896
C117  C     C_3   0.351093 0.566967 0.859401 -0.622462
H37   H     H_    0.360896 0.646390 0.873703 0.198412
H38   H     H_    0.335575 0.500530 0.880663 0.242545
H39   H     H_    0.481463 0.552972 0.842944 0.238563
C118  C     C_3   0.827216 0.618700 0.106296 -0.652203
H40   H     H_    0.947333 0.671254 0.097668 0.242153
H41   H     H_    0.778792 0.565357 0.083327 0.219641
H42   H     H_    0.710435 0.675335 0.112471 0.221545
C119  C     C_3   0.148888 0.066976 0.140602 -0.622453
H43   H     H_    0.139093 0.146399 0.126299 0.198413
H44   H     H_    0.164389 0.000536 0.119340 0.242546
H45   H     H_    0.018519 0.052990 0.157060 0.238561
C120  C     C_3   0.672797 0.118679 0.893702 -0.652204
H46   H     H_    0.552689 0.171240 0.902330 0.242151
H47   H     H_    0.721216 0.065335 0.916670 0.219640
H48   H     H_    0.789586 0.175309 0.887526 0.221551
C121  C     C_3   0.985045 0.771400 0.030005 -0.794097
H49   H     H_    0.052747 0.821654 0.051862 0.216971
H50   H     H_    0.840642 0.746690 0.037985 0.215988
H51   H     H_    0.069380 0.693974 0.028689 0.247925
C122  C     C_3   0.052323 0.362517 0.931756 -0.760995
H52   H     H_    0.192887 0.372548 0.919259 0.225419
H53   H     H_    0.950977 0.324150 0.912219 0.225150
H54   H     H_    0.001291 0.447388 0.936360 0.254308
C123  C     C_3   0.514964 0.271385 0.969993 -0.794091
H55   H     H_    0.447267 0.321642 0.948136 0.216970
H56   H     H_    0.659367 0.246674 0.962013 0.215983
H57   H     H_    0.430629 0.193959 0.971309 0.247920
C124  C     C_3   0.447710 0.862506 0.068240 -0.760975
H58   H     H_    0.307151 0.872542 0.080739 0.225429
H59   H     H_    0.549060 0.824137 0.087776 0.225127
H60   H     H_    0.498748 0.947374 0.063635 0.254296

loop_
_geom_bond_atom_site_label_1
_geom_bond_atom_site_label_2
_ccdc_geom_bond_type
C26   C30   A    
C63   C67   A    
C39   C68   A    
C48   C80   A    
O1    C5    A    
C112  H36   S    
C117  H39   S    
O13   V1    S    
C118  H40   S    
C86   C90   A    
O3    C7    A    
C107  C108  A    
C10   N2    A    
C79   C123  S    
C88   C92   A    
O15   V3    S    
C84   C92   A    
C88   H32   S    
C105  C106  A    
C28   C56   A    
C38   C65   A    
C19   C23   A    
C121  H49   S    
C82   C94   A    
C122  H54   S    
C87   C91   A    
C17   H10   S    
C121  H51   S    
C83   C91   A    
C18   C22   A    
C103  C115  A    
C19   H12   S    
C32   C36   A    
C81   C89   A    
O20   V1    S    
C46   C78   A    
O9    C4    A    
C31   C119  S    
C2    C55   S    
C98   C102  A    
C123  H57   S    
C45   C77   A    
C21   H6    S    
O16   V4    S    
O4    C8    A    
O11   C2    A    
C24   C56   A    
C60   C63   A    
C6    C84   S    
C64   C68   A    
C124  H60   S    
N2    C14   A    
C61   C78   A    
C117  H38   S    
C93   C97   A    
C71   H19   S    
C12   C44   A    
C101  C113  A    
C63   C80   A    
C14   C50   A    
C27   Br3   S    
C13   O26   S    
C113  H21   S    
C96   C100  A    
C23   C55   A    
C40   C67   A    
C47   C79   A    
C38   C42   A    
C37   C41   A    
O14   V2    S    
C15   C51   A    
C88   C104  A    
C11   N3    A    
C84   C96   A    
O5    C1    A    
O4    V1    S    
C20   C36   A    
O9    V1    S    
C57   C69   A    
O17   V4    S    
O7    C3    A    
C60   C72   A    
O11   V3    S    
O18   V3    S    
O8    C4    A    
C10   O22   S    
O18   V2    S    
O12   V4    S    
O19   V2    S    
C109  C113  A    
C118  H41   S    
C81   C93   A    
C71   C75   A    
C86   C102  A    
C26   C54   A    
C20   H11   S    
C59   C67   A    
C124  H58   S    
C39   C51   A    
C119  H44   S    
O17   V1    S    
C15   O28   S    
C31   C35   A    
C52   C75   A    
O7    V3    S    
C30   C34   A    
C99   C103  A    
O8    V4    S    
C50   C73   A    
O16   C8    A    
C12   O24   S    
C37   C49   A    
C29   C117  S    
C22   C54   A    
C59   C64   A    
C102  C114  A    
N1    C33   S    
C58   C61   A    
C99   C107  A    
C122  H52   S    
C37   C66   A    
C115  H23   S    
O1    V4    S    
C46   H2    S    
C72   C76   A    
C97   C105  A    
O2    V3    S    
C87   H31   S    
C48   H4    S    
O3    V2    S    
C11   O23   S    
C24   H7    S    
C30   C118  S    
C25   Br1   S    
C123  H55   S    
C17   C33   A    
C120  H47   S    
C29   C33   A    
O6    C2    A    
C106  C109  A    
C16   C52   A    
O10   V2    S    
C92   Br7   S    
O20   V4    S    
C28   Br4   S    
C111  H35   S    
C78   C122  S    
C120  H46   S    
C104  C116  A    
C91   Br8   S    
C64   C79   A    
C19   C35   A    
C76   H16   S    
C90   Br5   S    
C77   C121  S    
C18   C34   A    
C114  H22   S    
C89   Br6   S    
C40   C52   A    
C59   C71   A    
C10   C42   A    
C3    C54   S    
C85   C101  A    
C9    C41   A    
O6    V2    S    
C22   H5    S    
C110  C114  A    
C95   C99   A    
C16   O27   S    
O19   V3    S    
C73   H13   S    
C4    C53   S    
C118  H42   S    
C32   C120  S    
N4    C36   S    
C44   C48   A    
C5    C83   S    
C57   C65   A    
O5    V1    S    
C98   C106  A    
O15   C7    A    
C62   C77   A    
C69   H17   S    
C18   H9    S    
C70   C74   A    
C119  H45   S    
C75   H15   S    
C60   C68   A    
C119  H43   S    
C23   H8    S    
C58   C70   A    
N1    C13   A    
C14   O25   S    
C86   H30   S    
O10   C3    A    
O14   C6    A    
C47   H3    S    
C7    C81   S    
C108  C111  A    
C13   C49   A    
C26   Br2   S    
C11   C43   A    
N3    C15   A    
C111  C115  A    
C25   C29   A    
C45   H1    S    
C100  C104  A    
C85   C89   A    
C122  H53   S    
C42   C46   A    
C27   C31   A    
C72   H20   S    
C28   C32   A    
C112  C116  A    
C8    C82   S    
C57   C62   A    
C96   H27   S    
C109  H33   S    
C107  C112  A    
C121  H50   S    
C9    N1    A    
C123  H56   S    
C62   C66   A    
O2    C6    A    
C39   C43   A    
C95   H28   S    
C69   C73   A    
C82   C90   A    
C40   C44   A    
C17   C21   A    
C80   C124  S    
C1    C56   S    
C83   C95   A    
C93   H26   S    
C124  H59   S    
C25   C53   A    
C9    O21   S    
C74   H14   S    
C85   H29   S    
C87   C103  A    
C97   C101  A    
C117  H37   S    
C38   C50   A    
C27   C55   A    
C12   N4    A    
C110  H34   S    
C105  C110  A    
N4    C16   A    
C70   H18   S    
C49   C74   A    
C100  C108  A    
N3    C35   S    
C94   C98   A    
N2    C34   S    
C41   C45   A    
C51   C76   A    
C21   C53   A    
O12   C1    A    
C43   C47   A    
C120  H48   S    
C61   C65   A    
C20   C24   A    
C58   C66   A    
C116  H24   S    
C94   H25   S    
O13   C5    A    
