data_mof_unit_5390.cif
_audit_creation_date              2012-12-10T16:44:39-0500
_audit_creation_method            fapswitch 2.2
_symmetry_space_group_name_H-M    P1
_symmetry_Int_Tables_number       1
_space_group_crystal_system       triclinic
_cell_length_a                    14.97639
_cell_length_b                    8.703204
_cell_length_c                    7.500541
_cell_angle_alpha                 103.354071
_cell_angle_beta                  94.504496
_cell_angle_gamma                 92.904821
_cell_volume                      945.878032662

loop_
_atom_site_label
_atom_site_type_symbol
_atom_type_description
_atom_site_fract_x
_atom_site_fract_y
_atom_site_fract_z
_atom_type_partial_charge
C1    C     C_R   0.497149 0.199729 0.453018 0.869916
C2    C     C_R   0.502851 0.800271 0.546982 0.869916
C3    C     C_R   0.034441 0.230162 0.549752 -0.215602
C4    C     C_R   0.965559 0.769838 0.450247 -0.215602
C5    C     C_2   0.495457 0.031452 0.427149 -0.370694
C6    C     C_2   0.504543 0.968548 0.572851 -0.370694
C7    C     C_R   0.329345 0.497171 0.501533 0.805537
C8    C     C_R   0.670655 0.502829 0.498467 0.805537
C9    C     C_R   0.816376 0.643181 0.471081 0.098131
C10   C     C_R   0.183624 0.356819 0.528919 0.098131
C11   C     C_R   0.766892 0.507729 0.494573 -0.076452
C12   C     C_R   0.233107 0.492271 0.505427 -0.076452
C13   C     C_R   0.808701 0.374481 0.520186 -0.284154
C14   C     C_R   0.191299 0.625518 0.479814 -0.284154
C15   C     C_R   0.901082 0.370852 0.522144 0.119816
C16   C     C_R   0.098918 0.629148 0.477856 0.119816
C17   C     C_R   0.952966 0.502767 0.498424 0.034543
C18   C     C_R   0.047034 0.497233 0.501576 0.034543
C19   C     C_R   0.911102 0.640162 0.472745 0.093688
C20   C     C_R   0.088898 0.359838 0.527255 0.093688
C21   C     C_R   0.941996 0.236381 0.548020 -0.213627
C22   C     C_R   0.058004 0.763619 0.451980 -0.213628
Cu1   Cu    Cu3+1 0.510010 0.517380 0.684380 0.970695
Cu2   Cu    Cu3+1 0.489990 0.482620 0.315620 0.970695
H1    H     H_    0.768546 0.272880 0.538681 0.139021
H2    H     H_    0.231454 0.727120 0.461319 0.139021
H3    H     H_    0.902092 0.135506 0.567220 0.147798
H4    H     H_    0.097908 0.864494 0.432780 0.147798
H5    H     H_    0.061574 0.122494 0.569350 0.151549
H6    H     H_    0.938426 0.877506 0.430650 0.151549
H7    H     H_    0.486587 0.959009 0.287120 0.176711
H8    H     H_    0.513413 0.040991 0.712880 0.176711
N1    N     N_2   0.474890 0.456420 0.038520 0.007381
N2    N     N_2   0.525110 0.543580 0.961480 0.007381
O1    O     O_R   0.506510 0.286130 0.619770 -0.563375
O2    O     O_R   0.493490 0.713870 0.380230 -0.563375
O3    O     O_R   0.489600 0.256770 0.308360 -0.599040
O4    O     O_R   0.510400 0.743230 0.691640 -0.599040
O5    O     O_R   0.378710 0.514640 0.655720 -0.571166
O6    O     O_R   0.621290 0.485360 0.344280 -0.571166
O7    O     O_R   0.361800 0.485290 0.344300 -0.590448
O8    O     O_R   0.638200 0.514710 0.655700 -0.590448
C23   C     C_3   0.768225 0.790951 0.456837 -0.427675
C24   C     C_3   0.769908 0.904740 0.645525 -0.845613
H9    H     H_    0.732361 0.848598 0.738657 0.257096
H10   H     H_    0.839959 0.937491 0.707943 0.253215
H11   H     H_    0.737412 0.013726 0.631540 0.238310
H12   H     H_    0.796802 0.850778 0.356664 0.191605
H13   H     H_    0.697131 0.761725 0.401554 0.218526
C25   C     C_3   0.231775 0.209049 0.543163 -0.427676
C26   C     C_3   0.230092 0.095260 0.354475 -0.845613
H14   H     H_    0.160041 0.062509 0.292057 0.253215
H15   H     H_    0.267639 0.151402 0.261342 0.257096
H16   H     H_    0.262588 0.986274 0.368460 0.238310
H17   H     H_    0.302869 0.238275 0.598445 0.218527
H18   H     H_    0.203198 0.149222 0.643336 0.191605
N3    N     N_3   0.410730 0.352303 0.922645 -0.426439
H19   H     H_    0.348375 0.381398 0.968911 0.211377
H20   H     H_    0.421398 0.239634 0.942842 0.199373
N4    N     N_3   0.589270 0.647696 0.077355 -0.426440
H21   H     H_    0.651625 0.618602 0.031088 0.211377
H22   H     H_    0.578602 0.760366 0.057158 0.199373

loop_
_geom_bond_atom_site_label_1
_geom_bond_atom_site_label_2
_ccdc_geom_bond_type
C17   C18   A    
C5    H7    S    
C6    H8    S    
Cu1   Cu2   S    
C14   C16   A    
Cu1   O4    S    
C4    C22   A    
C23   H12   S    
C2    O4    A    
C15   C21   A    
Cu1   O1    S    
C25   H17   S    
C24   H11   S    
C1    O3    A    
C23   C24   S    
Cu1   N2    S    
C16   C22   A    
C26   H16   S    
C13   C15   A    
Cu2   O3    S    
C21   H3    S    
C4    H6    S    
C3    C20   A    
C22   H4    S    
C14   H2    S    
N2    N4    S    
Cu2   O7    S    
C9    C11   A    
C13   H1    S    
N3    H19   S    
Cu2   O2    S    
Cu1   O8    S    
C10   C12   A    
C8    C11   S    
C1    C5    S    
C16   C18   A    
Cu2   O6    S    
C12   C14   A    
Cu2   N1    S    
C25   C26   S    
C18   C20   A    
C7    O7    A    
C5    C6    D    
Cu1   O5    S    
C7    C12   S    
C3    C21   A    
N3    H20   S    
C9    C23   S    
C8    O8    A    
C26   H14   S    
C10   C25   S    
C11   C13   A    
C3    H5    S    
N1    N2    D    
C24   H9    S    
C1    O1    A    
N4    H22   S    
C2    O2    A    
C15   C17   A    
C7    O5    A    
C23   H13   S    
N1    N3    S    
C8    O6    A    
C17   C19   A    
C4    C19   A    
C9    C19   A    
C24   H10   S    
C25   H18   S    
C2    C6    S    
C10   C20   A    
N4    H21   S    
C26   H15   S    
