data_mof_unit_22219.cif
_audit_creation_date              2013-03-05T15:56:27-0500
_audit_creation_method            fapswitch 2.2
_symmetry_space_group_name_H-M    P1
_symmetry_Int_Tables_number       1
_space_group_crystal_system       triclinic
_cell_length_a                    6.926672
_cell_length_b                    14.55637
_cell_length_c                    16.007646
_cell_angle_alpha                 90.211637
_cell_angle_beta                  90.120185
_cell_angle_gamma                 89.942774
_cell_volume                      1613.99077873

loop_
_atom_site_label
_atom_site_type_symbol
_atom_site_description
_atom_site_fract_x
_atom_site_fract_y
_atom_site_fract_z
_atom_type_partial_charge
O1    O     O_R   0.494400 0.415640 0.412830 -0.607066
O2    O     O_R   0.823920 0.405510 0.586560 -0.546580
O3    O     O_R   0.994250 0.584360 0.587170 -0.592060
C1    C     C_R   0.655501 0.382306 0.614604 1.011230
O4    O     O_R   0.824110 0.404610 0.413450 -0.606123
O5    O     O_R   0.994440 0.583460 0.412820 -0.600729
C2    C     C_R   0.654989 0.382179 0.384333 0.919564
O6    O     O_R   0.494210 0.416540 0.587180 -0.583182
O7    O     O_3   0.660810 0.558680 0.500000 -0.266599
V1    V     V_3+5 0.935650 0.489110 0.500000 1.254214
O8    O     O_R   0.324150 0.594490 0.413440 -0.569978
C3    C     C_R   0.154919 0.618585 0.385938 0.978616
O9    O     O_R   0.323970 0.595390 0.586550 -0.601340
C4    C     C_R   0.154870 0.617234 0.615860 0.996542
V2    V     V_3+5 0.435660 0.510890 0.500000 1.243664
O10   O     O_3   0.160630 0.441320 0.500000 -0.249436
C5    C     C_3   0.929753 0.702211 0.715651 -0.303440
H1    H     H_    0.841615 0.723953 0.660924 0.161193
H2    H     H_    0.863180 0.638194 0.739545 0.217826
C6    C     C_3   0.916608 0.777487 0.783442 -0.331373
H3    H     H_    0.828810 0.752628 0.836665 0.205614
H4    H     H_    0.836788 0.837500 0.757614 0.153636
H5    H     H_    0.139645 0.806940 0.607141 0.201741
H6    H     H_    0.142790 0.913382 0.713527 0.188307
C7    C     C_3   0.225586 0.779917 0.660511 -0.374441
C8    C     C_3   0.265326 0.652791 0.765482 0.130510
C9    C     C_3   0.143234 0.685331 0.688147 -0.114452
H7    H     H_    0.419374 0.654685 0.745432 0.040512
C10   C     C_3   0.121378 0.808660 0.811948 -0.095405
C11   C     C_3   0.220947 0.850405 0.733762 -0.428157
C12   C     C_3   0.243519 0.723329 0.839636 0.149679
H8    H     H_    0.391764 0.748750 0.854189 0.067664
H9    H     H_    0.376824 0.772001 0.638251 0.188649
H10   H     H_    0.371179 0.871481 0.749450 0.164647
C13   C     C_R   0.973860 0.750419 0.196771 -0.025354
H11   H     H_    0.849715 0.747693 0.155583 0.145010
C14   C     C_R   0.985887 0.688156 0.263065 -0.066860
H12   H     H_    0.871114 0.638374 0.270488 0.145789
C15   C     C_R   0.144147 0.689068 0.318502 -0.305740
C16   C     C_R   0.290893 0.755892 0.306603 0.382855
C17   C     C_R   0.280490 0.815549 0.237690 -0.227003
H13   H     H_    0.392853 0.866392 0.229251 0.162717
C18   C     C_R   0.122040 0.814102 0.182764 -0.179635
C19   C     C_R   0.787318 0.243947 0.692712 0.435098
C20   C     C_R   0.772147 0.181125 0.758441 -0.199163
H14   H     H_    0.879403 0.127129 0.763494 0.158028
C21   C     C_R   0.620779 0.186298 0.816542 -0.348816
C22   C     C_R   0.481200 0.256978 0.807990 0.378645
C23   C     C_R   0.494186 0.318329 0.740671 -0.114347
H15   H     H_    0.387596 0.372400 0.734962 0.221252
C24   C     C_R   0.646735 0.313698 0.683137 -0.365398
C25   C     C_R   0.812127 0.273914 0.281580 -0.106552
H16   H     H_    0.952947 0.292201 0.305923 0.123879
C26   C     C_R   0.801124 0.210080 0.216017 -0.102480
H17   H     H_    0.933996 0.181028 0.192071 0.126093
C27   C     C_R   0.621484 0.184022 0.182042 -0.128016
C28   C     C_R   0.453162 0.223658 0.215543 -0.091198
H18   H     H_    0.312353 0.205378 0.191183 0.126563
C29   C     C_R   0.464164 0.287489 0.281116 -0.110886
H19   H     H_    0.331300 0.316546 0.305064 0.125104
C30   C     C_R   0.643807 0.313520 0.315113 -0.124564
O11   O     O_R   0.771300 0.080930 0.910090 -0.592385
O12   O     O_R   0.441270 0.092800 0.083770 -0.591346
O13   O     O_R   0.271080 0.913920 0.084380 -0.593431
C31   C     C_R   0.610358 0.115299 0.112880 0.955066
O14   O     O_R   0.441580 0.091910 0.910670 -0.576253
O15   O     O_R   0.271390 0.913020 0.910040 -0.603395
C32   C     C_R   0.610402 0.115918 0.883421 1.024632
O16   O     O_R   0.770990 0.081830 0.084440 -0.603220
O17   O     O_3   0.604750 0.938760 0.997250 -0.276765
V3    V     V_3+5 0.329850 0.008280 0.997210 1.225964
O18   O     O_R   0.941680 0.901940 0.910610 -0.602402
C33   C     C_R   0.110453 0.879781 0.881624 0.938584
O19   O     O_R   0.941370 0.902830 0.083720 -0.601872
C34   C     C_R   0.110537 0.880814 0.112775 0.988450
V4    V     V_3+5 0.829860 0.986420 0.997150 1.202656
O20   O     O_3   0.104830 0.056030 0.997180 -0.254274
N1    N     N_R   0.444568 0.768218 0.366065 0.236359
O21   O     O_R   0.615252 0.792681 0.340734 -0.416714
O22   O     O_R   0.405929 0.772424 0.445522 -0.416904
N2    N     N_R   0.942016 0.233038 0.634419 0.226489
O23   O     O_R   0.949714 0.159418 0.588254 -0.411378
O24   O     O_R   0.094930 0.284252 0.641484 -0.362624
N3    N     N_R   0.331493 0.270648 0.868817 0.251815
O25   O     O_R   0.160932 0.297818 0.845188 -0.325342
O26   O     O_R   0.373654 0.271514 0.948082 -0.367650
N4    N     N_R   0.228503 0.557497 0.791739 0.257907
O27   O     O_R   0.347847 0.518456 0.843539 -0.316649
O28   O     O_R   0.085587 0.509468 0.761917 -0.374897
N5    N     N_R   0.167379 0.681695 0.916468 0.255472
O29   O     O_R   0.268318 0.685818 0.985025 -0.375757
O30   O     O_R   0.002719 0.638731 0.917121 -0.338603

loop_
_geom_bond_atom_site_label_1
_geom_bond_atom_site_label_2
_geom_bond_distance
_ccdc_geom_bond_type
O14   C32   1.297656 A    
N4    O27   1.301367 A    
O12   C31   1.301349 A    
C17   H13   1.083543 S    
C13   H11   1.083152 S    
O18   V4    2.005292 S    
N2    O23   1.300599 A    
N5    O29   1.301220 A    
C20   H14   1.084118 S    
C19   C20   1.400753 A    
C8    C9    1.572010 S    
C10   C11   1.556097 S    
O19   V4    2.000898 S    
C13   C14   1.400395 A    
N3    O26   1.301438 A    
C25   C30   1.406709 A    
O5    C3    1.298837 A    
N1    O22   1.301519 A    
C28   C29   1.401258 A    
C10   C33   1.520907 S    
C27   C31   1.491294 S    
C5    C6    1.542072 S    
C27   C28   1.406705 A    
O16   V4    2.008609 S    
O13   V3    2.004268 S    
C2    C30   1.491387 S    
O8    V2    2.000877 S    
C12   H8    1.115673 S    
C8    N4    1.473549 S    
C23   C24   1.404553 A    
O17   V3    2.155452 S    
O15   C33   1.296543 A    
C4    C9    1.523103 S    
C13   C18   1.402669 A    
O7    V1    2.155426 S    
C1    O6    1.299098 A    
C29   H19   1.082743 S    
O9    C4    1.301394 A    
C17   C18   1.404974 A    
O11   V4    2.002503 S    
N2    O24   1.300335 A    
C25   C26   1.401169 A    
C6    C10   1.556583 S    
C20   C21   1.404777 A    
C18   C34   1.487301 S    
C26   C27   1.408737 A    
C29   C30   1.408778 A    
O19   C34   1.300049 A    
C11   H10   1.113108 S    
C1    C24   1.487642 S    
C5    C9    1.562693 S    
V4    O20   2.158278 S    
C19   N2    1.430701 S    
C15   C16   1.421201 A    
O4    C2    1.301341 A    
N1    O21   1.301119 A    
C22   N3    1.437146 S    
O2    C1    1.296389 A    
O14   V3    2.004690 S    
C14   H12   1.083254 S    
N5    O30   1.301387 A    
C21   C22   1.417917 A    
C12   N5    1.472066 S    
C5    H1    1.113455 S    
N3    O25   1.301364 A    
O3    C4    1.294216 A    
O1    V2    2.005488 S    
C19   C24   1.414623 A    
C22   C23   1.405179 A    
O12   V3    2.003508 S    
O6    V2    2.002224 S    
O9    V2    2.005235 S    
O17   V4    1.707273 S    
C16   N1    1.437409 S    
O2    V1    2.004646 S    
C21   C32   1.486416 S    
V3    O20   1.705962 S    
C25   H16   1.082724 S    
C7    C11   1.555614 S    
C26   H17   1.082749 S    
C16   C17   1.408125 A    
O1    C2    1.296940 A    
C6    H4    1.113774 S    
O18   C33   1.298611 A    
O5    V1    2.004309 S    
O8    C3    1.299639 A    
C7    C9    1.556884 S    
C8    H7    1.115309 S    
O11   C32   1.296989 A    
C3    C15   1.493715 S    
N4    O28   1.301374 A    
O7    V2    1.708292 S    
O4    V1    2.003540 S    
C14   C15   1.408981 A    
O3    V1    2.004666 S    
V1    O10   1.705946 S    
C28   H18   1.082729 S    
C31   O16   1.296919 A    
C5    H2    1.109735 S    
O13   C34   1.296241 A    
O15   V3    2.004572 S    
H5    C7    1.113034 S    
H6    C11   1.113033 S    
C8    C12   1.574024 S    
C6    H3    1.109746 S    
C10   C12   1.566983 S    
C23   H15   1.082610 S    
V2    O10   2.158373 S    
C7    H9    1.112961 S    
