data_mof_unit_34259.cif
_audit_creation_date              2012-12-10T18:02:54-0500
_audit_creation_method            fapswitch 2.2
_symmetry_space_group_name_H-M    P1
_symmetry_Int_Tables_number       1
_space_group_crystal_system       triclinic
_cell_length_a                    10.91204
_cell_length_b                    9.667795
_cell_length_c                    27.623214
_cell_angle_alpha                 90.877556
_cell_angle_beta                  93.68855
_cell_angle_gamma                 92.4243
_cell_volume                      2905.00618027

loop_
_atom_site_label
_atom_site_type_symbol
_atom_type_description
_atom_site_fract_x
_atom_site_fract_y
_atom_site_fract_z
_atom_type_partial_charge
C1    C     C_R   0.262636 0.496995 0.500748 0.876375
C2    C     C_R   0.737422 0.503026 0.499213 0.782994
C3    C     C_R   0.475612 0.397140 0.099552 -0.046667
C4    C     C_R   0.453793 0.393659 0.895415 -0.042542
C5    C     C_R   0.369265 0.418969 0.124219 -0.019580
C6    C     C_R   0.562927 0.397041 0.871036 -0.013647
C7    C     C_R   0.257002 0.431306 0.097720 -0.124370
C8    C     C_R   0.675841 0.392137 0.897614 -0.125215
C9    C     C_R   0.589930 0.398186 0.126031 -0.042627
C10   C     C_R   0.341575 0.411839 0.868886 -0.037223
C11   C     C_R   0.492978 0.488516 0.353867 -0.080167
C12   C     C_R   0.486316 0.496037 0.645142 -0.030177
C13   C     C_R   0.345762 0.370584 0.970247 0.042402
C14   C     C_R   0.576451 0.353064 0.024361 0.045075
C15   C     C_R   0.572468 0.366536 0.973044 0.067976
C16   C     C_R   0.352709 0.385825 0.021760 0.066985
C17   C     C_R   0.457232 0.375468 0.946368 0.046234
C18   C     C_R   0.468046 0.377334 0.048406 0.048341
C19   C     C_R   0.232759 0.358887 0.940935 -0.022008
C20   C     C_R   0.685448 0.324705 0.053379 -0.038067
C21   C     C_R   0.231755 0.391572 0.891720 -0.213484
C22   C     C_R   0.693641 0.359550 0.102841 -0.212433
C23   C     C_R   0.496668 0.497852 0.407420 0.878272
C24   C     C_R   0.500063 0.500208 0.592435 0.929998
C25   C     C_R   0.250208 0.421595 0.047367 -0.120684
C26   C     C_R   0.680536 0.383947 0.947820 -0.115731
C27   C     C_R   0.054176 0.392485 0.474869 -0.043594
C28   C     C_R   0.946559 0.610809 0.522901 -0.012729
C29   C     C_R   0.925963 0.400815 0.471546 -0.072201
C30   C     C_R   0.073538 0.595260 0.529661 -0.072454
C31   C     C_R   0.871726 0.508367 0.496602 -0.140666
C32   C     C_R   0.128386 0.491061 0.503169 -0.139898
C33   C     C_R   0.438468 0.069827 0.463358 -0.001281
C34   C     C_R   0.562531 0.931374 0.536347 0.075482
C35   C     C_R   0.565801 0.079715 0.535437 0.084490
C36   C     C_R   0.436597 0.921553 0.464032 0.061085
C37   C     C_R   0.378405 0.432410 0.174988 0.607936
C38   C     C_R   0.557038 0.411318 0.820554 0.590673
C39   C     C_R   0.596833 0.431792 0.175859 0.652270
C40   C     C_R   0.341900 0.445167 0.819458 0.668846
C41   C     C_R   0.558493 0.369374 0.282135 0.483278
C42   C     C_R   0.377042 0.388907 0.710694 0.492044
C43   C     C_R   0.564986 0.390831 0.332572 -0.325213
C44   C     C_R   0.394801 0.405071 0.660987 -0.294246
C45   C     C_R   0.412080 0.564137 0.323576 -0.108919
C46   C     C_R   0.562550 0.575317 0.679189 -0.084019
C47   C     C_R   0.433738 0.572819 0.273795 -0.121893
C48   C     C_R   0.534341 0.575568 0.728491 -0.107539
C49   C     C_R   0.498747 0.466019 0.252098 0.252346
C50   C     C_R   0.449412 0.473228 0.744653 0.256780
Cu1   Cu    Cu3+1 0.500000 0.640660 0.500000 1.007745
Cu2   Cu    Cu3+1 0.500000 0.359340 0.500000 0.955296
H1    H     H_    0.174855 0.455279 0.115658 0.186459
H2    H     H_    0.761532 0.401959 0.879946 0.179577
H3    H     H_    0.340674 0.344406 0.633608 0.158623
H4    H     H_    0.621048 0.325285 0.355303 0.164252
H5    H     H_    0.144770 0.391048 0.870362 0.178110
H6    H     H_    0.779265 0.345862 0.124063 0.183393
H7    H     H_    0.164250 0.447850 0.029081 0.143093
H8    H     H_    0.770404 0.397026 0.966354 0.138821
N1    N     N_R   0.491552 0.444651 0.199907 -0.431999
N2    N     N_R   0.448737 0.442692 0.795873 -0.426356
N3    N     N_R   0.500000 0.852070 0.500000 -0.250184
N4    N     N_R   0.500000 0.147930 0.500000 -0.259568
O1    O     O_R   0.319640 0.618740 0.500000 -0.579181
O2    O     O_R   0.680360 0.381260 0.500000 -0.618719
O3    O     O_R   0.680360 0.618740 0.500000 -0.557918
O4    O     O_R   0.319640 0.381260 0.500000 -0.645150
O5    O     O_R   0.500020 0.618770 0.430260 -0.552656
O6    O     O_R   0.499980 0.381230 0.569740 -0.569386
O7    O     O_R   0.499980 0.618770 0.569740 -0.580654
O8    O     O_R   0.500020 0.381230 0.430260 -0.615794
O9    O     O_2   0.274834 0.434241 0.199161 -0.532593
O10   O     O_2   0.659420 0.395880 0.796387 -0.538330
O11   O     O_2   0.236719 0.481111 0.795497 -0.527601
O12   O     O_2   0.707921 0.451893 0.199907 -0.488994
C51   C     C_2   0.290996 0.604156 0.340138 0.502088
H9    H     H_    0.231392 0.668127 0.318054 0.073258
O13   O     O_2   0.252574 0.559647 0.377688 -0.556421
C52   C     C_2   0.678830 0.643110 0.664660 0.371475
H10   H     H_    0.714834 0.739254 0.681683 0.109895
O14   O     O_2   0.738885 0.588451 0.634451 -0.604622
C53   C     C_2   0.373568 0.141296 0.422969 0.425680
H11   H     H_    0.327125 0.233649 0.429972 0.137830
O15   O     O_2   0.378198 0.104163 0.380789 -0.529875
C54   C     C_2   0.626907 0.863204 0.577169 0.412546
H12   H     H_    0.675825 0.771435 0.571052 0.144626
O16   O     O_2   0.621738 0.906347 0.618680 -0.548381
C55   C     C_2   0.652114 0.160044 0.569662 0.521066
H13   H     H_    0.739831 0.198551 0.557874 0.061983
O17   O     O_2   0.627366 0.180459 0.611586 -0.490246
C56   C     C_2   0.360317 0.842916 0.426794 0.496394
H14   H     H_    0.276676 0.787873 0.435874 0.088840
O18   O     O_2   0.390816 0.840764 0.385139 -0.553992
C57   C     C_2   0.392442 0.695137 0.245845 0.425365
H15   H     H_    0.335290 0.770189 0.261771 0.073879
O19   O     O_2   0.428138 0.718992 0.205702 -0.529549
C58   C     C_2   0.596463 0.678020 0.763839 0.454970
H16   H     H_    0.688409 0.719912 0.759172 0.063076
O20   O     O_2   0.543930 0.718400 0.798785 -0.517063
O21   O     O_3   0.297955 0.287194 0.728797 -0.582750
C59   C     C_3   0.197642 0.240657 0.696592 0.090364
H17   H     H_    0.146951 0.157382 0.715331 0.185009
H18   H     H_    0.228419 0.188791 0.663655 0.136934
C60   C     C_3   0.106528 0.354911 0.684955 -0.362206
H19   H     H_    0.066619 0.388854 0.718956 0.267887
H20   H     H_    0.153426 0.446472 0.669433 0.242954
C61   C     C_3   0.002774 0.302963 0.648636 -0.840937
H21   H     H_    0.040504 0.271948 0.613859 0.245217
H22   H     H_    0.938009 0.386876 0.641338 0.292726
H23   H     H_    0.951467 0.213037 0.663370 0.271213
O22   O     O_3   0.618778 0.262029 0.261210 -0.581485
C62   C     C_3   0.584209 0.131509 0.280040 0.042143
H24   H     H_    0.548724 0.063349 0.249064 0.185199
H25   H     H_    0.508798 0.134262 0.305364 0.193942
C63   C     C_3   0.697237 0.066688 0.304584 -0.329421
H26   H     H_    0.764467 0.046929 0.276976 0.247084
H27   H     H_    0.742089 0.139364 0.332501 0.242980
C64   C     C_3   0.662992 0.930756 0.328752 -0.766517
H28   H     H_    0.602919 0.950413 0.358825 0.298692
H29   H     H_    0.747599 0.883268 0.344031 0.266257
H30   H     H_    0.614739 0.857024 0.301984 0.252966
C65   C     C_2   0.117183 0.294254 0.957365 0.351621
H31   H     H_    0.029293 0.319360 0.939724 0.071359
O23   O     O_2   0.119293 0.206699 0.988779 -0.503904
C66   C     C_2   0.785591 0.241056 0.036223 0.361115
H32   H     H_    0.877295 0.252245 0.053957 0.094329
O24   O     O_2   0.765241 0.153571 0.004021 -0.491641
C67   C     C_2   0.108911 0.281252 0.447647 0.476522
H33   H     H_    0.151345 0.197607 0.467311 0.030602
O25   O     O_2   0.102604 0.280169 0.403335 -0.490065
C68   C     C_2   0.895164 0.735945 0.543448 0.321591
H34   H     H_    0.898397 0.752393 0.582462 0.085290
O26   O     O_2   0.857196 0.825983 0.516579 -0.529924
C69   C     C_2   0.847981 0.302062 0.439398 0.471540
H35   H     H_    0.770881 0.339875 0.417609 0.043726
O27   O     O_2   0.866043 0.178260 0.438524 -0.525253
C70   C     C_2   0.147423 0.687141 0.565550 0.366151
H36   H     H_    0.126225 0.795037 0.570022 0.072701
O28   O     O_2   0.229744 0.641253 0.591829 -0.557724

loop_
_geom_bond_atom_site_label_1
_geom_bond_atom_site_label_2
_ccdc_geom_bond_type
C46   C52   S    
O21   C59   S    
C30   C70   S    
C5    C37   A    
C27   C29   A    
C8    C26   A    
C14   C18   A    
C57   H15   S    
C1    O4    A    
C24   O6    A    
C69   H35   S    
C47   C49   A    
C51   H9    S    
C63   H26   S    
C21   H5    S    
C60   H20   S    
C19   C65   S    
C66   H32   S    
Cu1   O7    S    
C3    C18   A    
C3    C9    A    
C19   C21   A    
C67   H33   S    
C34   C54   S    
C54   O16   D    
C9    C22   A    
C65   O23   D    
C9    C39   A    
C33   C36   A    
C40   N2    A    
C61   H21   S    
C59   C60   S    
C10   C40   A    
C34   C35   A    
Cu1   O1    S    
C45   C47   A    
C11   C23   S    
C23   O5    A    
C34   N3    A    
C63   H27   S    
C68   H34   S    
C41   O22   S    
C1    O1    A    
C6    C38   A    
C11   C43   A    
C35   N4    A    
C55   O17   D    
C36   N3    A    
Cu2   O4    S    
C62   C63   S    
C36   C56   S    
C51   O13   D    
C41   C43   A    
C42   C44   A    
C41   C49   A    
O22   C62   S    
C64   H29   S    
C10   C21   A    
C39   N1    A    
C60   C61   S    
C46   C48   A    
C49   N1    S    
C13   C19   A    
Cu1   Cu2   S    
C63   C64   S    
C14   C20   A    
C65   H31   S    
Cu1   N3    S    
C12   C46   A    
C2    O3    A    
Cu2   N4    S    
C8    H2    S    
C5    C7    A    
C54   H12   S    
C15   C26   A    
C6    C8    A    
C2    O2    A    
C1    C32   S    
C62   H25   S    
C2    C31   S    
C28   C68   S    
C20   C66   S    
C25   H7    S    
Cu2   O8    S    
C53   H11   S    
C56   O18   D    
Cu1   O3    S    
C39   O12   S    
C59   H18   S    
C33   C53   S    
C70   O28   D    
C42   C50   A    
C68   O26   D    
C4    C17   A    
C35   C55   S    
C4    C6    A    
C53   O15   D    
C20   C22   A    
C58   O20   D    
C27   C67   S    
C11   C45   A    
C7    H1    S    
C4    C10   A    
C42   O21   S    
Cu2   O2    S    
C62   H24   S    
C38   O10   S    
C64   H30   S    
C16   C25   A    
C69   O27   D    
C37   O9    S    
C57   O19   D    
C66   O24   D    
C29   C69   S    
C27   C32   A    
C23   O8    A    
C28   C31   A    
C52   H10   S    
C3    C5    A    
C22   H6    S    
C37   N1    A    
C64   H28   S    
C61   H23   S    
C15   C17   A    
C48   C58   S    
C60   H19   S    
C12   C24   S    
C7    C25   A    
C40   O11   S    
C13   C17   A    
C28   C30   A    
C29   C31   A    
C30   C32   A    
C44   H3    S    
C33   N4    A    
C50   N2    S    
C48   C50   A    
C56   H14   S    
C52   O14   D    
C61   H22   S    
C59   H17   S    
Cu2   O6    S    
C70   H36   S    
C43   H4    S    
C16   C18   A    
C58   H16   S    
C13   C16   A    
C47   C57   S    
C14   C15   A    
C12   C44   A    
C45   C51   S    
Cu1   O5    S    
C67   O25   D    
C55   H13   S    
C26   H8    S    
C24   O7    A    
C38   N2    A    
