data_mof_unit_20110.cif
_audit_creation_date              2012-12-10T17:53:19-0500
_audit_creation_method            fapswitch 2.2
_symmetry_space_group_name_H-M    P1
_symmetry_Int_Tables_number       1
_space_group_crystal_system       triclinic
_cell_length_a                    22.329022
_cell_length_b                    10.681535
_cell_length_c                    9.894764
_cell_angle_alpha                 90.366226
_cell_angle_beta                  89.157981
_cell_angle_gamma                 92.792339
_cell_volume                      2356.8879439

loop_
_atom_site_label
_atom_site_type_symbol
_atom_type_description
_atom_site_fract_x
_atom_site_fract_y
_atom_site_fract_z
_atom_type_partial_charge
C1    C     C_R   0.502311 0.260829 0.499616 0.829146
C2    C     C_R   0.122599 0.337018 0.325061 0.661431
C3    C     C_R   0.225357 0.510941 0.396712 0.425257
C4    C     C_R   0.387838 0.500475 0.500997 0.902873
C5    C     C_R   0.287474 0.540340 0.398950 0.356057
C6    C     C_R   0.321920 0.491408 0.503327 -0.328767
C7    C     C_R   0.291994 0.435990 0.614561 -0.251668
C8    C     C_R   0.230498 0.408720 0.611224 0.497965
C9    C     C_R   0.200224 0.417927 0.486284 -0.126428
C10   C     C_R   0.735027 0.281621 0.423453 -0.095960
C11   C     C_R   0.679176 0.331934 0.435737 -0.297473
C12   C     C_R   0.964176 0.164114 0.651256 0.466138
C13   C     C_R   0.672955 0.451367 0.492287 -0.245559
C14   C     C_R   0.723928 0.522395 0.536827 0.406889
C15   C     C_R   0.780949 0.471216 0.524887 0.406676
C16   C     C_R   0.502939 0.739922 0.500633 0.892827
C17   C     C_R   0.785936 0.349989 0.466791 0.106533
C18   C     C_R   0.591605 0.142814 0.661690 -0.183161
C19   C     C_R   0.630277 0.083388 0.746620 -0.121948
C20   C     C_R   0.627823 0.953597 0.754366 -0.094844
C21   C     C_R   0.587461 0.882846 0.675262 -0.141418
C22   C     C_R   0.547630 0.941193 0.588236 0.082015
C23   C     C_R   0.027009 0.170848 0.646589 -0.131753
C24   C     C_R   0.548885 0.072587 0.583822 0.088966
C25   C     C_R   0.508105 0.129483 0.498552 -0.096107
C26   C     C_R   0.470509 0.060324 0.412174 -0.189252
C27   C     C_R   0.470463 0.932557 0.413370 -0.184747
C28   C     C_R   0.611950 0.496276 0.498599 1.001632
C29   C     C_R   0.507479 0.873092 0.502144 -0.101245
C30   C     C_R   0.420286 0.334688 0.141558 -0.279866
C31   C     C_R   0.379990 0.253743 0.071760 0.488574
C32   C     C_R   0.380513 0.254825 0.931641 -0.145787
C33   C     C_R   0.420264 0.335428 0.861023 -0.276734
C34   C     C_R   0.058380 0.228604 0.538540 -0.095660
C35   C     C_R   0.460700 0.418719 0.928334 0.177423
C36   C     C_R   0.460724 0.418552 0.072945 0.143966
C37   C     C_R   0.537692 0.577745 0.070883 -0.080680
C38   C     C_R   0.537707 0.577628 0.927678 -0.080846
C39   C     C_R   0.872562 0.319253 0.325489 0.557410
C40   C     C_R   0.870440 0.243516 0.552239 0.581467
C41   C     C_R   0.932187 0.219212 0.544797 -0.159681
C42   C     C_R   0.964445 0.259842 0.427004 -0.052664
C43   C     C_R   0.933934 0.300791 0.313706 -0.067358
C44   C     C_R   0.027538 0.265723 0.424550 -0.044507
C45   C     C_R   0.060320 0.308226 0.308507 -0.130146
C46   C     C_R   0.028410 0.327383 0.187021 0.379857
C47   C     C_R   0.965670 0.327776 0.193343 -0.183509
C48   C     C_R   0.120176 0.254838 0.543195 0.587305
H1    H     H_    0.640267 0.277078 0.400644 0.177582
H2    H     H_    0.418825 0.329191 0.248754 0.195885
H3    H     H_    0.349746 0.192542 0.876553 0.198763
H4    H     H_    0.417792 0.329974 0.753803 0.220483
H5    H     H_    0.568506 0.640945 0.873358 0.166178
H6    H     H_    0.941412 0.352551 0.104278 0.246647
H7    H     H_    0.315947 0.415955 0.705650 0.209819
H8    H     H_    0.738950 0.189534 0.378706 0.179328
H9    H     H_    0.883851 0.137468 0.974754 0.387550
H10   H     H_    0.690220 0.843074 0.495823 0.385613
H11   H     H_    0.867696 0.497991 0.549440 0.345255
H12   H     H_    0.439837 0.105367 0.346260 0.156615
H13   H     H_    0.343865 0.184401 0.236710 0.326808
H14   H     H_    0.066457 0.554550 0.048769 0.375176
H15   H     H_    0.223448 0.685640 0.133090 0.397765
H16   H     H_    0.348338 0.666015 0.340852 0.344240
H17   H     H_    0.159741 0.416362 0.724580 0.376195
H18   H     H_    0.596719 0.243622 0.656261 0.170693
H19   H     H_    0.662592 0.138236 0.805668 0.179355
H20   H     H_    0.658149 0.907454 0.819887 0.201510
H21   H     H_    0.589415 0.782667 0.681032 0.211400
H22   H     H_    0.439979 0.879666 0.347600 0.172604
H23   H     H_    0.568431 0.641243 0.124211 0.164122
H24   H     H_    0.051586 0.136527 0.731132 0.247918
N1    N     N_R   0.843462 0.298467 0.446091 -0.364426
N2    N     N_R   0.146780 0.337768 0.452431 -0.335544
N3    N     N_R   0.499460 0.498800 0.142780 -0.109842
N4    N     N_R   0.499440 0.498720 0.857170 -0.114280
O1    O     O_R   0.500000 0.316780 0.614690 -0.640555
O2    O     O_R   0.583850 0.500050 0.614640 -0.601145
O3    O     O_R   0.583840 0.500030 0.385310 -0.595571
O4    O     O_2   0.842696 0.363739 0.219798 -0.507525
O5    O     O_2   0.879850 0.995205 0.740596 -0.204012
O6    O     O_2   0.974120 0.009773 0.863976 -0.260146
O7    O     O_3   0.900564 0.188089 0.898303 -0.471945
O8    O     O_2   0.684663 0.668746 0.734862 -0.334711
O9    O     O_2   0.775873 0.746296 0.616496 -0.169205
O10   O     O_3   0.674880 0.754611 0.490649 -0.617931
O11   O     O_3   0.830535 0.541747 0.568984 -0.654217
O12   O     O_2   0.838063 0.220651 0.665963 -0.442209
O13   O     O_3   0.339649 0.172525 0.137769 -0.708220
O14   O     O_2   0.107597 0.255676 0.997842 -0.161164
O15   O     O_2   0.016709 0.345910 0.916132 -0.293451
O16   O     O_3   0.097564 0.496139 0.021104 -0.405346
O17   O     O_2   0.114745 0.598801 0.352499 -0.275129
O18   O     O_2   0.198953 0.750941 0.372964 -0.253020
O19   O     O_3   0.191409 0.620394 0.151709 -0.411378
O20   O     O_3   0.311859 0.622931 0.303764 -0.712978
O21   O     O_3   0.201339 0.389155 0.733538 -0.621937
O22   O     O_2   0.152915 0.194587 0.633247 -0.460647
O23   O     O_2   0.158355 0.363725 0.217661 -0.406022
O24   O     O_R   0.500000 0.316750 0.385360 -0.637444
O25   O     O_R   0.416160 0.499970 0.614690 -0.615933
O26   O     O_R   0.416150 0.499950 0.385360 -0.611895
O27   O     O_R   0.500000 0.683250 0.614640 -0.623064
O28   O     O_R   0.500000 0.683220 0.385310 -0.609003
S1    S     S_3+6 0.929258 0.083636 0.790408 0.121182
S2    S     S_3+6 0.716253 0.676611 0.599918 0.052686
S3    S     S_3+6 0.062710 0.353363 0.025618 0.116664
S4    S     S_3+6 0.180249 0.622787 0.320201 0.128791
Zn1   Zn    Zn3+2 0.500000 0.500020 0.653130 0.956816
Zn2   Zn    Zn3+2 0.500000 0.499980 0.346870 0.963616

loop_
_geom_bond_atom_site_label_1
_geom_bond_atom_site_label_2
_ccdc_geom_bond_type
C1    C25   S    
O24   Zn2   S    
C22   C29   A    
C27   C29   A    
C1    O1    A    
C41   C42   A    
C35   C36   A    
C7    H7    S    
C12   S1    S    
C7    C8    A    
C38   N4    A    
C45   C46   A    
C33   H4    S    
C12   C23   A    
O18   S4    D    
C26   C27   A    
C37   C38   A    
C3    C9    A    
O14   S3    D    
O17   S4    D    
C30   C31   A    
C10   C17   A    
O25   Zn1   S    
H15   O19   S    
C40   N1    A    
C18   C19   A    
O6    S1    D    
C28   O3    A    
O16   S3    S    
C16   O28   A    
C19   C20   A    
C8    C9    A    
C31   O13   S    
H14   O16   S    
O8    S2    D    
H9    O7    S    
C13   C28   S    
C19   H19   S    
C10   H8    S    
C2    N2    A    
C30   H2    S    
C13   C14   A    
C46   S3    S    
C17   N1    S    
O10   S2    S    
C42   C44   A    
H10   O10   S    
C1    O24   A    
H13   O13   S    
C2    C45   A    
O5    S1    D    
C35   N4    A    
O15   S3    D    
C34   C44   A    
C24   C25   A    
H16   O20   S    
C4    C6    S    
O19   S4    S    
N4    Zn1   S    
C39   C43   A    
C25   C26   A    
O7    S1    S    
C21   H21   S    
C8    O21   S    
C32   H3    S    
C12   C41   A    
C11   H1    S    
C36   N3    A    
C48   N2    A    
C16   O27   A    
C31   C32   A    
C23   C34   A    
C4    O25   A    
O1    Zn1   S    
C27   H22   S    
C47   H6    S    
C40   C41   A    
C2    O23   S    
C37   H23   S    
C18   C24   A    
O26   Zn2   S    
C34   C48   A    
C9    N2    S    
O9    S2    D    
C5    O20   S    
C28   O2    A    
C44   C45   A    
C15   O11   S    
C15   C17   A    
C46   C47   A    
N3    Zn2   S    
O3    Zn2   S    
C23   H24   S    
C20   H20   S    
C3    C5    A    
C6    C7    A    
C3    S4    S    
C18   H18   S    
C48   O22   S    
C30   C36   A    
O27   Zn1   S    
C39   O4    S    
C40   O12   S    
C16   C29   S    
H17   O21   S    
C32   C33   A    
O28   Zn2   S    
C11   C13   A    
C5    C6    A    
C38   H5    S    
C26   H12   S    
C33   C35   A    
O2    Zn1   S    
C22   C24   A    
C39   N1    A    
C37   N3    A    
H11   O11   S    
C10   C11   A    
C4    O26   A    
C14   S2    S    
C20   C21   A    
C42   C43   A    
C14   C15   A    
C21   C22   A    
C43   C47   A    
