data_mof_unit_52310.cif
_audit_creation_date              2012-10-26T19:02:56-0400
_audit_creation_method            fapswitch 2.2
_symmetry_space_group_name_H-M    P1
_symmetry_Int_Tables_number       1
_space_group_crystal_system       triclinic
_cell_length_a                    14.996428
_cell_length_b                    11.041671
_cell_length_c                    9.864681
_cell_angle_alpha                 111.0812
_cell_angle_beta                  98.499098
_cell_angle_gamma                 90.8449
_cell_volume                      1503.30099201

loop_
_atom_site_label
_atom_site_type_symbol
_atom_type_description
_atom_site_fract_x
_atom_site_fract_y
_atom_site_fract_z
_atom_type_partial_charge
C1    C     C_R   0.493466 0.254232 0.440748 0.554778
C2    C     C_2   0.492984 0.489933 0.919018 0.051845
C3    C     C_R   0.329071 0.499437 0.500816 0.539831
C4    C     C_R   0.670929 0.500563 0.499184 0.539831
C5    C     C_R   0.822582 0.611519 0.585813 -0.094004
C6    C     C_R   0.177418 0.388481 0.414186 -0.094004
C7    C     C_R   0.767168 0.501142 0.497429 -0.004733
C8    C     C_R   0.232832 0.498858 0.502571 -0.004733
C9    C     C_R   0.802926 0.390594 0.409439 -0.100028
C10   C     C_R   0.197074 0.609406 0.590561 -0.100028
C11   C     C_R   0.896359 0.386700 0.411267 0.006672
C12   C     C_R   0.506534 0.745768 0.559252 0.554778
C13   C     C_R   0.103641 0.613300 0.588733 0.006672
C14   C     C_R   0.953184 0.500320 0.499251 0.009579
C15   C     C_R   0.046816 0.499680 0.500749 0.009579
C16   C     C_R   0.915951 0.614564 0.585793 0.006114
C17   C     C_R   0.084049 0.385436 0.414207 0.006114
C18   C     C_R   0.933717 0.271822 0.328605 0.113026
C19   C     C_R   0.066283 0.728178 0.671395 0.113026
C20   C     C_R   0.027785 0.271124 0.330316 0.117741
C21   C     C_R   0.972215 0.728875 0.669684 0.117741
C22   C     C_2   0.489977 0.114910 0.407466 -0.102093
C23   C     C_2   0.510023 0.885090 0.592534 -0.102093
C24   C     C_2   0.501560 0.069563 0.516529 -0.139625
C25   C     C_2   0.498440 0.930437 0.483470 -0.139625
C26   C     C_2   0.507016 0.510066 0.080982 0.051845
Cu1   Cu    Cu3+1 0.515770 0.521810 0.644910 1.037669
Cu2   Cu    Cu3+1 0.484230 0.478190 0.355090 1.037669
H1    H     H_    0.756406 0.307861 0.343083 0.153002
H2    H     H_    0.209129 0.305694 0.347653 0.160592
H3    H     H_    0.243594 0.692138 0.656917 0.153002
H4    H     H_    0.486524 0.864743 0.368788 0.168680
H5    H     H_    0.513476 0.135257 0.631212 0.168680
H6    H     H_    0.522016 0.951091 0.707015 0.133257
H7    H     H_    0.477984 0.048908 0.292985 0.133257
H8    H     H_    0.441446 0.417793 0.843804 0.153593
H9    H     H_    0.558554 0.582207 0.156196 0.153593
H10   H     H_    0.790871 0.694306 0.652347 0.160592
I1    I     I_    0.848625 0.096651 0.204003 -0.226527
I2    I     I_    0.151375 0.903349 0.795998 -0.226528
I3    I     I_    0.084687 0.094428 0.209773 -0.198920
I4    I     I_    0.915313 0.905572 0.790227 -0.198920
I5    I     I_    0.641262 0.698279 0.989761 -0.219104
I6    I     I_    0.358738 0.301721 0.010238 -0.219104
N1    N     N_2   0.460520 0.445420 0.137370 -0.163342
N2    N     N_2   0.539480 0.554580 0.862630 -0.163342
O1    O     O_R   0.508410 0.332340 0.577400 -0.514537
O2    O     O_R   0.491590 0.667660 0.422600 -0.514537
O3    O     O_R   0.481780 0.295500 0.332650 -0.468600
O4    O     O_R   0.518220 0.704500 0.667350 -0.468600
O5    O     O_R   0.383570 0.518390 0.622380 -0.509090
O6    O     O_R   0.616430 0.481610 0.377620 -0.509090
O7    O     O_R   0.356940 0.481550 0.377630 -0.465777
O8    O     O_R   0.643060 0.518450 0.622370 -0.465777

loop_
_geom_bond_atom_site_label_1
_geom_bond_atom_site_label_2
_ccdc_geom_bond_type
C12   O4    A    
C18   I1    S    
C5    C7    A    
C11   C18   A    
C16   C21   A    
C9    C11   A    
Cu2   O3    S    
C24   H5    S    
Cu1   O4    S    
C9    H1    S    
Cu2   O7    S    
C23   H6    S    
C25   H4    S    
C23   C25   D    
C20   I3    S    
Cu1   O8    S    
C1    C22   S    
C2    C26   S    
C26   H9    S    
C5    H10   S    
C2    N2    D    
C22   H7    S    
Cu2   O6    S    
C12   C23   S    
C3    O7    A    
I5    N2    S    
C4    O6    A    
C4    C7    S    
Cu1   N2    S    
C8    C10   A    
C19   C21   A    
C12   O2    A    
Cu1   O5    S    
C18   C20   A    
C13   C15   A    
C11   C14   A    
C14   C16   A    
Cu2   N1    S    
C19   I2    S    
C13   C19   A    
Cu1   O1    S    
C21   I4    S    
C17   C20   A    
C24   C25   S    
C7    C9    A    
C3    C8    S    
C22   C24   D    
C2    H8    S    
Cu1   Cu2   S    
C15   C17   A    
C6    C17   A    
C3    O5    A    
C14   C15   A    
C1    O1    A    
C5    C16   A    
C6    C8    A    
C26   N1    D    
C4    O8    A    
C1    O3    A    
C10   H3    S    
C6    H2    S    
Cu2   O2    S    
I6    N1    S    
C10   C13   A    
