data_mof_unit_17329.cif
_audit_creation_date              2012-12-11T15:32:09-0500
_audit_creation_method            fapswitch 2.2
_symmetry_space_group_name_H-M    P1
_symmetry_Int_Tables_number       1
_space_group_crystal_system       triclinic
_cell_length_a                    13.574665
_cell_length_b                    13.585594
_cell_length_c                    27.677615
_cell_angle_alpha                 90.359964
_cell_angle_beta                  90.162856
_cell_angle_gamma                 119.95576
_cell_volume                      4422.23244142

loop_
_atom_site_label
_atom_site_type_symbol
_atom_type_description
_atom_site_fract_x
_atom_site_fract_y
_atom_site_fract_z
_atom_type_partial_charge
C1    C     C_R   0.619483 0.898400 0.431273 0.550233
C2    C     C_R   0.104910 0.868714 0.269049 0.430389
C3    C     C_R   0.087742 0.862735 0.218828 0.250691
C4    C     C_R   0.599689 0.218499 0.431303 0.548702
C5    C     C_R   0.236818 0.815008 0.208311 0.379505
C6    C     C_R   0.253893 0.821627 0.258315 -0.125329
C7    C     C_R   0.187426 0.847266 0.288844 -0.060415
C8    C     C_R   0.153493 0.835008 0.188286 0.006721
C9    C     C_1   0.128773 0.817211 0.137166 0.116203
C10   C     C_1   0.207930 0.854702 0.340244 0.033290
C11   C     C_1   0.099162 0.795930 0.095451 0.079603
C12   C     C_R   0.604200 0.239997 0.208606 -0.099851
C13   C     C_1   0.634181 0.866376 0.383509 0.030957
C14   C     C_R   0.679475 0.756793 0.271982 -0.135160
C15   C     C_R   0.685624 0.744359 0.222098 -0.110665
C16   C     C_R   0.279726 0.878962 0.430466 0.547676
C17   C     C_R   0.623075 0.881044 0.207975 0.311463
C18   C     C_R   0.616432 0.892891 0.258055 0.428007
C19   C     C_R   0.645565 0.831524 0.290100 0.010368
C20   C     C_R   0.658453 0.806806 0.189905 0.004605
C21   C     C_1   0.673415 0.797325 0.138837 0.063546
C22   C     C_1   0.641151 0.847105 0.341444 0.027462
C23   C     C_R   0.592275 0.222550 0.258432 -0.060342
C24   C     C_1   0.692077 0.787281 0.097049 0.063880
C25   C     C_R   0.641241 0.281640 0.614628 0.024509
C26   C     C_R   0.726290 0.272458 0.639672 -0.125020
C27   C     C_R   0.740138 0.293445 0.688823 -0.116020
C28   C     C_R   0.620534 0.900626 0.568946 0.542333
C29   C     C_R   0.671760 0.327472 0.713231 0.040469
C30   C     C_R   0.595805 0.349184 0.687249 -0.117444
C31   C     C_R   0.580009 0.325619 0.638065 -0.124577
C32   C     C_R   0.577957 0.301229 0.792828 -0.082912
C33   C     C_R   0.585108 0.320938 0.842370 0.380941
C34   C     C_R   0.663827 0.309490 0.290548 -0.005302
C35   C     C_R   0.789668 0.398970 0.838704 -0.181390
C36   C     C_R   0.782600 0.381850 0.789331 -0.144035
C37   C     C_R   0.677347 0.336631 0.765850 -0.027577
C38   C     C_R   0.692084 0.374945 0.865160 0.029493
C39   C     C_R   0.220386 0.861019 0.614196 0.021232
C40   C     C_R   0.601926 0.223426 0.568307 0.540662
C41   C     C_R   0.229162 0.953480 0.640770 -0.133649
C42   C     C_R   0.199380 0.940702 0.689206 -0.060455
C43   C     C_R   0.158990 0.835089 0.711317 0.068527
C44   C     C_R   0.142007 0.740726 0.683952 -0.124871
C45   C     C_R   0.688037 0.344433 0.190497 0.044747
C46   C     C_R   0.172511 0.753555 0.635575 -0.124952
C47   C     C_R   0.185576 0.771477 0.791559 -0.146909
C48   C     C_R   0.162172 0.754524 0.840777 0.222019
C49   C     C_R   0.051349 0.849860 0.833978 -0.118166
C50   C     C_R   0.074021 0.865518 0.785034 0.368498
C51   C     C_R   0.139340 0.824258 0.763378 -0.009182
C52   C     C_R   0.279305 0.881227 0.568084 0.544990
C53   C     C_R   0.091757 0.791218 0.862061 -0.020519
C54   C     C_R   0.639116 0.861610 0.615474 0.022203
C55   C     C_R   0.546775 0.770533 0.638528 -0.124305
C56   C     C_1   0.694257 0.364555 0.139255 0.030679
C57   C     C_R   0.553832 0.750285 0.687109 -0.121828
C58   C     C_R   0.653985 0.819372 0.713181 0.034160
C59   C     C_R   0.749620 0.903999 0.689144 -0.103662
C60   C     C_R   0.742080 0.925442 0.640593 -0.125172
C61   C     C_R   0.714528 0.901990 0.795752 -0.089769
C62   C     C_R   0.726339 0.889202 0.844835 -0.100453
C63   C     C_R   0.614624 0.684409 0.835056 -0.104114
C64   C     C_1   0.630783 0.264225 0.383679 0.015130
C65   C     C_R   0.604435 0.697141 0.785884 -0.104421
C66   C     C_R   0.657291 0.805917 0.765641 0.042803
C67   C     C_1   0.649182 0.289868 0.341721 -0.025790
C68   C     C_R   0.679660 0.780226 0.864437 0.029819
C69   C     C_R   0.049475 0.761238 0.048175 0.561180
C70   C     C_R   0.714253 0.435667 0.049676 0.554628
C71   C     C_R   0.723537 0.770711 0.049533 0.557973
C72   C     C_R   0.043622 0.755830 0.910355 0.577751
C73   C     C_R   0.708094 0.428694 0.912446 0.565208
C74   C     C_R   0.717380 0.765044 0.911819 0.539716
C75   C     C_R   0.748417 0.413714 0.272654 -0.069202
C76   C     C_R   0.760785 0.431676 0.222724 0.252372
C77   C     C_1   0.701436 0.390270 0.097296 0.047828
C78   C     C_1   0.233854 0.863363 0.382432 0.028829
Cl1   Cl    Cl    0.588640 0.961236 0.168742 -0.484963
Cl2   Cl    Cl    0.866740 0.564924 0.201690 -0.604093
Cl3   Cl    Cl    0.222612 0.687451 0.874037 -0.552109
Cl4   Cl    Cl    0.981970 0.888218 0.195044 -0.507411
Cr1   Cr    Cr6+3 0.417720 0.831920 0.499820 1.032320
Cr2   Cr    Cr6+3 0.668190 0.085770 0.500360 1.042173
Cr3   Cr    Cr6+3 0.414060 0.082260 0.499840 1.041640
Cr4   Cr    Cr6+3 0.908000 0.821090 0.979770 1.071124
Cr5   Cr    Cr6+3 0.912420 0.571130 0.979880 1.095989
Cr6   Cr    Cr6+3 0.657970 0.566940 0.980940 1.096491
F1    F     F_    0.582854 0.965107 0.275534 -0.623123
F2    F     F_    0.488781 0.293006 0.867312 -0.604187
F3    F     F_    0.026306 0.914704 0.758406 -0.648103
F4    F     F_    0.041026 0.894727 0.298445 -0.574230
F5    F     F_    0.300125 0.787012 0.179553 -0.568540
H1    H     H_    0.804018 0.481073 0.297368 0.153165
H2    H     H_    0.266448 0.037444 0.625220 0.132811
H3    H     H_    0.238898 0.742318 0.775088 0.152197
H4    H     H_    0.213494 0.014531 0.709975 0.161346
H5    H     H_    0.995713 0.877681 0.849143 0.169895
H6    H     H_    0.108756 0.658117 0.700470 0.110808
H7    H     H_    0.164293 0.680871 0.615688 0.131596
H8    H     H_    0.466177 0.719635 0.620060 0.133924
H9    H     H_    0.546999 0.172670 0.184250 0.177529
H10   H     H_    0.752816 0.986905 0.781134 0.113953
H11   H     H_    0.776501 0.964148 0.866986 0.140616
H12   H     H_    0.713434 0.687232 0.208581 0.195540
H13   H     H_    0.478863 0.684586 0.704776 0.111916
H14   H     H_    0.560149 0.621702 0.763427 0.111653
H15   H     H_    0.579011 0.599266 0.849232 0.158792
H16   H     H_    0.829051 0.955947 0.708269 0.153992
H17   H     H_    0.814770 0.995443 0.623498 0.133792
H18   H     H_    0.526493 0.141521 0.271950 0.184263
H19   H     H_    0.318631 0.805965 0.273282 0.187076
H20   H     H_    0.702053 0.708966 0.296342 0.158998
H21   H     H_    0.775277 0.239226 0.622392 0.134416
H22   H     H_    0.495275 0.261639 0.775374 0.135367
H23   H     H_    0.799345 0.276105 0.708037 0.108905
H24   H     H_    0.860488 0.409910 0.769342 0.129879
H25   H     H_    0.873448 0.440496 0.855227 0.169652
H26   H     H_    0.545381 0.379736 0.705289 0.107631
H27   H     H_    0.515123 0.334838 0.619169 0.129474
O1    O     O_R   0.302900 0.805360 0.446400 -0.504754
O2    O     O_R   0.638120 0.455970 0.034270 -0.497407
O3    O     O_R   0.667540 0.672320 0.030160 -0.492920
O4    O     O_R   0.522090 0.841370 0.450730 -0.496899
O5    O     O_R   0.814460 0.840990 0.926980 -0.518490
O6    O     O_R   0.001710 0.811400 0.930110 -0.515513
O7    O     O_R   0.023410 0.659800 0.926210 -0.452022
O8    O     O_R   0.806940 0.473170 0.931090 -0.524815
O9    O     O_R   0.633420 0.451310 0.927930 -0.443235
O10   O     O_R   0.663190 0.668000 0.931580 -0.496738
O11   O     O_3   0.826130 0.653050 0.980200 -0.282709
O12   O     O_R   0.657980 0.180990 0.549630 -0.507253
O13   O     O_R   0.693280 0.995650 0.447220 -0.490724
O14   O     O_R   0.657260 0.178740 0.451050 -0.487502
O15   O     O_R   0.502640 0.195380 0.446850 -0.502743
O16   O     O_R   0.319630 0.976590 0.450330 -0.486424
O17   O     O_R   0.303680 0.807790 0.552740 -0.520729
O18   O     O_R   0.522820 0.843620 0.549310 -0.505497
O19   O     O_R   0.694060 0.998080 0.553560 -0.519607
O20   O     O_R   0.503420 0.197810 0.553190 -0.520576
O21   O     O_R   0.320350 0.978840 0.548910 -0.501799
O22   O     O_3   0.499990 0.999990 0.500010 -0.251613
O23   O     O_R   0.819150 0.845650 0.033320 -0.482906
O24   O     O_R   0.006060 0.815720 0.028680 -0.487771
O25   O     O_R   0.028100 0.664460 0.032550 -0.476275
O26   O     O_R   0.811290 0.477490 0.029660 -0.483783

loop_
_geom_bond_atom_site_label_1
_geom_bond_atom_site_label_2
_ccdc_geom_bond_type
C25   C31   A    
C7    C10   S    
C63   C65   A    
Cr5   O26   S    
C27   C29   A    
C69   O25   A    
C41   C42   A    
C2    C7    A    
Cr6   O10   S    
C75   C76   A    
Cr5   O7    S    
C10   C78   T    
Cr4   O24   S    
C39   C41   A    
C54   C60   A    
C69   O24   A    
C12   C23   A    
Cr2   O14   S    
C26   C27   A    
C45   C76   A    
C71   O3    A    
C36   C37   A    
C61   H10   S    
C55   H8    S    
C25   C40   S    
C30   C31   A    
C44   H6    S    
Cr4   O11   S    
C74   O5    A    
Cr4   O6    S    
C30   H26   S    
C68   C74   S    
C17   Cl1   S    
C17   C20   A    
C48   Cl3   S    
C18   C19   A    
Cr5   O11   S    
C41   H2    S    
C49   H5    S    
C54   C55   A    
C61   C66   A    
C58   C66   S    
C35   C36   A    
C45   C56   S    
C8    C9    S    
C47   H3    S    
C70   O26   A    
Cr1   O4    S    
C52   O17   A    
C34   C75   A    
C27   H23   S    
C39   C52   S    
C40   O12   A    
C59   C60   A    
C70   C77   S    
C15   C20   A    
C28   O19   A    
Cr6   O9    S    
Cr6   O3    S    
C1    O13   A    
Cr5   O8    S    
C44   C46   A    
Cr4   O23   S    
C50   C51   A    
C62   H11   S    
C48   C53   A    
C73   O9    A    
Cr2   O13   S    
C72   O7    A    
C64   C67   T    
C19   C22   S    
C28   O18   A    
Cr2   O19   S    
Cr6   O2    S    
C3    C8    A    
C42   H4    S    
Cr3   O21   S    
C28   C54   S    
C47   C51   A    
C25   C26   A    
Cr2   O12   S    
C56   C77   T    
C72   O6    A    
C34   C67   S    
C43   C44   A    
C26   H21   S    
C12   H9    S    
C29   C30   A    
Cr1   O22   S    
C70   O2    A    
C47   C48   A    
Cr2   O22   S    
C23   C34   A    
C35   C38   A    
C3    Cl4   S    
C17   C18   A    
C32   C37   A    
Cr1   O1    S    
C2    F4    S    
C36   H24   S    
C9    C11   T    
Cr3   O20   S    
Cr3   O15   S    
C39   C46   A    
C49   C50   A    
C4    O15   A    
C1    C13   S    
C42   C43   A    
C73   O8    A    
C74   O10   A    
Cr1   O17   S    
C4    O14   A    
C16   O1    A    
C46   H7    S    
C63   C68   A    
Cr5   O25   S    
C18   F1    S    
C6    H19   S    
C14   C19   A    
C76   Cl2   S    
C12   C45   A    
C35   H25   S    
Cr3   O22   S    
C5    C8    A    
C5    F5    S    
C11   C69   S    
C6    C7    A    
C14   H20   S    
C23   H18   S    
C4    C64   S    
C52   O21   A    
C62   C68   A    
C32   C33   A    
C15   H12   S    
C55   C57   A    
C2    C3    A    
C58   C59   A    
C1    O4    A    
C33   F2    S    
C43   C51   S    
C57   C58   A    
C5    C6    A    
C71   O23   A    
C49   C53   A    
C40   O20   A    
C59   H16   S    
C13   C22   T    
C57   H13   S    
C16   C78   S    
C32   H22   S    
C61   C62   A    
C31   H27   S    
C60   H17   S    
Cr3   O16   S    
C50   F3    S    
C20   C21   S    
C75   H1    S    
C65   C66   A    
C21   C24   T    
C29   C37   S    
C14   C15   A    
C33   C38   A    
Cr6   O11   S    
C63   H15   S    
C53   C72   S    
C65   H14   S    
Cr1   O18   S    
C24   C71   S    
Cr4   O5    S    
C38   C73   S    
C16   O16   A    
