data_mof_unit_49835.cif
_audit_creation_date              2012-12-10T17:16:41-0500
_audit_creation_method            fapswitch 2.2
_symmetry_space_group_name_H-M    P1
_symmetry_Int_Tables_number       1
_space_group_crystal_system       triclinic
_cell_length_a                    10.250534
_cell_length_b                    10.78357
_cell_length_c                    10.99941
_cell_angle_alpha                 90.932298
_cell_angle_beta                  92.243617
_cell_angle_gamma                 83.095569
_cell_volume                      1206.0211201

loop_
_atom_site_label
_atom_site_type_symbol
_atom_type_description
_atom_site_fract_x
_atom_site_fract_y
_atom_site_fract_z
_atom_type_partial_charge
C1    C     C_R   0.448467 0.503915 0.268689 0.979898
C2    C     C_R   0.501836 0.738581 0.498122 0.976955
C3    C     C_R   0.597526 0.116785 0.298622 -0.260928
C4    C     C_R   0.429153 0.874745 0.707347 -0.258876
C5    C     C_R   0.657690 0.046957 0.203974 0.123505
C6    C     C_R   0.353312 0.934208 0.797492 0.139164
C7    C     C_R   0.645006 0.918866 0.193580 0.321996
C8    C     C_R   0.309765 0.061900 0.786542 0.305975
C9    C     C_R   0.578856 0.862834 0.283839 0.399848
C10   C     C_R   0.339093 0.126333 0.681803 0.376216
C11   C     C_R   0.543481 0.929258 0.393304 -0.039063
C12   C     C_R   0.552326 0.493609 0.730167 0.906840
C13   C     C_R   0.427183 0.067106 0.593647 -0.038709
C14   C     C_R   0.543987 0.058975 0.397520 -0.050229
C15   C     C_R   0.457156 0.937551 0.600921 -0.071763
C16   C     C_R   0.505373 0.870375 0.498085 -0.091722
C17   C     C_R   0.485995 0.127893 0.497580 -0.083579
C18   C     C_3   0.870817 0.085918 0.140713 -0.773202
C19   C     C_3   0.395212 0.819712 0.984714 -0.783576
C20   C     C_3   0.268869 0.441292 0.882007 -0.653913
C21   C     C_3   0.770200 0.389751 0.049365 -0.750367
C22   C     C_3   0.919141 0.525942 0.738721 -0.764770
C23   C     C_2   0.428468 0.493120 0.138791 -0.451922
C24   C     C_3   0.154463 0.355010 0.321479 -0.585103
C25   C     C_2   0.576936 0.501495 0.857616 -0.416253
C26   C     C_2   0.530730 0.469369 0.064049 0.220799
C27   C     C_2   0.500958 0.452781 0.935680 0.186084
C28   C     C_2   0.077148 0.476429 0.502166 0.372500
C29   C     C_2   0.929912 0.498392 0.518799 0.345834
C30   C     C_R   0.497261 0.260270 0.504129 0.871296
H1    H     H_    0.594591 0.216685 0.291701 0.195452
H2    H     H_    0.898759 0.121811 0.232128 0.265592
H3    H     H_    0.210146 0.890145 0.914311 0.241213
H4    H     H_    0.350139 0.755559 0.043990 0.244227
H5    H     H_    0.418851 0.901955 0.039592 0.243380
H6    H     H_    0.486719 0.768917 0.948854 0.265681
H7    H     H_    0.548210 0.722777 0.176750 0.356054
H8    H     H_    0.184149 0.248236 0.701546 0.356641
H9    H     H_    0.427757 0.311947 0.831343 0.254911
H10   H     H_    0.235981 0.436952 0.785431 0.263109
H11   H     H_    0.263035 0.541862 0.908105 0.224636
H12   H     H_    0.459793 0.775927 0.718908 0.169651
H13   H     H_    0.200933 0.395130 0.937454 0.238794
H14   H     H_    0.692017 0.556051 0.134818 0.276079
H15   H     H_    0.838973 0.346944 0.120849 0.273699
H16   H     H_    0.827613 0.444736 0.991321 0.221840
H17   H     H_    0.731377 0.314810 0.993621 0.248453
H18   H     H_    0.794803 0.626291 0.609773 0.269682
H19   H     H_    0.884598 0.432869 0.747582 0.241418
H20   H     H_    0.873183 0.590662 0.808655 0.235220
H21   H     H_    0.026427 0.516929 0.756254 0.244505
H22   H     H_    0.090289 0.283809 0.480741 0.241037
H23   H     H_    0.654493 0.556055 0.888277 0.151014
H24   H     H_    0.095358 0.287322 0.274765 0.227400
H25   H     H_    0.258744 0.319793 0.306526 0.216917
H26   H     H_    0.128783 0.447774 0.278412 0.233012
H27   H     H_    0.803599 0.339199 0.325542 0.381410
H28   H     H_    0.179207 0.708558 0.615930 0.378062
H29   H     H_    0.327417 0.498955 0.105224 0.155146
H30   H     H_    0.252792 0.083332 0.953482 0.339588
H31   H     H_    0.728407 0.895687 0.035498 0.342794
H32   H     H_    0.699283 0.098198 0.030372 0.214837
H33   H     H_    0.920250 0.134943 0.071018 0.237071
H34   H     H_    0.906338 0.984671 0.134257 0.255784
N1    N     N_2   0.157300 0.551390 0.551120 0.014281
N2    N     N_2   0.842700 0.448610 0.448880 0.007196
N3    N     N_2   0.729518 0.108025 0.120140 -0.308531
N4    N     N_2   0.303563 0.859662 0.886397 -0.306863
N5    N     N_2   0.401068 0.377272 0.897966 -0.277740
N6    N     N_2   0.665770 0.470994 0.105552 -0.271150
N7    N     N_2   0.885799 0.576182 0.618760 -0.265189
N8    N     N_2   0.131762 0.359903 0.451072 -0.260536
O1    O     O_R   0.568940 0.489660 0.307530 -0.577803
O2    O     O_3   0.695908 0.844524 0.098677 -0.813148
O3    O     O_3   0.542033 0.745474 0.263740 -0.776215
O4    O     O_3   0.268006 0.240173 0.658552 -0.762290
O5    O     O_3   0.884122 0.372149 0.358004 -0.751996
O6    O     O_3   0.104182 0.665946 0.585132 -0.692583
O7    O     O_R   0.431060 0.510340 0.692470 -0.601015
O8    O     O_R   0.348880 0.522640 0.340350 -0.618758
O9    O     O_R   0.651120 0.477360 0.659650 -0.643548
O10   O     O_R   0.610030 0.300280 0.483580 -0.638288
O11   O     O_R   0.389970 0.699720 0.516420 -0.625883
O12   O     O_R   0.389970 0.333270 0.516400 -0.541685
O13   O     O_R   0.610030 0.666730 0.483600 -0.619671
O14   O     O_3   0.236385 0.127091 0.874950 -0.801115
Zn1   Zn    Zn3+2 0.646940 0.477980 0.478080 0.977582
Zn2   Zn    Zn3+2 0.353060 0.522020 0.521920 0.997704

loop_
_geom_bond_atom_site_label_1
_geom_bond_atom_site_label_2
_ccdc_geom_bond_type
C5    N3    S    
C20   H11   S    
H8    O4    S    
C24   H25   S    
C23   H29   S    
C26   C27   S    
H32   N3    S    
C28   C29   S    
C25   H23   S    
C19   H6    S    
C20   H10   S    
C11   C14   A    
C18   H33   S    
C24   H24   S    
O10   Zn1   S    
C12   O7    A    
C2    O13   A    
C23   C26   D    
O1    Zn1   S    
C10   O4    S    
H14   N6    S    
C2    C16   S    
C27   N5    S    
C22   H20   S    
C6    N4    S    
O11   Zn2   S    
H7    O3    S    
C17   C30   S    
C14   C17   A    
C2    O11   A    
C28   N8    S    
O7    Zn2   S    
C7    O2    S    
C21   H15   S    
O13   Zn1   S    
H27   O5    S    
C4    C6    A    
N2    Zn1   S    
C5    C7    A    
H30   O14   S    
C6    C8    A    
C18   N3    S    
C10   C13   A    
C30   O10   A    
H22   N8    S    
C11   C16   A    
H9    N5    S    
C19   N4    S    
C3    H1    S    
C9    C11   A    
O9    Zn1   S    
C3    C14   A    
C22   H19   S    
C1    C23   S    
C13   C15   A    
C26   N6    S    
C20   N5    S    
C25   C27   D    
H18   N7    S    
C22   N7    S    
C20   H13   S    
C24   N8    S    
N1    Zn2   S    
C21   H16   S    
C7    C9    A    
N2    O5    S    
N1    O6    S    
O12   Zn2   S    
C3    C5    A    
C19   H4    S    
H31   O2    S    
C24   H26   S    
C12   C25   S    
C13   C17   A    
C21   N6    S    
C1    O1    A    
C4    C15   A    
C28   N1    D    
O8    Zn2   S    
C19   H5    S    
C18   H34   S    
C4    H12   S    
C12   O9    A    
C8    O14   S    
C30   O12   A    
H28   O6    S    
C29   N2    D    
C18   H2    S    
C8    C10   A    
C1    O8    A    
C9    O3    S    
C29   N7    S    
C15   C16   A    
H3    N4    S    
C22   H21   S    
C21   H17   S    
