data_mof_unit_20688.cif
_audit_creation_date              2012-12-10T17:39:11-0500
_audit_creation_method            fapswitch 2.2
_symmetry_space_group_name_H-M    P1
_symmetry_Int_Tables_number       1
_space_group_crystal_system       triclinic
_cell_length_a                    12.058995
_cell_length_b                    12.851145
_cell_length_c                    23.41373
_cell_angle_alpha                 91.248114
_cell_angle_beta                  88.120408
_cell_angle_gamma                 95.782664
_cell_volume                      3607.44037825

loop_
_atom_site_label
_atom_site_type_symbol
_atom_type_description
_atom_site_fract_x
_atom_site_fract_y
_atom_site_fract_z
_atom_type_partial_charge
C1    C     C_R   0.524109 0.700403 0.494972 0.873266
C2    C     C_R   0.398639 0.504116 0.298450 -0.220202
C3    C     C_R   0.413613 0.510440 0.765335 -0.108425
C4    C     C_R   0.398207 0.496046 0.239258 -0.115341
C5    C     C_R   0.507837 0.479393 0.790961 0.290246
C6    C     C_R   0.494654 0.473801 0.208471 0.288042
C7    C     C_R   0.457350 0.186608 0.512813 -0.131079
C8    C     C_R   0.542983 0.813367 0.487768 -0.125283
C9    C     C_R   0.642879 0.974578 0.519522 -0.302293
C10   C     C_R   0.357780 0.025689 0.480241 -0.310060
C11   C     C_R   0.643216 0.869901 0.505076 -0.000480
C12   C     C_R   0.475963 0.299625 0.505391 0.905315
C13   C     C_R   0.356657 0.129707 0.496356 -0.028424
C14   C     C_R   0.452187 0.867040 0.472287 -0.085735
C15   C     C_R   0.548800 0.133024 0.527219 -0.082616
C16   C     C_R   0.501521 0.499568 0.610476 0.862227
C17   C     C_R   0.498322 0.498498 0.389493 0.892970
C18   C     C_R   0.452815 0.973408 0.487012 0.127951
C19   C     C_R   0.548079 0.026869 0.512228 0.119940
C20   C     C_R   0.944473 0.412636 0.439695 -0.117519
C21   C     C_R   0.055881 0.589394 0.559979 -0.095626
C22   C     C_R   0.831233 0.422938 0.446139 -0.031333
C23   C     C_R   0.601688 0.456192 0.757403 0.027270
C24   C     C_R   0.168982 0.577092 0.553950 -0.056681
C25   C     C_R   0.860640 0.532893 0.528265 0.097743
C26   C     C_R   0.138820 0.469255 0.471175 0.093179
C27   C     C_R   0.978565 0.531838 0.522694 -0.004649
C28   C     C_R   0.021210 0.470101 0.477236 -0.081445
C29   C     C_R   0.437437 0.394672 0.118845 0.491308
C30   C     C_R   0.573183 0.550715 0.880637 0.538609
C31   C     C_R   0.556722 0.554704 0.120108 0.508588
C32   C     C_R   0.443990 0.397024 0.878949 0.466459
C33   C     C_R   0.571149 0.551527 0.060203 -0.100635
C34   C     C_R   0.592549 0.458056 0.237041 0.043828
C35   C     C_R   0.446662 0.388488 0.938850 -0.097998
C36   C     C_R   0.508071 0.470566 0.029656 -0.010757
C37   C     C_R   0.510290 0.469049 0.969482 -0.011195
C38   C     C_R   0.441366 0.391736 0.059248 -0.049411
C39   C     C_R   0.575004 0.549367 0.940041 -0.053580
C40   C     C_R   0.643326 0.626701 0.029656 -0.023929
C41   C     C_R   0.386345 0.305333 0.969458 -0.026802
C42   C     C_R   0.641537 0.626059 0.970057 -0.137530
C43   C     C_R   0.382440 0.309959 0.029164 -0.144694
C44   C     C_2   0.727794 0.701627 0.057513 0.484027
C45   C     C_R   0.598522 0.464214 0.698282 -0.241878
C46   C     C_2   0.332743 0.209016 0.941574 0.477494
C47   C     C_2   0.189058 0.425492 0.419212 0.504884
C48   C     C_2   0.807400 0.583710 0.577116 0.467894
C49   C     C_R   0.973996 0.334409 0.396072 0.088685
C50   C     C_R   0.998652 0.235272 0.412746 -0.112077
C51   C     C_R   0.022947 0.160002 0.371429 -0.122233
C52   C     C_R   0.021499 0.182930 0.313374 -0.074861
C53   C     C_R   0.994896 0.280881 0.296511 -0.107108
C54   C     C_R   0.970307 0.356295 0.337675 -0.192543
C55   C     C_R   0.028006 0.669790 0.602740 0.151536
C56   C     C_R   0.592220 0.467384 0.296347 -0.251144
C57   C     C_R   0.038372 0.652439 0.661317 -0.086129
C58   C     C_R   0.016327 0.730087 0.701641 -0.135111
C59   C     C_R   0.986537 0.826243 0.683722 -0.073355
C60   C     C_R   0.979234 0.845038 0.625448 -0.143988
C61   C     C_R   0.000285 0.767233 0.584977 -0.213208
C62   C     C_R   0.703615 0.424245 0.782954 0.105033
C63   C     C_R   0.807954 0.479153 0.770100 -0.083225
C64   C     C_R   0.904634 0.448562 0.793342 -0.152480
C65   C     C_R   0.898032 0.362931 0.829491 -0.090406
C66   C     C_R   0.794757 0.307575 0.842297 -0.131152
C67   C     C_R   0.504200 0.494893 0.672568 -0.043025
C68   C     C_R   0.697870 0.337759 0.819025 -0.193482
C69   C     C_R   0.696210 0.433800 0.205833 0.113477
C70   C     C_R   0.695131 0.348727 0.167023 -0.164183
C71   C     C_R   0.793109 0.326745 0.137634 -0.125149
C72   C     C_R   0.892991 0.388846 0.147044 -0.114948
C73   C     C_R   0.895153 0.472875 0.186003 -0.168989
C74   C     C_R   0.797339 0.495281 0.215390 -0.130168
C75   C     C_R   0.640338 0.185640 0.562065 0.140393
C76   C     C_R   0.745265 0.218592 0.536948 -0.120979
C77   C     C_R   0.831647 0.263156 0.570820 -0.135034
C78   C     C_R   0.495866 0.490790 0.327276 -0.039179
C79   C     C_R   0.814459 0.273814 0.629870 -0.067946
C80   C     C_R   0.710932 0.239735 0.655132 -0.164776
C81   C     C_R   0.623668 0.197025 0.621351 -0.159460
C82   C     C_R   0.360587 0.812764 0.438009 0.143612
C83   C     C_R   0.381255 0.787634 0.380264 -0.136188
C84   C     C_R   0.296331 0.736954 0.347568 -0.141839
C85   C     C_R   0.190785 0.709612 0.372453 -0.137477
C86   C     C_R   0.169662 0.733734 0.429993 -0.144832
C87   C     C_R   0.254178 0.784770 0.462849 -0.121360
C88   C     C_2   0.246868 0.172022 0.497632 0.517394
C89   C     C_R   0.411542 0.518022 0.706405 -0.219120
C90   C     C_2   0.751265 0.825508 0.508149 0.378327
H1    H     H_    0.228219 0.618435 0.582342 0.141484
H2    H     H_    0.323557 0.509049 0.217070 0.141938
H3    H     H_    0.718961 0.014852 0.535573 0.147175
H4    H     H_    0.281709 0.985615 0.464173 0.142664
H5    H     H_    0.766376 0.681321 0.096371 0.113681
H6    H     H_    0.368572 0.177541 0.902654 0.113895
H7    H     H_    0.173647 0.457729 0.378187 0.006889
H8    H     H_    0.753444 0.644291 0.570586 0.092639
H9    H     H_    0.999011 0.216571 0.457604 0.126578
H10   H     H_    0.042618 0.083818 0.384402 0.126871
H11   H     H_    0.040378 0.124596 0.281452 0.139601
H12   H     H_    0.772295 0.381137 0.417757 0.146772
H13   H     H_    0.993073 0.298211 0.251557 0.149149
H14   H     H_    0.949200 0.431778 0.324202 0.130442
H15   H     H_    0.062180 0.578455 0.675610 0.120610
H16   H     H_    0.022782 0.715855 0.746746 0.133883
H17   H     H_    0.969908 0.886463 0.714968 0.137992
H18   H     H_    0.957587 0.920048 0.611648 0.133182
H19   H     H_    0.995606 0.782877 0.539919 0.139355
H20   H     H_    0.814280 0.546186 0.742532 0.184894
H21   H     H_    0.984644 0.491358 0.783375 0.132117
H22   H     H_    0.972961 0.339318 0.847469 0.152213
H23   H     H_    0.695279 0.684446 0.946834 0.222282
H24   H     H_    0.789837 0.240872 0.870027 0.149439
H25   H     H_    0.618888 0.292757 0.828433 0.150468
H26   H     H_    0.618906 0.298783 0.159939 0.160080
H27   H     H_    0.791681 0.261234 0.107735 0.152335
H28   H     H_    0.968817 0.371546 0.124367 0.148163
H29   H     H_    0.972667 0.520635 0.193471 0.138072
H30   H     H_    0.800224 0.561068 0.245201 0.143530
H31   H     H_    0.759906 0.208990 0.491343 0.130230
H32   H     H_    0.912154 0.288717 0.551404 0.149204
H33   H     H_    0.881442 0.307999 0.656096 0.150952
H34   H     H_    0.335301 0.247197 0.052374 0.223064
H35   H     H_    0.698089 0.246787 0.700917 0.152274
H36   H     H_    0.543803 0.171005 0.641452 0.144937
H37   H     H_    0.462880 0.807889 0.360569 0.140797
H38   H     H_    0.312460 0.718630 0.302921 0.144567
H39   H     H_    0.125390 0.669690 0.347162 0.126687
H40   H     H_    0.087852 0.712570 0.449120 0.144252
H41   H     H_    0.237125 0.802495 0.507525 0.127042
H42   H     H_    0.186605 0.145808 0.465712 0.042116
H43   H     H_    0.804939 0.847745 0.543478 0.035330
H44   H     H_    0.668794 0.443574 0.672313 0.219224
H45   H     H_    0.667475 0.454989 0.318261 0.160962
H46   H     H_    0.337693 0.542118 0.687440 0.158100
H47   H     H_    0.323738 0.522283 0.321402 0.153098
H48   H     H_    0.342146 0.529216 0.791353 0.146846
N1    N     N_R   0.495262 0.474740 0.147601 -0.345268
N2    N     N_R   0.508708 0.475350 0.851732 -0.343812
N3    N     N_R   0.207800 0.519350 0.510590 -0.110969
N4    N     N_R   0.792200 0.480650 0.489410 -0.136326
O1    O     O_R   0.421690 0.658830 0.502820 -0.625645
O2    O     O_2   0.634066 0.627580 0.851694 -0.563923
O3    O     O_2   0.600312 0.637689 0.151092 -0.582075
O4    O     O_2   0.376128 0.329906 0.847748 -0.593426
O5    O     O_2   0.757979 0.786110 0.036217 -0.560347
O6    O     O_2   0.249359 0.161513 0.962997 -0.562867
O7    O     O_2   0.242241 0.350034 0.421092 -0.561935
O8    O     O_2   0.820194 0.555010 0.625520 -0.636449
O9    O     O_2   0.219236 0.229353 0.536706 -0.560763
O10   O     O_2   0.784987 0.770980 0.469255 -0.569759
O11   O     O_R   0.578310 0.341170 0.497180 -0.629762
O12   O     O_R   0.609320 0.646410 0.496030 -0.596974
O13   O     O_R   0.390680 0.353590 0.503970 -0.523776
O14   O     O_R   0.406170 0.506240 0.587240 -0.623862
O15   O     O_R   0.593830 0.493760 0.412760 -0.629305
O16   O     O_R   0.593790 0.493820 0.580450 -0.627208
O17   O     O_R   0.406210 0.506180 0.419550 -0.604565
O18   O     O_2   0.377139 0.317903 0.148097 -0.568007
Zn1   Zn    Zn3+2 0.374720 0.508290 0.504530 1.009231
Zn2   Zn    Zn3+2 0.625280 0.491710 0.495470 0.972772

loop_
_geom_bond_atom_site_label_1
_geom_bond_atom_site_label_2
_ccdc_geom_bond_type
C84   H38   S    
C66   C68   A    
C34   C56   A    
C73   H29   S    
C48   O8    D    
C81   H36   S    
C1    C8    S    
C73   C74   A    
C14   C18   A    
C57   H15   S    
C25   N4    A    
C12   O11   A    
C61   H19   S    
C44   O5    D    
C56   C78   A    
C53   C54   A    
O13   Zn1   S    
C15   C19   A    
C50   H9    S    
C62   C63   A    
C23   C45   A    
C76   H31   S    
C54   H14   S    
C36   C37   A    
C35   C37   A    
C10   C18   A    
C32   N2    A    
C3    H48   S    
C32   O4    S    
C80   H35   S    
C10   H4    S    
C49   C54   A    
C67   C89   A    
C33   C36   A    
C30   O2    S    
C18   C19   A    
C87   H41   S    
C6    N1    S    
C77   H32   S    
C85   H39   S    
C9    C19   A    
C23   C62   S    
C46   O6    D    
C47   O7    D    
C29   C38   A    
C16   O14   A    
C41   C46   S    
C31   C33   A    
C70   C71   A    
C39   C42   A    
C26   N3    A    
C17   O15   A    
C60   H18   S    
C72   C73   A    
C40   C42   A    
C21   C27   A    
C59   C60   A    
C89   H46   S    
C41   C43   A    
C1    O12   A    
C35   C41   A    
C29   O18   S    
C77   C79   A    
C7    C12   S    
C29   N1    A    
C52   H11   S    
C33   C40   A    
C30   N2    A    
C71   H27   S    
C63   C64   A    
C16   O16   A    
C51   C52   A    
C32   C35   A    
C76   C77   A    
C90   O10   D    
C21   C55   S    
C90   H43   S    
C86   C87   A    
C86   H40   S    
C64   H21   S    
C20   C28   A    
C70   H26   S    
C58   C59   A    
C85   C86   A    
C79   H33   S    
C82   C83   A    
C59   H17   S    
C6    C34   A    
C60   C61   A    
C58   H16   S    
C2    C4    A    
C75   C76   A    
C65   H22   S    
C45   C67   A    
C20   C49   S    
C1    O1    A    
C42   H23   S    
C83   C84   A    
C5    C23   A    
C7    C13   A    
C24   N3    A    
C22   N4    A    
O17   Zn1   S    
C50   C51   A    
C45   H44   S    
C69   C74   A    
C16   C67   S    
C52   C53   A    
C84   C85   A    
C9    C11   A    
C34   C69   S    
C26   C47   S    
C4    C6    A    
C20   C22   A    
O14   Zn1   S    
C65   C66   A    
C55   C57   A    
C88   O9    D    
C14   C82   S    
C12   O13   A    
C31   N1    A    
C24   H1    S    
C9    H3    S    
C56   H45   S    
C74   H30   S    
C2    C78   A    
C5    N2    S    
C15   C75   S    
C51   H10   S    
C8    C14   A    
C66   H24   S    
C2    H47   S    
O12   Zn2   S    
C75   C81   A    
C83   H37   S    
C80   C81   A    
C3    C5    A    
C10   C13   A    
C47   H7    S    
N3    Zn1   S    
N4    Zn2   S    
C25   C27   A    
C48   H8    S    
C26   C28   A    
C22   H12   S    
C62   C68   A    
O11   Zn2   S    
C3    C89   A    
C64   C65   A    
C63   H20   S    
C36   C38   A    
C38   C43   A    
C37   C39   A    
C44   H5    S    
C11   C90   S    
C57   C58   A    
C53   H13   S    
C8    C11   A    
C55   C61   A    
C13   C88   S    
C7    C15   A    
C17   C78   S    
C30   C39   A    
C69   C70   A    
C17   O17   A    
O16   Zn2   S    
C68   H25   S    
C79   C80   A    
C31   O3    S    
C40   C44   S    
C46   H6    S    
C43   H34   S    
C49   C50   A    
C21   C24   A    
C72   H28   S    
C27   C28   A    
C88   H42   S    
C71   C72   A    
C25   C48   S    
O15   Zn2   S    
O1    Zn1   S    
C82   C87   A    
C4    H2    S    
