data_mof_unit_68133.cif
_audit_creation_date              2013-03-05T15:58:27-0500
_audit_creation_method            fapswitch 2.2
_symmetry_space_group_name_H-M    P1
_symmetry_Int_Tables_number       1
_space_group_crystal_system       triclinic
_cell_length_a                    7.687796
_cell_length_b                    14.756454
_cell_length_c                    17.030207
_cell_angle_alpha                 89.899298
_cell_angle_beta                  90.47674
_cell_angle_gamma                 89.85763
_cell_volume                      1931.90926002

loop_
_atom_site_label
_atom_site_type_symbol
_atom_site_description
_atom_site_fract_x
_atom_site_fract_y
_atom_site_fract_z
_atom_type_partial_charge
O1    O     O_R   0.388780 0.834790 0.412340 -0.573840
O2    O     O_R   0.111220 0.165210 0.912340 -0.530080
O3    O     O_R   0.888780 0.665210 0.587660 -0.625483
O4    O     O_R   0.611220 0.334790 0.087660 -0.583003
O5    O     O_R   0.059040 0.845930 0.587040 -0.611885
O6    O     O_R   0.440960 0.154070 0.087040 -0.636315
O7    O     O_R   0.559040 0.654070 0.412960 -0.608054
O8    O     O_R   0.940960 0.345930 0.912960 -0.604916
C1    C     C_R   0.227283 0.866355 0.615495 1.061553
C2    C     C_R   0.271492 0.134827 0.116533 0.993243
C3    C     C_R   0.728102 0.633438 0.385321 1.038773
C4    C     C_R   0.770397 0.365416 0.884304 1.064085
O9    O     O_R   0.059070 0.845930 0.412970 -0.545569
O10   O     O_R   0.440930 0.154070 0.912970 -0.591165
O11   O     O_R   0.559070 0.654070 0.587030 -0.589674
O12   O     O_R   0.940930 0.345930 0.087030 -0.570344
O13   O     O_R   0.888760 0.665210 0.412340 -0.538921
O14   O     O_R   0.611240 0.334790 0.912340 -0.521327
O15   O     O_R   0.388760 0.834790 0.587660 -0.539527
O16   O     O_R   0.111240 0.165210 0.087660 -0.540828
C5    C     C_R   0.225864 0.869125 0.387482 1.095740
C6    C     C_R   0.273808 0.124459 0.892332 0.981328
C7    C     C_R   0.726849 0.623455 0.606840 0.932508
C8    C     C_R   0.773489 0.369872 0.113089 0.999004
O17   O     O_3   0.222280 0.690700 0.500000 -0.396720
O18   O     O_3   0.277720 0.309300 0.000000 -0.344261
O19   O     O_3   0.722280 0.809300 0.500000 -0.329260
O20   O     O_3   0.777720 0.190700 0.000000 -0.356189
V1    V     V_3+5 0.947430 0.761000 0.500000 1.203764
V2    V     V_3+5 0.552570 0.239000 0.000000 1.199796
V3    V     V_3+5 0.447430 0.739000 0.500000 1.197441
V4    V     V_3+5 0.052570 0.261000 0.000000 1.237523
C9    C     C_3   0.871493 0.568690 0.732437 -0.515591
C10   C     C_3   0.632815 0.416398 0.245274 -0.538701
C11   C     C_3   0.385329 0.926965 0.267242 -0.637610
C12   C     C_3   0.163091 0.084159 0.758306 -0.555896
H1    H     H_    0.996816 0.581421 0.704907 0.200361
H2    H     H_    0.526105 0.375647 0.222644 0.187963
H3    H     H_    0.500035 0.935275 0.300376 0.221124
H4    H     H_    0.043770 0.116961 0.780335 0.216074
H5    H     H_    0.838132 0.635726 0.754080 0.203246
H6    H     H_    0.689218 0.360390 0.279942 0.219730
H7    H     H_    0.386418 0.853734 0.253199 0.220253
H8    H     H_    0.235188 0.141414 0.731618 0.224585
C13   C     C_3   0.899033 0.500442 0.801652 0.149820
C14   C     C_3   0.584392 0.495093 0.304525 0.181331
C15   C     C_3   0.393715 0.989533 0.193127 0.172065
C16   C     C_3   0.113451 0.014278 0.694905 0.140378
H9    H     H_    0.017812 0.462489 0.791174 0.133960
H10   H     H_    0.469116 0.532172 0.282795 0.124521
H11   H     H_    0.522283 0.020055 0.197179 0.121341
H12   H     H_    0.987240 0.995660 0.717966 0.121150
C17   C     C_3   0.771635 0.435685 0.648553 0.397567
C18   C     C_3   0.717222 0.548372 0.155802 0.411494
C19   C     C_3   0.249455 0.048941 0.350585 0.405430
C20   C     C_3   0.204288 0.939031 0.849898 0.424065
C21   C     C_3   0.552376 0.546343 0.724821 -0.129191
C22   C     C_3   0.938885 0.446369 0.236047 -0.214939
C23   C     C_3   0.074794 0.934876 0.257870 -0.134184
C24   C     C_3   0.453122 0.029615 0.786123 -0.220157
C25   C     C_3   0.726635 0.541848 0.672373 -0.261207
C26   C     C_3   0.768026 0.445482 0.182971 -0.246171
C27   C     C_3   0.229427 0.945307 0.319954 -0.274952
C28   C     C_3   0.273921 0.042696 0.826996 -0.217235
H13   H     H_    0.548386 0.618839 0.740305 0.217556
H14   H     H_    0.966246 0.375319 0.250429 0.247711
H15   H     H_    0.113053 0.873886 0.224038 0.242203
H16   H     H_    0.493434 0.099131 0.770791 0.246101
C29   C     C_3   0.749497 0.428545 0.806252 -0.392968
C30   C     C_3   0.744269 0.565343 0.311289 -0.377551
C31   C     C_3   0.249353 0.067212 0.192341 -0.377773
C32   C     C_3   0.239879 0.929078 0.694325 -0.381775
C33   C     C_3   0.754704 0.367447 0.726506 0.152175
C34   C     C_3   0.753656 0.620997 0.228313 0.098689
C35   C     C_3   0.283411 0.119499 0.275865 0.142942
C36   C     C_3   0.176492 0.872978 0.771448 0.125874
C37   C     C_3   0.574859 0.487810 0.804990 0.277824
C38   C     C_3   0.914124 0.500604 0.317524 0.333179
C39   C     C_3   0.064594 0.012986 0.193191 0.343890
C40   C     C_3   0.433502 0.971028 0.706422 0.340031
N1    N     N_2   0.430431 0.424557 0.813609 -0.137122
H17   H     H_    0.377168 0.395282 0.764209 0.228421
C41   C     C_3   0.303473 0.442782 0.871867 -0.556320
H18   H     H_    0.205546 0.389167 0.868258 0.232093
H19   H     H_    0.252055 0.511426 0.860821 0.244181
H20   H     H_    0.359901 0.441674 0.931471 0.309362
N2    N     N_2   0.072392 0.551956 0.337201 -0.129910
H21   H     H_    0.142880 0.587245 0.296614 0.196765
C42   C     C_3   0.170661 0.532693 0.407659 -0.513349
H22   H     H_    0.288244 0.574227 0.406484 0.237579
H23   H     H_    0.199970 0.459833 0.412082 0.303393
H24   H     H_    0.098560 0.551886 0.460755 0.259280
N3    N     N_2   0.917511 0.071189 0.211941 -0.139766
H25   H     H_    0.909691 0.097490 0.266942 0.215774
C43   C     C_3   0.807614 0.114077 0.153296 -0.539077
H26   H     H_    0.847793 0.183810 0.140765 0.259399
H27   H     H_    0.682716 0.126653 0.177938 0.161075
H28   H     H_    0.787782 0.072289 0.100229 0.277869
N4    N     N_2   0.557137 0.896214 0.707292 -0.140022
H29   H     H_    0.571420 0.858718 0.756896 0.231975
C44   C     C_3   0.692499 0.885561 0.650283 -0.531179
H30   H     H_    0.726882 0.812970 0.645526 0.213634
H31   H     H_    0.802134 0.924302 0.667854 0.199208
H32   H     H_    0.658010 0.913193 0.592599 0.309094
N5    N     N_R   0.651547 0.405903 0.584378 0.274923
O21   O     O_R   0.698548 0.346115 0.532533 -0.189390
O22   O     O_R   0.485365 0.415785 0.591811 -0.305598
N6    N     N_R   0.813903 0.575354 0.085738 0.274861
O23   O     O_R   0.756850 0.640228 0.040484 -0.217953
O24   O     O_R   0.956998 0.535652 0.067041 -0.311094
N7    N     N_R   0.093145 0.066776 0.398004 0.224733
O25   O     O_R   0.084261 0.021733 0.463305 -0.332549
O26   O     O_R   0.991667 0.136880 0.391192 -0.301287
N8    N     N_R   0.327296 0.890763 0.904339 0.237146
O27   O     O_R   0.287662 0.876945 0.976671 -0.182169
O28   O     O_R   0.464765 0.847601 0.880808 -0.365966
N9    N     N_R   0.604035 0.303694 0.722892 0.223359
O29   O     O_R   0.553091 0.267152 0.657349 -0.251619
O30   O     O_R   0.570150 0.255786 0.784748 -0.443030
N10   N     N_R   0.925023 0.668871 0.223501 0.195264
O31   O     O_R   0.003262 0.685021 0.157457 -0.305968
O32   O     O_R   0.970347 0.721615 0.280849 -0.446805
N11   N     N_R   0.176252 0.201201 0.285160 0.247924
O33   O     O_R   0.209244 0.255905 0.343026 -0.237251
O34   O     O_R   0.065922 0.227421 0.232224 -0.510579
N12   N     N_R   0.268436 0.784695 0.780262 0.257174
O35   O     O_R   0.225236 0.729678 0.836580 -0.273548
O36   O     O_R   0.363395 0.751299 0.725025 -0.489161
N13   N     N_R   0.931301 0.548302 0.875830 0.276455
O37   O     O_R   0.006947 0.506719 0.933209 -0.315713
O38   O     O_R   0.887254 0.631947 0.886797 -0.280210
N14   N     N_R   0.529475 0.451406 0.378383 0.268571
O39   O     O_R   0.528188 0.492981 0.445349 -0.362197
O40   O     O_R   0.442601 0.376589 0.374177 -0.343688
N15   N     N_R   0.396392 0.934763 0.122158 0.264831
O41   O     O_R   0.530677 0.941962 0.076847 -0.396628
O42   O     O_R   0.306449 0.860164 0.119230 -0.297717
N16   N     N_R   0.077961 0.055787 0.618341 0.265451
O43   O     O_R   0.922066 0.048660 0.588835 -0.303252
O44   O     O_R   0.178739 0.118395 0.590341 -0.239048
N17   N     N_R   0.957067 0.428729 0.620325 0.206967
O45   O     O_R   0.085246 0.425521 0.670147 -0.479370
O46   O     O_R   0.997196 0.396993 0.551951 -0.249795
N18   N     N_R   0.532220 0.547473 0.129646 0.222297
O47   O     O_R   0.410051 0.596768 0.160314 -0.424867
O48   O     O_R   0.489630 0.499756 0.068707 -0.345203
N19   N     N_R   0.391229 0.059705 0.408580 0.239727
O49   O     O_R   0.501637 0.995906 0.425023 -0.400233
O50   O     O_R   0.386142 0.129198 0.455728 -0.190333
N20   N     N_R   0.039709 0.951724 0.892153 0.218071
O51   O     O_R   0.952634 0.025445 0.882575 -0.488240
O52   O     O_R   0.986575 0.895860 0.946190 -0.271093
N21   N     N_2   0.907021 0.308042 0.732406 -0.136741
H33   H     H_    0.938308 0.280839 0.786142 0.150771
C45   C     C_3   0.933303 0.241432 0.672055 -0.441865
H34   H     H_    0.074282 0.237892 0.662413 0.261671
H35   H     H_    0.872810 0.259050 0.615671 0.301308
H36   H     H_    0.875850 0.176293 0.690379 0.227189
N22   N     N_2   0.623324 0.693768 0.227146 -0.126372
H37   H     H_    0.604690 0.727730 0.279079 0.140286
C46   C     C_3   0.623616 0.756152 0.160790 -0.412586
H38   H     H_    0.523271 0.737899 0.116821 0.318823
H39   H     H_    0.748684 0.761207 0.130995 0.285990
H40   H     H_    0.602540 0.825214 0.181344 0.180311
N23   N     N_2   0.463246 0.154574 0.268889 -0.172669
H41   H     H_    0.466239 0.203419 0.225501 0.153551
C47   C     C_3   0.586906 0.182577 0.329086 -0.603642
H42   H     H_    0.699216 0.216147 0.301205 0.215870
H43   H     H_    0.647002 0.125597 0.360224 0.272115
H44   H     H_    0.529241 0.229434 0.371067 0.343679
N24   N     N_2   0.994484 0.846208 0.756361 -0.178767
H45   H     H_    0.989068 0.801304 0.710443 0.180513
C48   C     C_3   0.878242 0.811344 0.815264 -0.633526
H46   H     H_    0.781302 0.765191 0.789493 0.212765
H47   H     H_    0.798734 0.865541 0.839059 0.255883
H48   H     H_    0.948616 0.777508 0.862639 0.350054
N25   N     N_2   0.376247 0.529581 0.690534 -0.080558
H49   H     H_    0.285794 0.537090 0.734121 0.179463
C49   C     C_3   0.295056 0.572944 0.622693 -0.328640
H50   H     H_    0.161899 0.552906 0.611164 0.185345
H51   H     H_    0.354744 0.552582 0.566763 0.266550
H52   H     H_    0.280538 0.646154 0.632491 0.223780
N26   N     N_2   0.088647 0.478194 0.194143 -0.122404
H53   H     H_    0.108265 0.544730 0.182509 0.275665
C50   C     C_3   0.210984 0.418577 0.158864 -0.459460
H54   H     H_    0.332292 0.442530 0.178761 0.208185
H55   H     H_    0.207122 0.426559 0.094435 0.300041
H56   H     H_    0.200805 0.347851 0.177124 0.229032
N27   N     N_2   0.908168 0.901509 0.285273 -0.096981
H57   H     H_    0.834638 0.871090 0.242453 0.223091
C51   C     C_3   0.800103 0.943088 0.342691 -0.642079
H58   H     H_    0.732006 0.000581 0.316231 0.193598
H59   H     H_    0.863890 0.964046 0.395670 0.312329
H60   H     H_    0.711882 0.889713 0.364511 0.252291
N28   N     N_2   0.597838 0.996204 0.833877 -0.140127
H61   H     H_    0.712601 0.002519 0.803808 0.202938
C52   C     C_3   0.617841 0.006376 0.918386 -0.342188
H62   H     H_    0.689247 0.947931 0.943137 0.287063
H63   H     H_    0.494936 0.009575 0.950150 0.204491
H64   H     H_    0.690485 0.067688 0.931625 0.261480
N29   N     N_R   0.577516 0.550709 0.873039 0.260086
O53   O     O_R   0.628655 0.521095 0.940971 -0.303627
O54   O     O_R   0.503678 0.630032 0.870661 -0.256397
N30   N     N_R   0.882585 0.437196 0.382896 0.254953
O55   O     O_R   0.841435 0.472279 0.449734 -0.363299
O56   O     O_R   0.920751 0.351315 0.380508 -0.269634
N31   N     N_R   0.028150 0.969418 0.116498 0.274170
O57   O     O_R   0.096384 0.999825 0.052345 -0.329596
O58   O     O_R   0.903708 0.910366 0.109862 -0.343310
N32   N     N_R   0.475322 0.032027 0.640313 0.264682
O59   O     O_R   0.424552 0.010947 0.570063 -0.280421
O60   O     O_R   0.605908 0.087402 0.646210 -0.319802

loop_
_geom_bond_atom_site_label_1
_geom_bond_atom_site_label_2
_geom_bond_distance
_ccdc_geom_bond_type
C38   N2    1.471609 S    
O17   V3    1.873543 S    
C18   N18   1.486938 S    
N2    H21   1.024193 S    
O1    C5    1.411329 A    
N23   H41   1.031757 S    
C20   C36   1.667789 S    
O19   V1    1.870268 S    
O13   V1    2.104644 S    
N29   O53   1.293739 A    
O3    C7    1.430373 A    
C43   H26   1.096237 S    
C10   H6    1.100869 S    
C1    C32   1.634320 S    
C10   C26   1.552241 S    
C32   C36   1.629928 S    
C11   C15   1.564378 S    
C50   H55   1.103473 S    
C31   C39   1.632162 S    
C46   H38   1.104750 S    
C43   H28   1.104703 S    
N11   O33   1.298762 A    
C47   H43   1.092719 S    
C48   H46   1.099986 S    
O7    C3    1.418533 A    
N24   C48   1.443934 S    
N3    H25   1.016713 S    
C34   N22   1.466875 S    
C41   H18   1.094928 S    
C35   N11   1.468054 S    
O9    V1    2.126974 S    
C30   C38   1.618702 S    
N19   O50   1.304246 A    
O10   V2    2.120081 S    
C39   N3    1.456143 S    
N26   C50   1.423592 S    
C14   N14   1.477594 S    
O4    C8    1.416611 A    
N11   O34   1.290848 A    
C45   H35   1.094073 S    
N28   C52   1.454203 S    
O1    V3    2.099575 S    
C9    C13   1.561769 S    
N6    O23   1.300947 A    
O2    V4    2.108425 S    
O3    V1    2.106407 S    
C30   C34   1.635354 S    
N19   O49   1.294729 A    
C23   H15   1.109860 S    
C18   C34   1.659001 S    
C17   C25   1.655390 S    
C9    C25   1.558236 S    
C1    O15   1.410828 A    
C24   C40   1.616731 S    
N22   H37   1.028206 S    
C5    C27   1.607244 S    
C2    O16   1.395347 A    
N14   O39   1.296038 A    
N25   C49   1.455102 S    
C19   C27   1.623921 S    
O2    C6    1.429733 A    
N12   O36   1.293052 A    
C20   C28   1.668594 S    
C29   C33   1.632155 S    
C10   C14   1.585407 S    
C13   H9    1.086216 S    
N21   C45   1.438533 S    
C11   H7    1.107216 S    
C49   H52   1.098965 S    
C19   C35   1.665442 S    
C2    C31   1.640486 S    
O11   C7    1.403906 A    
O15   V3    2.108457 S    
O12   C8    1.409462 A    
C31   C35   1.638860 S    
C45   H36   1.104420 S    
N29   O54   1.300062 A    
C38   N30   1.475011 S    
C16   C32   1.587317 S    
C46   H39   1.093545 S    
C22   H14   1.095729 S    
N1    H17   1.028835 S    
C47   H44   1.091452 S    
O5    V1    2.120105 S    
C48   H47   1.086402 S    
C3    C30   1.618994 S    
O7    V3    2.127556 S    
C13   C29   1.568631 S    
N31   O57   1.295816 A    
O8    V4    2.114498 S    
C44   H30   1.105948 S    
C21   C37   1.622082 S    
C12   H4    1.104843 S    
C33   N9    1.494973 S    
N18   O48   1.295418 A    
N16   O43   1.300279 A    
C23   C39   1.594252 S    
C47   H42   1.106558 S    
C36   N12   1.487373 S    
C50   H56   1.091669 S    
C15   H11   1.088926 S    
N28   H61   1.028140 S    
C18   C26   1.631995 S    
O11   V3    2.114471 S    
C9    H1    1.091539 S    
C51   H58   1.090611 S    
C22   N26   1.438962 S    
N17   O46   1.295192 A    
C52   H64   1.087395 S    
C11   H3    1.050512 S    
N26   H53   1.013178 S    
C51   H59   1.069823 S    
O5    C1    1.410895 A    
N5    O22   1.292794 A    
C19   N19   1.473818 S    
N4    H29   1.014072 S    
C7    C25   1.640430 S    
C37   N1    1.460475 S    
O8    C4    1.423798 A    
N22   C46   1.456315 S    
O9    C5    1.400260 A    
N7    O26   1.298574 A    
C42   H24   1.101607 S    
C21   C25   1.617586 S    
N24   H45   1.026524 S    
C15   C31   1.593492 S    
N16   O44   1.299747 A    
C22   C26   1.588378 S    
O14   V2    2.106441 S    
C36   N24   1.475487 S    
N14   O40   1.293525 A    
C41   H19   1.101718 S    
C4    C29   1.628451 S    
N30   O56   1.300890 A    
C52   H63   1.093615 S    
N32   O59   1.294036 A    
C44   H32   1.093303 S    
N32   O60   1.299367 A    
N2    C42   1.440136 S    
C40   N4    1.454966 S    
N20   O52   1.303282 A    
C12   H8    1.110305 S    
C19   N7    1.476742 S    
C42   H23   1.100282 S    
C33   N21   1.463674 S    
C46   H40   1.090304 S    
N10   O31   1.301789 A    
N10   O32   1.295916 A    
C40   N32   1.478193 S    
N13   O37   1.286961 A    
O16   V4    2.099606 S    
C48   H48   1.087620 S    
N27   H57   1.023895 S    
N15   O42   1.302218 A    
C3    O13   1.396858 A    
C8    C26   1.633467 S    
N7    O25   1.296952 A    
O6    V2    2.126998 S    
C10   H2    1.086796 S    
C17   C33   1.670971 S    
C21   H13   1.102670 S    
N18   O47   1.300057 A    
C37   N29   1.486067 S    
N1    C41   1.423040 S    
N8    O28   1.299137 A    
C43   H27   1.067050 S    
N8    O27   1.287424 A    
O18   V4    1.873543 S    
C18   N6    1.466040 S    
O12   V4    2.127529 S    
C34   N10   1.499219 S    
N5    O21   1.301918 A    
C14   H10   1.101431 S    
C23   C27   1.592274 S    
C44   H31   1.060926 S    
C16   N16   1.462950 S    
C24   C28   1.560404 S    
C9    H5    1.087091 S    
O10   C6    1.400353 A    
N9    O30   1.296236 A    
N21   H33   1.025199 S    
C51   H60   1.106450 S    
C32   C40   1.625214 S    
C12   C28   1.564307 S    
N9    O29   1.298453 A    
C21   N25   1.491500 S    
C29   C37   1.600443 S    
C50   H54   1.051799 S    
N3    C43   1.446678 S    
N12   O35   1.301237 A    
C39   N31   1.481708 S    
C13   N13   1.467975 S    
O20   V2    1.870268 S    
N6    O24   1.287673 A    
C12   C16   1.540734 S    
C35   N23   1.483064 S    
C17   N17   1.511525 S    
C15   N15   1.455391 S    
C52   H62   1.102428 S    
C14   C30   1.613375 S    
N15   O41   1.298459 A    
O6    C2    1.429166 A    
C22   C38   1.615438 S    
C6    C28   1.642715 S    
C49   H50   1.082716 S    
C23   N27   1.453767 S    
C17   N5    1.492250 S    
C16   H12   1.085575 S    
C41   H20   1.100650 S    
N30   O55   1.292670 A    
C24   H16   1.103851 S    
N23   C47   1.453519 S    
N25   H49   1.027295 S    
C4    O14   1.393210 A    
C45   H34   1.098664 S    
N31   O58   1.300019 A    
C20   N8    1.496978 S    
N20   O51   1.285341 A    
C11   C27   1.527337 S    
C49   H51   1.102581 S    
C42   H22   1.093711 S    
N17   O45   1.295732 A    
C20   N20   1.472496 S    
N4    C44   1.437636 S    
O4    V2    2.104609 S    
C24   N28   1.457066 S    
N27   C51   1.426865 S    
N13   O38   1.293391 A    
