data_mof_unit_10016.cif
_audit_creation_date              2012-10-26T21:33:21-0400
_audit_creation_method            fapswitch 2.2
_symmetry_space_group_name_H-M    P1
_symmetry_Int_Tables_number       1
_space_group_crystal_system       triclinic
_cell_length_a                    28.245461
_cell_length_b                    18.481601
_cell_length_c                    17.062492
_cell_angle_alpha                 90.252009
_cell_angle_beta                  60.701722
_cell_angle_gamma                 90.374049
_cell_volume                      7767.46595375

loop_
_atom_site_label
_atom_site_type_symbol
_atom_type_description
_atom_site_fract_x
_atom_site_fract_y
_atom_site_fract_z
_atom_type_partial_charge
C1    C     C_R   0.701873 0.268837 0.675770 0.882077
C2    C     C_R   0.093969 0.501292 0.518136 0.073418
C3    C     C_R   0.189740 0.217260 0.905663 0.068061
C4    C     C_R   0.073788 0.099917 0.934220 0.907087
C5    C     C_R   0.926212 0.900083 0.065780 0.907087
C6    C     C_R   0.926018 0.099603 0.066105 0.905247
C7    C     C_R   0.073982 0.900397 0.933895 0.905247
C8    C     C_R   0.573788 0.599917 0.934220 0.907087
C9    C     C_R   0.426212 0.400083 0.065780 0.907087
C10   C     C_R   0.426018 0.599603 0.066105 0.905247
C11   C     C_R   0.573982 0.400396 0.933895 0.905247
C12   C     C_R   0.522074 0.119476 0.582187 0.008650
C13   C     C_R   0.406031 0.998708 0.481864 0.073418
C14   C     C_R   0.477926 0.880524 0.417813 0.008649
C15   C     C_R   0.426297 0.116365 0.568167 0.008381
C16   C     C_R   0.573703 0.883635 0.431833 0.008381
C17   C     C_R   0.022074 0.619476 0.582187 0.008650
C18   C     C_R   0.977926 0.380524 0.417813 0.008650
C19   C     C_R   0.926297 0.616365 0.568167 0.008381
C20   C     C_R   0.073703 0.383635 0.431833 0.008381
C21   C     C_R   0.484003 0.176403 0.619476 0.132181
C22   C     C_R   0.515997 0.823597 0.380524 0.132181
C23   C     C_R   0.435897 0.174539 0.613188 0.127569
C24   C     C_R   0.593969 0.001292 0.518136 0.073418
C25   C     C_R   0.564103 0.825461 0.386812 0.127569
C26   C     C_R   0.984003 0.676403 0.619476 0.132181
C27   C     C_R   0.015997 0.323597 0.380524 0.132181
C28   C     C_R   0.935897 0.674539 0.613188 0.127569
C29   C     C_R   0.064103 0.325461 0.386812 0.127569
C30   C     C_R   0.463643 0.058797 0.532963 -0.002023
C31   C     C_R   0.536357 0.941203 0.467037 -0.002023
C32   C     C_R   0.511007 0.059939 0.540934 -0.005268
C33   C     C_R   0.488993 0.940061 0.459066 -0.005268
C34   C     C_R   0.963643 0.558797 0.532963 -0.002023
C35   C     C_R   0.119748 0.385311 0.443239 -0.189062
C36   C     C_R   0.036357 0.441203 0.467037 -0.002023
C37   C     C_R   0.011007 0.559939 0.540934 -0.005268
C38   C     C_R   0.988993 0.440061 0.459066 -0.005268
C39   C     C_R   0.952877 0.499086 0.491524 0.005878
C40   C     C_R   0.047123 0.500914 0.508476 0.005879
C41   C     C_R   0.452877 0.999086 0.491524 0.005878
C42   C     C_R   0.547123 0.000914 0.508476 0.005878
C43   C     C_R   0.892030 0.437072 0.448641 0.047731
C44   C     C_R   0.107970 0.562928 0.551359 0.047731
C45   C     C_R   0.127893 0.440557 0.492715 0.035584
C46   C     C_R   0.880252 0.614689 0.556761 -0.189062
C47   C     C_R   0.872107 0.559443 0.507285 0.035584
C48   C     C_R   0.392030 0.937072 0.448641 0.047731
C49   C     C_R   0.607970 0.062928 0.551359 0.047731
C50   C     C_R   0.627893 0.940557 0.492715 0.035584
C51   C     C_R   0.372107 0.059443 0.507285 0.035584
C52   C     C_R   0.841175 0.435966 0.449956 -0.122470
C53   C     C_R   0.158825 0.564034 0.550044 -0.122470
C54   C     C_R   0.169499 0.438181 0.517050 -0.111001
C55   C     C_R   0.830501 0.561819 0.482950 -0.111001
C56   C     C_R   0.341175 0.935966 0.449956 -0.122470
C57   C     C_R   0.928903 0.379441 0.414746 -0.185999
C58   C     C_R   0.658825 0.064034 0.550044 -0.122470
C59   C     C_R   0.669499 0.938181 0.517050 -0.111001
C60   C     C_R   0.330501 0.061819 0.482950 -0.111001
C61   C     C_R   0.815113 0.499880 0.456213 -0.284632
C62   C     C_R   0.184887 0.500120 0.543787 -0.284632
C63   C     C_R   0.315113 0.999880 0.456213 -0.284632
C64   C     C_R   0.684887 0.000120 0.543787 -0.284632
C65   C     C_R   0.071097 0.620559 0.585254 -0.185999
C66   C     C_R   0.619747 0.885311 0.443239 -0.189062
C67   C     C_R   0.380252 0.114689 0.556761 -0.189062
C68   C     C_R   0.428903 0.879441 0.414746 -0.185998
C69   C     C_R   0.298127 0.731163 0.324230 0.882077
C70   C     C_R   0.571097 0.120558 0.585254 -0.185998
C71   C     C_R   0.720651 0.266286 0.954032 0.112187
C72   C     C_R   0.279349 0.733714 0.045968 0.112187
C73   C     C_R   0.279125 0.265893 0.046394 0.114329
C74   C     C_R   0.720875 0.734107 0.953606 0.114329
C75   C     C_R   0.220651 0.766286 0.954032 0.112187
C76   C     C_R   0.779349 0.233714 0.045968 0.112187
C77   C     C_R   0.779125 0.765893 0.046394 0.114329
C78   C     C_R   0.220875 0.234107 0.953606 0.114329
C79   C     C_R   0.744517 0.198023 0.945120 -0.171389
C80   C     C_R   0.298193 0.268694 0.324095 0.884949
C81   C     C_R   0.255483 0.801977 0.054880 -0.171390
C82   C     C_R   0.255009 0.197628 0.054443 -0.141880
C83   C     C_R   0.744991 0.802372 0.945557 -0.141880
C84   C     C_R   0.244517 0.698023 0.945120 -0.171390
C85   C     C_R   0.755483 0.301977 0.054880 -0.171390
C86   C     C_R   0.755009 0.697628 0.054443 -0.141880
C87   C     C_R   0.244991 0.302372 0.945557 -0.141880
C88   C     C_R   0.773304 0.181931 0.990503 -0.169153
C89   C     C_R   0.226696 0.818069 0.009497 -0.169153
C90   C     C_R   0.226443 0.181879 0.008509 -0.147781
C91   C     C_R   0.701807 0.731306 0.675905 0.884949
C92   C     C_R   0.773556 0.818120 0.991491 -0.147781
C93   C     C_R   0.273304 0.681931 0.990503 -0.169153
C94   C     C_R   0.726696 0.318069 0.009497 -0.169153
C95   C     C_R   0.726443 0.681879 0.008509 -0.147781
C96   C     C_R   0.273556 0.318121 0.991491 -0.147781
C97   C     C_R   0.643407 0.327288 0.946131 -0.198934
C98   C     C_R   0.356593 0.672712 0.053869 -0.198934
C99   C     C_R   0.356888 0.326062 0.053677 -0.189300
C100  C     C_R   0.643112 0.673938 0.946323 -0.189299
C101  C     C_R   0.143407 0.827288 0.946131 -0.198934
C102  C     C_R   0.201873 0.768837 0.675770 0.882077
C103  C     C_R   0.856593 0.172712 0.053869 -0.198934
C104  C     C_R   0.856888 0.826062 0.053677 -0.189300
C105  C     C_R   0.143112 0.173938 0.946323 -0.189299
C106  C     C_R   0.616449 0.347392 0.898325 -0.067954
C107  C     C_R   0.383551 0.652607 0.101675 -0.067954
C108  C     C_R   0.383851 0.346684 0.101353 -0.069084
C109  C     C_R   0.616149 0.653316 0.898647 -0.069084
C110  C     C_R   0.116449 0.847392 0.898325 -0.067953
C111  C     C_R   0.883551 0.152607 0.101675 -0.067954
C112  C     C_R   0.883851 0.846684 0.101353 -0.069084
C113  C     C_R   0.798127 0.231163 0.324230 0.882077
C114  C     C_R   0.116149 0.153316 0.898647 -0.069084
C115  C     C_R   0.633136 0.322032 0.813224 -0.248871
C116  C     C_R   0.366864 0.677968 0.186776 -0.248871
C117  C     C_R   0.367084 0.321770 0.186564 -0.256372
C118  C     C_R   0.632916 0.678230 0.813435 -0.256372
C119  C     C_R   0.133136 0.822032 0.813224 -0.248871
C120  C     C_R   0.866864 0.177968 0.186776 -0.248871
C121  C     C_R   0.867084 0.821770 0.186564 -0.256372
C122  C     C_R   0.132916 0.178230 0.813435 -0.256372
C123  C     C_R   0.679453 0.281541 0.771020 -0.054744
C124  C     C_R   0.798192 0.768694 0.324095 0.884949
C125  C     C_R   0.320547 0.718459 0.228980 -0.054744
C126  C     C_R   0.320568 0.281178 0.228928 -0.056539
C127  C     C_R   0.679432 0.718822 0.771072 -0.056539
C128  C     C_R   0.179453 0.781541 0.771020 -0.054744
C129  C     C_R   0.820547 0.218459 0.228980 -0.054744
C130  C     C_R   0.820568 0.781178 0.228928 -0.056539
C131  C     C_R   0.179432 0.218822 0.771072 -0.056539
C132  C     C_R   0.707513 0.260539 0.817220 -0.193072
C133  C     C_R   0.292487 0.739461 0.182780 -0.193072
C134  C     C_R   0.292302 0.259848 0.182904 -0.188574
C135  C     C_R   0.201807 0.231306 0.675905 0.884949
C136  C     C_R   0.707698 0.740152 0.817096 -0.188574
C137  C     C_R   0.207513 0.760539 0.817220 -0.193072
C138  C     C_R   0.792487 0.239461 0.182780 -0.193072
C139  C     C_R   0.792302 0.759848 0.182904 -0.188574
C140  C     C_R   0.207698 0.240152 0.817096 -0.188574
C141  C     C_R   0.691114 0.129566 0.535652 0.885409
C142  C     C_R   0.308886 0.870434 0.464347 0.885409
C143  C     C_R   0.303211 0.127717 0.482839 0.894410
C144  C     C_R   0.696789 0.872282 0.517161 0.894410
C145  C     C_R   0.191114 0.629566 0.535652 0.885409
C146  C     C_R   0.906031 0.498708 0.481864 0.073418
C147  C     C_R   0.808886 0.370434 0.464347 0.885409
C148  C     C_R   0.803211 0.627717 0.482839 0.894410
C149  C     C_R   0.196789 0.372283 0.517161 0.894410
C150  C     C_R   0.689675 0.283614 0.905857 0.071099
C151  C     C_R   0.310325 0.716386 0.094142 0.071099
C152  C     C_R   0.310260 0.282740 0.094336 0.068061
C153  C     C_R   0.689740 0.717260 0.905663 0.068061
C154  C     C_R   0.189675 0.783614 0.905857 0.071099
C155  C     C_R   0.810325 0.216386 0.094142 0.071099
C156  C     C_R   0.810260 0.782740 0.094336 0.068061
H1    H     H_    0.780081 0.500343 0.446080 0.197640
H2    H     H_    0.349479 0.155062 0.589240 0.197703
H3    H     H_    0.419977 0.835424 0.382418 0.191529
H4    H     H_    0.580023 0.164576 0.617582 0.191529
H5    H     H_    0.709923 0.371752 0.016769 0.133403
H6    H     H_    0.290077 0.628248 0.983231 0.133403
H7    H     H_    0.290589 0.371832 0.985023 0.132786
H8    H     H_    0.709411 0.628168 0.014977 0.132786
H9    H     H_    0.209923 0.871752 0.016769 0.133403
H10   H     H_    0.790077 0.128248 0.983231 0.133403
H11   H     H_    0.790589 0.871832 0.985023 0.132786
H12   H     H_    0.219919 0.499657 0.553920 0.197640
H13   H     H_    0.209411 0.128168 0.014977 0.132786
H14   H     H_    0.740163 0.156450 0.904154 0.133720
H15   H     H_    0.259837 0.843550 0.095846 0.133720
H16   H     H_    0.259038 0.155845 0.095049 0.136988
H17   H     H_    0.740962 0.844155 0.904951 0.136988
H18   H     H_    0.240163 0.656450 0.904154 0.133720
H19   H     H_    0.759837 0.343550 0.095846 0.133720
H20   H     H_    0.759038 0.655845 0.095049 0.136988
H21   H     H_    0.240962 0.344155 0.904951 0.136988
H22   H     H_    0.628973 0.346837 0.013963 0.151575
H23   H     H_    0.280081 0.000343 0.446080 0.197640
H24   H     H_    0.371027 0.653162 0.986037 0.151575
H25   H     H_    0.371485 0.345191 0.985722 0.164248
H26   H     H_    0.628515 0.654809 0.014278 0.164248
H27   H     H_    0.128973 0.846837 0.013963 0.151575
H28   H     H_    0.871027 0.153163 0.986037 0.151575
H29   H     H_    0.871485 0.845191 0.985722 0.164248
H30   H     H_    0.128515 0.154809 0.014278 0.164248
H31   H     H_    0.612087 0.338215 0.777364 0.189614
H32   H     H_    0.387913 0.661785 0.222635 0.189614
H33   H     H_    0.388205 0.338394 0.222400 0.181224
H34   H     H_    0.719919 0.999657 0.553920 0.197640
H35   H     H_    0.611795 0.661606 0.777600 0.181224
H36   H     H_    0.112087 0.838215 0.777364 0.189614
H37   H     H_    0.887913 0.161785 0.222635 0.189614
H38   H     H_    0.888205 0.838394 0.222400 0.181224
H39   H     H_    0.111795 0.161606 0.777600 0.181224
H40   H     H_    0.744603 0.229560 0.782930 0.155536
H41   H     H_    0.255397 0.770440 0.217069 0.155536
H42   H     H_    0.255070 0.228749 0.217195 0.177331
H43   H     H_    0.744930 0.771251 0.782805 0.177331
H44   H     H_    0.244603 0.729560 0.782930 0.155536
H45   H     H_    0.150521 0.344937 0.410759 0.197703
H46   H     H_    0.755397 0.270439 0.217069 0.155536
H47   H     H_    0.755070 0.728749 0.217195 0.177331
H48   H     H_    0.244930 0.271251 0.782805 0.177331
H49   H     H_    0.849479 0.655062 0.589240 0.197703
H50   H     H_    0.919977 0.335424 0.382418 0.191529
H51   H     H_    0.080023 0.664576 0.617582 0.191529
H52   H     H_    0.650521 0.844937 0.410759 0.197703
I1    I     I_    0.121688 0.238810 0.328931 -0.369926
I2    I     I_    0.878312 0.761190 0.671069 -0.369926
I3    I     I_    0.001537 0.234241 0.313481 -0.357611
I4    I     I_    0.998463 0.765759 0.686519 -0.357611
I5    I     I_    0.621688 0.738810 0.328931 -0.369926
I6    I     I_    0.378312 0.261190 0.671069 -0.369926
I7    I     I_    0.501537 0.734241 0.313481 -0.357610
I8    I     I_    0.498463 0.265759 0.686519 -0.357611
O1    O     O_R   0.746490 0.236330 0.638080 -0.634455
O2    O     O_R   0.325830 0.813840 0.483730 -0.622154
O3    O     O_R   0.325830 0.186160 0.483730 -0.627353
O4    O     O_R   0.674170 0.813840 0.516270 -0.627353
O5    O     O_R   0.174170 0.686160 0.516270 -0.622154
O6    O     O_R   0.825830 0.313840 0.483730 -0.622154
O7    O     O_R   0.825830 0.686160 0.483730 -0.627353
O8    O     O_R   0.174170 0.313840 0.516270 -0.627353
O9    O     O_R   0.739960 0.127620 0.525000 -0.623679
O10   O     O_R   0.260040 0.872380 0.475000 -0.623679
O11   O     O_R   0.260040 0.127620 0.475000 -0.627576
O12   O     O_R   0.253510 0.763670 0.361920 -0.634455
O13   O     O_R   0.739960 0.872380 0.525000 -0.627576
O14   O     O_R   0.239960 0.627620 0.525000 -0.623679
O15   O     O_R   0.760040 0.372380 0.475000 -0.623679
O16   O     O_R   0.760040 0.627620 0.475000 -0.627576
O17   O     O_R   0.239960 0.372380 0.525000 -0.627576
O18   O     O_R   0.680700 0.294870 0.629350 -0.619877
O19   O     O_R   0.319300 0.705130 0.370650 -0.619877
O20   O     O_R   0.319300 0.294870 0.370650 -0.625747
O21   O     O_R   0.680700 0.705130 0.629350 -0.625747
O22   O     O_R   0.180700 0.794870 0.629350 -0.619877
O23   O     O_R   0.253510 0.236330 0.361920 -0.628702
O24   O     O_R   0.819300 0.205130 0.370650 -0.619877
O25   O     O_R   0.819300 0.794870 0.370650 -0.625747
O26   O     O_R   0.180700 0.205130 0.629350 -0.625747
O27   O     O_R   0.062020 0.072840 0.007170 -0.620333
O28   O     O_R   0.937980 0.927160 0.992830 -0.620333
O29   O     O_R   0.937980 0.072840 0.992830 -0.629755
O30   O     O_R   0.062020 0.927160 0.007170 -0.629755
O31   O     O_R   0.562020 0.572840 0.007170 -0.620333
O32   O     O_R   0.437980 0.427160 0.992830 -0.620333
O33   O     O_R   0.437980 0.572840 0.992830 -0.629755
O34   O     O_R   0.746490 0.763670 0.638080 -0.628702
O35   O     O_R   0.562020 0.427160 0.007170 -0.629755
O36   O     O_R   0.947860 0.073950 0.109290 -0.613177
O37   O     O_R   0.052140 0.926050 0.890710 -0.613177
O38   O     O_R   0.052140 0.073950 0.890710 -0.623281
O39   O     O_R   0.947860 0.926050 0.109290 -0.623280
O40   O     O_R   0.447860 0.573950 0.109290 -0.613177
O41   O     O_R   0.552140 0.426050 0.890710 -0.613177
O42   O     O_R   0.552140 0.573950 0.890710 -0.623281
O43   O     O_R   0.447860 0.426050 0.109290 -0.623280
O44   O     O_R   0.246490 0.736330 0.638080 -0.634455
O45   O     O_R   0.753510 0.263670 0.361920 -0.634455
O46   O     O_R   0.753510 0.736330 0.361920 -0.628702
O47   O     O_R   0.246490 0.263670 0.638080 -0.628702
O48   O     O_R   0.674170 0.186160 0.516270 -0.622154
Zn1   Zn    Zn3+2 0.792340 0.208750 0.507670 0.992378
Zn2   Zn    Zn3+2 0.494040 0.500000 0.919480 0.980496
Zn3   Zn    Zn3+2 0.005960 0.000000 0.080520 0.980496
Zn4   Zn    Zn3+2 0.994040 0.000000 0.919480 0.980496
Zn5   Zn    Zn3+2 0.207660 0.791250 0.492330 0.992378
Zn6   Zn    Zn3+2 0.207660 0.208750 0.492330 0.997305
Zn7   Zn    Zn3+2 0.792340 0.791250 0.507670 0.997305
Zn8   Zn    Zn3+2 0.292340 0.708750 0.507670 0.992378
Zn9   Zn    Zn3+2 0.707660 0.291250 0.492330 0.992378
Zn10  Zn    Zn3+2 0.707660 0.708750 0.492330 0.997305
Zn11  Zn    Zn3+2 0.292340 0.291250 0.507670 0.997305
Zn12  Zn    Zn3+2 0.505960 0.500000 0.080520 0.980496

loop_
_geom_bond_atom_site_label_1
_geom_bond_atom_site_label_2
_ccdc_geom_bond_type
C100  C153  A    
C105  H30   S    
C46   H49   S    
C62   H12   S    
C145  O14   A    
C69   O12   A    
C77   C92   A    
C135  O47   A    
C66   H52   S    
C31   C42   A    
C21   I8    S    
C123  C132  A    
C27   C29   A    
C34   C37   A    
C24   C42   A    
C6    C111  S    
C121  H38   S    
C6    O29   A    
O21   Zn10  S    
C92   H11   S    
O42   Zn2   S    
C4    O38   A    
C122  H39   S    
C128  C137  A    
C139  C156  A    
C53   C145  S    
C14   C33   A    
C13   C41   A    
C44   C65   A    
C19   C46   A    
C71   C94   A    
C26   C28   A    
C3    C105  A    
C16   C31   A    
C83   C92   A    
C116  H32   S    
C7    O30   A    
O38   Zn4   S    
C59   C64   A    
C75   C84   A    
O18   Zn9   S    
C113  C129  S    
C60   C63   A    
C10   O40   A    
C17   C26   A    
O26   Zn6   S    
C80   O23   A    
C4    C114  S    
C148  O7    A    
O27   Zn3   S    
C144  O4    A    
C37   C40   A    
C131  C135  S    
C52   C61   A    
C140  H48   S    
O10   Zn5   S    
C38   C39   A    
C124  O25   A    
C43   C52   A    
C71   C150  S    
C145  O5    A    
C75   C154  S    
C28   I2    S    
O17   Zn11  S    
C55   C61   A    
C134  C152  A    
C16   C25   A    
C63   H23   S    
O15   Zn9   S    
C134  H42   S    
C85   C94   A    
C9    O32   A    
C80   O20   A    
C142  O2    A    
C136  H43   S    
C131  C140  A    
C18   C57   A    
C85   H19   S    
O12   Zn5   S    
C13   C51   A    
C20   C35   A    
C147  O15   A    
C44   C53   A    
C113  O24   A    
C129  C138  A    
C8    O42   A    
C8    O31   A    
C2    C44   A    
C22   C25   A    
C133  C151  A    
C137  C154  A    
C97   C150  A    
C31   C33   A    
C30   C41   A    
C132  C150  A    
C148  O16   A    
C149  O8    A    
C68   H3    S    
C100  H26   S    
C117  C126  A    
C76   C88   A    
C4    O27   A    
C86   H20   S    
C72   C81   A    
C101  H27   S    
C20   C29   A    
C56   C142  S    
C119  C128  A    
C15   C23   A    
C90   H13   S    
C47   C146  A    
C69   C125  S    
C100  C109  A    
C2    C45   A    
C22   I7    S    
C12   C32   A    
C141  O9    A    
C10   C107  S    
O34   Zn7   S    
C84   H18   S    
C130  C139  A    
C74   C95   A    
C126  C134  A    
O9    Zn1   S    
C79   C88   A    
C109  C118  A    
C142  O10   A    
C54   C149  S    
C98   C151  A    
O37   Zn4   S    
C24   C50   A    
O46   Zn10  S    
C82   H16   S    
C102  O22   A    
O19   Zn8   S    
C115  C123  A    
C18   C27   A    
O4    Zn10  S    
C120  C129  A    
C74   C83   A    
O16   Zn10  S    
C105  C114  A    
C36   C40   A    
C127  C136  A    
C10   O33   A    
C104  C112  A    
O6    Zn1   S    
C77   C156  S    
C35   H45   S    
C17   C37   A    
C54   C62   A    
C58   C64   A    
C101  C110  A    
O8    Zn6   S    
C57   H50   S    
C103  C111  A    
C11   O35   A    
C71   C79   A    
C34   C39   A    
C74   C153  S    
C111  C120  A    
C9    C108  S    
C114  C122  A    
O33   Zn2   S    
O44   Zn8   S    
O22   Zn5   S    
C103  H28   S    
C1    C123  S    
O7    Zn7   S    
C99   C108  A    
C61   H1    S    
C87   H21   S    
C59   C144  S    
C115  H31   S    
C53   C62   A    
C144  O13   A    
O36   Zn3   S    
C137  H44   S    
C124  O46   A    
C1    O18   A    
C72   C151  S    
C15   C67   A    
C87   C96   A    
C91   O21   A    
C11   C106  S    
C27   I3    S    
C56   C63   A    
C124  C130  S    
O43   Zn12  S    
C121  C130  A    
C113  O45   A    
C119  H36   S    
C19   C28   A    
C50   C66   A    
C94   H5    S    
C89   H9    S    
C147  O6    A    
C91   C127  S    
C72   C93   A    
C103  C155  A    
C77   C86   A    
C52   C147  S    
O47   Zn11  S    
C116  C125  A    
C21   C23   A    
C73   C152  S    
O1    Zn1   S    
C104  C156  A    
O29   Zn4   S    
C16   C66   A    
C49   C58   A    
C50   C59   A    
C98   H24   S    
O30   Zn3   S    
C35   C45   A    
C78   C87   A    
C11   O41   A    
C122  C131  A    
C138  H46   S    
O5    Zn5   S    
C135  O26   A    
C15   C30   A    
C47   C55   A    
C125  C133  A    
C24   C49   A    
C48   C56   A    
C138  C155  A    
C12   C70   A    
C46   C47   A    
C133  H41   S    
O23   Zn6   S    
O45   Zn9   S    
C17   C65   A    
C108  C117  A    
O41   Zn2   S    
C118  H35   S    
C120  H37   S    
C143  O11   A    
C48   C68   A    
C19   C34   A    
C110  C119  A    
C45   C54   A    
C13   C48   A    
C64   H34   S    
C96   H7    S    
C79   H14   S    
C29   I1    S    
C65   H51   S    
C5    C112  S    
C99   C152  A    
C76   C155  S    
C102  C128  S    
O48   Zn9   S    
C82   C90   A    
C7    C110  S    
C6    O36   A    
C106  C115  A    
C49   C70   A    
O20   Zn11  S    
C33   C41   A    
C14   C22   A    
C51   C60   A    
C9    O43   A    
C18   C38   A    
C81   C89   A    
C112  C121  A    
C60   C143  S    
C43   C146  A    
C139  H47   S    
C8    C109  S    
C36   C38   A    
C30   C32   A    
C136  C153  A    
O13   Zn7   S    
C58   C141  S    
C5    O39   A    
C97   H22   S    
C51   C67   A    
C93   H6    S    
C80   C126  S    
C101  C154  A    
C78   C90   A    
C26   I4    S    
O3    Zn11  S    
C55   C148  S    
C12   C21   A    
C39   C146  A    
C25   I5    S    
C141  O48   A    
C102  O44   A    
C73   C82   A    
O14   Zn8   S    
C67   H2    S    
C70   H4    S    
C84   C93   A    
C81   H15   S    
C5    O28   A    
C69   O19   A    
C83   H17   S    
O24   Zn1   S    
O11   Zn6   S    
C149  O17   A    
C107  C116  A    
C99   H25   S    
O2    Zn8   S    
C86   C95   A    
C43   C57   A    
C143  O3    A    
C20   C36   A    
C2    C40   A    
O32   Zn2   S    
O39   Zn3   S    
C117  H33   S    
C118  C127  A    
C75   C89   A    
C91   O34   A    
O35   Zn12  S    
C132  H40   S    
C32   C42   A    
O40   Zn12  S    
C1    O1    A    
C3    C140  A    
O25   Zn7   S    
C73   C96   A    
O28   Zn4   S    
O31   Zn12  S    
C95   H8    S    
C3    C78   S    
C104  H29   S    
C76   C85   A    
C88   H10   S    
C14   C68   A    
C7    O37   A    
C98   C107  A    
C23   I6    S    
C97   C106  A    
