data_mof_unit_11782.cif
_audit_creation_date              2012-10-26T17:13:10-0400
_audit_creation_method            fapswitch 2.2
_symmetry_space_group_name_H-M    P1
_symmetry_Int_Tables_number       1
_space_group_crystal_system       triclinic
_cell_length_a                    16.72068
_cell_length_b                    16.837225
_cell_length_c                    16.888334
_cell_angle_alpha                 67.681115
_cell_angle_beta                  67.382064
_cell_angle_gamma                 67.646701
_cell_volume                      3904.32805269

loop_
_atom_site_label
_atom_site_type_symbol
_atom_type_description
_atom_site_fract_x
_atom_site_fract_y
_atom_site_fract_z
_atom_type_partial_charge
C1    C     C_R   0.323789 0.953465 0.452632 -0.013582
C2    C     C_R   0.678136 0.044194 0.547545 -0.003582
C3    C     C_R   0.023977 0.431874 0.301319 -0.008436
C4    C     C_R   0.058810 0.543239 0.674581 -0.005679
C5    C     C_R   0.429005 0.309474 0.009115 -0.018809
C6    C     C_R   0.569699 0.686733 0.999060 -0.012593
C7    C     C_R   0.564771 0.002965 0.687974 -0.014704
C8    C     C_R   0.452048 0.965317 0.318301 -0.006322
C9    C     C_R   0.676473 0.545652 0.050259 -0.012157
C10   C     C_R   0.322170 0.450927 0.959101 -0.014823
C11   C     C_R   0.058613 0.674682 0.543540 -0.003910
C12   C     C_R   0.024740 0.301267 0.430994 -0.011143
C13   C     C_R   0.457022 0.980278 0.454970 -0.022823
C14   C     C_R   0.549754 0.007694 0.547464 -0.026766
C15   C     C_R   0.044819 0.436088 0.435800 -0.022537
C16   C     C_R   0.057277 0.533496 0.533535 -0.022717
C17   C     C_R   0.448658 0.450527 0.998813 -0.022280
C18   C     C_R   0.548977 0.544728 0.013224 -0.022340
C19   C     C_R   0.030652 0.827841 0.563866 0.845727
C20   C     C_R   0.983430 0.169300 0.431778 0.892480
C21   C     C_R   0.827906 0.563066 0.031912 0.871152
C22   C     C_R   0.172125 0.436144 0.969901 0.829085
C23   C     C_R   0.567734 0.021112 0.829448 0.883455
C24   C     C_R   0.435544 0.971334 0.171800 0.873463
C25   C     C_R   0.431503 0.169947 0.981467 0.891802
C26   C     C_R   0.568213 0.829409 0.020211 0.863255
C27   C     C_R   0.983463 0.431720 0.169356 0.880846
C28   C     C_R   0.030771 0.563914 0.827720 0.847171
C29   C     C_R   0.172356 0.969413 0.436068 0.825279
C30   C     C_R   0.828016 0.030971 0.563542 0.866582
C31   C     C_R   0.410542 0.966842 0.408285 0.062659
C32   C     C_R   0.596847 0.019746 0.594237 0.072764
C33   C     C_R   0.029336 0.390318 0.389951 0.075730
C34   C     C_R   0.057700 0.584128 0.584253 0.066208
C35   C     C_R   0.400208 0.403613 0.988640 0.073146
C36   C     C_R   0.597969 0.592307 0.021627 0.069986
C37   C     C_R   0.273329 0.949552 0.403206 -0.211465
C38   C     C_R   0.727947 0.049276 0.596484 -0.209368
C39   C     C_R   0.989782 0.392678 0.262866 -0.224161
C40   C     C_R   0.053313 0.596033 0.727032 -0.196487
C41   C     C_R   0.391848 0.265710 0.978934 -0.233048
C42   C     C_R   0.607746 0.732450 0.025707 -0.231242
C43   C     C_R   0.605846 0.027294 0.732742 -0.222276
C44   C     C_R   0.403468 0.954045 0.270970 -0.198855
C45   C     C_R   0.727801 0.595657 0.051439 -0.191582
C46   C     C_R   0.271863 0.402309 0.954165 -0.196807
C47   C     C_R   0.053200 0.727169 0.596067 -0.229987
C48   C     C_R   0.989957 0.262818 0.392486 -0.211118
C49   C     C_R   0.490413 0.965756 0.732283 -0.207869
C50   C     C_R   0.542604 0.971327 0.280945 -0.177362
C51   C     C_R   0.072480 0.707059 0.449707 -0.155673
C52   C     C_R   0.054505 0.255873 0.509475 -0.188489
C53   C     C_R   0.699198 0.451201 0.079519 -0.154655
C54   C     C_R   0.299057 0.545055 0.931880 -0.161707
C55   C     C_R   0.292842 0.939118 0.546368 -0.169735
C56   C     C_R   0.707130 0.062203 0.453523 -0.190318
C57   C     C_R   0.496235 0.264022 0.055229 -0.208962
C58   C     C_R   0.502021 0.731048 0.954083 -0.205117
C59   C     C_R   0.052563 0.511417 0.256359 -0.204759
C60   C     C_R   0.073157 0.449124 0.706509 -0.155084
C61   C     C_R   0.319536 0.934627 0.318144 0.355904
C62   C     C_R   0.682866 0.059501 0.682843 0.344339
C63   C     C_R   0.959747 0.315989 0.316249 0.356337
C64   C     C_R   0.065705 0.682551 0.682262 0.312139
C65   C     C_R   0.316910 0.316053 0.944110 0.364972
C66   C     C_R   0.683531 0.682900 0.059494 0.355368
C67   C     C_R   0.664750 0.043428 0.408569 0.092323
C68   C     C_R   0.339816 0.949252 0.592823 0.081786
C69   C     C_R   0.070975 0.399809 0.657134 0.079717
C70   C     C_R   0.060582 0.559729 0.303194 0.092929
C71   C     C_R   0.451849 0.684669 0.947966 0.103506
C72   C     C_R   0.545033 0.310181 0.064773 0.103403
C73   C     C_R   0.581742 0.998600 0.321657 0.075098
C74   C     C_R   0.438174 0.964288 0.685964 0.104624
C75   C     C_R   0.349592 0.591585 0.937203 0.079649
C76   C     C_R   0.647486 0.403944 0.076168 0.083780
C77   C     C_R   0.062285 0.302572 0.558093 0.096249
C78   C     C_R   0.069909 0.658059 0.400497 0.079707
C79   C     C_R   0.702955 0.046942 0.317883 -0.184860
C80   C     C_R   0.306711 0.935921 0.685417 -0.175375
C81   C     C_R   0.082304 0.307242 0.691326 -0.167501
C82   C     C_R   0.076303 0.644160 0.259908 -0.189575
C83   C     C_R   0.377871 0.730934 0.913172 -0.190502
C84   C     C_R   0.617173 0.264035 0.102831 -0.188070
C85   C     C_R   0.663591 0.021115 0.275641 -0.202795
C86   C     C_R   0.355624 0.943570 0.731554 -0.202490
C87   C     C_R   0.326949 0.685017 0.907841 -0.167713
C88   C     C_R   0.668380 0.310408 0.107824 -0.174818
C89   C     C_R   0.078702 0.258871 0.641885 -0.179958
C90   C     C_R   0.080329 0.693218 0.308318 -0.168216
C91   C     C_R   0.540242 0.000481 0.410287 0.036275
C92   C     C_R   0.469092 0.982739 0.593144 0.031989
C93   C     C_R   0.053730 0.394258 0.522529 0.032719
C94   C     C_R   0.058654 0.572140 0.443272 0.029912
C95   C     C_R   0.423996 0.544339 0.971992 0.026104
C96   C     C_R   0.573297 0.450842 0.040910 0.026645
C97   C     C_R   0.584527 0.017938 0.455388 0.031444
C98   C     C_R   0.421102 0.972463 0.546588 0.029244
C99   C     C_R   0.474574 0.591186 0.978441 0.030772
C100  C     C_R   0.522714 0.403816 0.034242 0.031599
C101  C     C_R   0.059228 0.442922 0.571642 0.030279
C102  C     C_R   0.053000 0.523286 0.394511 0.034134
Cu1   Cu    Cu3+1 0.995180 0.995180 0.424630 1.055505
Cu2   Cu    Cu3+1 0.004820 0.004820 0.575370 1.075802
Cu3   Cu    Cu3+1 0.995180 0.424630 0.995180 1.060498
Cu4   Cu    Cu3+1 0.004820 0.575370 0.004820 1.060956
Cu5   Cu    Cu3+1 0.424630 0.995180 0.995180 1.052440
Cu6   Cu    Cu3+1 0.575370 0.004820 0.004820 1.062869
H1    H     H_    0.327567 0.936285 0.802385 0.133956
H2    H     H_    0.696071 0.020525 0.206531 0.144822
H3    H     H_    0.090805 0.758957 0.273797 0.164066
H4    H     H_    0.086702 0.187698 0.670074 0.146504
H5    H     H_    0.724550 0.273028 0.136154 0.162674
H6    H     H_    0.269692 0.722607 0.881139 0.171690
H7    H     H_    0.243208 0.919515 0.722108 0.163919
H8    H     H_    0.765198 0.065760 0.280811 0.154371
H9    H     H_    0.635225 0.191879 0.127024 0.142395
H10   H     H_    0.357988 0.802736 0.892629 0.132146
H11   H     H_    0.083511 0.673083 0.189065 0.146393
H12   H     H_    0.093234 0.272359 0.756577 0.163838
H13   H     H_    0.472397 0.933669 0.802453 0.156797
H14   H     H_    0.588797 0.948989 0.223834 0.210696
H15   H     H_    0.090975 0.767999 0.411303 0.217952
H16   H     H_    0.074191 0.184485 0.534646 0.172051
H17   H     H_    0.754188 0.413897 0.109344 0.204911
H18   H     H_    0.244927 0.583293 0.901540 0.219512
H19   H     H_    0.235312 0.914167 0.586484 0.230470
H20   H     H_    0.761921 0.092059 0.413504 0.189682
H21   H     H_    0.511222 0.192897 0.085477 0.162252
H22   H     H_    0.487936 0.801480 0.921426 0.150329
H23   H     H_    0.071126 0.537839 0.185183 0.176887
H24   H     H_    0.091902 0.410912 0.767201 0.212530
O1    O     O_R   0.124540 0.978640 0.385460 -0.523282
O2    O     O_R   0.875460 0.021360 0.614540 -0.515500
O3    O     O_R   0.978640 0.385460 0.124540 -0.524694
O4    O     O_R   0.021360 0.614540 0.875460 -0.514096
O5    O     O_R   0.385460 0.124540 0.978640 -0.515956
O6    O     O_R   0.614540 0.875460 0.021360 -0.517418
O7    O     O_R   0.614540 0.021360 0.875460 -0.517021
O8    O     O_R   0.385460 0.978640 0.124540 -0.519881
O9    O     O_R   0.875460 0.614540 0.021360 -0.518353
O10   O     O_R   0.124540 0.385460 0.978640 -0.529701
O11   O     O_R   0.021360 0.875460 0.614540 -0.506420
O12   O     O_R   0.978640 0.124540 0.385460 -0.524709
O13   O     O_R   0.013780 0.867370 0.487190 -0.608514
O14   O     O_R   0.986220 0.132630 0.512810 -0.595830
O15   O     O_R   0.867370 0.487190 0.013780 -0.603700
O16   O     O_R   0.132630 0.512810 0.986220 -0.618293
O17   O     O_R   0.487190 0.013780 0.867370 -0.613380
O18   O     O_R   0.512810 0.986220 0.132630 -0.626439
O19   O     O_R   0.512810 0.132630 0.986220 -0.600555
O20   O     O_R   0.487190 0.867370 0.013780 -0.606199
O21   O     O_R   0.986220 0.512810 0.132630 -0.605683
O22   O     O_R   0.013780 0.487190 0.867370 -0.610204
O23   O     O_R   0.132630 0.986220 0.512810 -0.619819
O24   O     O_R   0.867370 0.013780 0.487190 -0.604163
S1    S     S_3+6 0.284682 0.869249 0.282433 0.025251
O25   O     O_2   0.237108 0.808163 0.362436 -0.324573
O26   O     O_2   0.222063 0.929330 0.225910 -0.285382
O27   O     O_3   0.374874 0.806266 0.223018 -0.504170
H25   H     H_    0.349608 0.777952 0.199829 0.370677
S2    S     S_3+6 0.712485 0.129458 0.718121 0.051761
O28   O     O_2   0.772240 0.072623 0.778267 -0.277016
O29   O     O_2   0.761627 0.189885 0.638658 -0.253875
O30   O     O_3   0.618828 0.193286 0.773292 -0.495994
H26   H     H_    0.640724 0.221813 0.799526 0.374585
S3    S     S_3+6 0.870125 0.297349 0.298695 0.021709
O31   O     O_2   0.811996 0.384661 0.256586 -0.296786
O32   O     O_2   0.908351 0.237063 0.238582 -0.289666
O33   O     O_3   0.805366 0.249654 0.396776 -0.524212
H27   H     H_    0.751258 0.253158 0.383321 0.367230
S4    S     S_3+6 0.129389 0.719409 0.717938 0.025532
O34   O     O_2   0.067483 0.779970 0.776308 -0.244981
O35   O     O_2   0.188105 0.640851 0.769018 -0.315306
O36   O     O_3   0.196319 0.774685 0.628684 -0.545160
H28   H     H_    0.235674 0.730912 0.594029 0.359095
S5    S     S_3+6 0.291213 0.282767 0.870076 0.033141
O37   O     O_2   0.229823 0.223046 0.923066 -0.289815
O38   O     O_2   0.245395 0.363595 0.808697 -0.305591
O39   O     O_3   0.386525 0.227967 0.807533 -0.493895
H29   H     H_    0.366210 0.203200 0.776255 0.371592
S6    S     S_3+6 0.712893 0.719075 0.128740 0.042658
O40   O     O_2   0.772014 0.780387 0.071461 -0.283036
O41   O     O_2   0.629308 0.767401 0.186715 -0.273577
O42   O     O_3   0.768724 0.630349 0.195174 -0.503736
H30   H     H_    0.791087 0.655935 0.223888 0.373907

loop_
_geom_bond_atom_site_label_1
_geom_bond_atom_site_label_2
_ccdc_geom_bond_type
C27   O21   A    
C83   C87   A    
C9    C45   A    
O30   H26   S    
C18   C96   A    
C20   O12   A    
C11   C47   A    
C50   H14   S    
C79   C85   A    
C12   C48   A    
Cu1   O12   S    
C60   H24   S    
C55   C68   A    
C75   C95   A    
S3    O32   D    
C24   O8    A    
C54   H18   S    
C89   H4    S    
C77   C89   A    
C19   O13   A    
Cu2   O2    S    
Cu4   O9    S    
C21   O15   A    
C83   H10   S    
C23   O7    A    
C58   H22   S    
C19   C47   S    
C58   C71   A    
O33   H27   S    
C3    C33   A    
Cu3   O15   S    
C5    C35   A    
C1    C31   A    
C51   H15   S    
C30   C38   S    
C2    C32   A    
C74   C92   A    
C13   C98   A    
C6    C58   A    
S6    O40   D    
C87   H6    S    
C80   C86   A    
Cu1   Cu2   S    
C16   C34   A    
S1    O25   D    
C4    C40   A    
C27   C39   S    
C84   H9    S    
S5    O38   D    
Cu5   O8    S    
C9    C36   A    
Cu5   Cu6   S    
C43   C62   A    
C10   C35   A    
C17   C95   A    
C7    C43   A    
Cu3   O3    S    
C76   C88   A    
C71   C83   A    
S4    O36   S    
C1    C37   A    
C29   O23   A    
C81   C89   A    
Cu4   O21   S    
C30   O24   A    
Cu3   O22   S    
C66   S6    S    
C3    C39   A    
C57   C72   A    
C77   C93   A    
C79   H8    S    
C13   C91   A    
C28   O22   A    
C8    C31   A    
C22   O10   A    
C82   H11   S    
C10   C54   A    
C12   C52   A    
S4    O35   D    
C14   C92   A    
S3    O33   S    
C21   C45   S    
C49   H13   S    
C4    C34   A    
C92   C98   A    
Cu2   O14   S    
C86   H1    S    
C67   C79   A    
C7    C49   A    
C46   C65   A    
C85   H2    S    
C50   C73   A    
C93   C101  A    
S3    O31   D    
C48   C63   A    
C41   C65   A    
C30   O2    A    
C71   C99   A    
C78   C90   A    
S6    O42   S    
Cu5   O5    S    
C25   O5    A    
C10   C46   A    
C61   S1    S    
S2    O30   S    
C2    C38   A    
O36   H28   S    
C81   H12   S    
C80   H7    S    
C24   O18   A    
S5    O39   S    
C59   H23   S    
C4    C60   A    
C70   C102  A    
C29   O1    A    
Cu2   O11   S    
Cu1   O24   S    
C20   C48   S    
C91   C97   A    
C73   C91   A    
C72   C84   A    
C53   H17   S    
C69   C81   A    
Cu6   O18   S    
Cu5   O20   S    
C75   C87   A    
C22   C46   S    
C55   H19   S    
S1    O27   S    
C24   C44   S    
C20   O14   A    
C53   C76   A    
C9    C53   A    
C18   C99   A    
C25   C41   S    
C68   C80   A    
C8    C50   A    
Cu3   O10   S    
S4    O34   D    
Cu1   O13   S    
C14   C97   A    
S2    O28   D    
C72   C100  A    
C57   H21   S    
C26   C42   S    
C5    C41   A    
C19   O11   A    
C7    C32   A    
S6    O41   D    
C28   O4    A    
Cu6   O19   S    
C90   H3    S    
C13   C31   A    
C11   C34   A    
C15   C102  A    
C84   C88   A    
C22   O16   A    
C26   O6    A    
C40   C64   A    
C15   C93   A    
Cu6   O7    S    
C37   C61   A    
C47   C64   A    
C69   C101  A    
C44   C61   A    
C74   C86   A    
C56   C67   A    
C39   C63   A    
Cu3   Cu4   S    
C16   C94   A    
C82   C90   A    
C5    C57   A    
C25   O19   A    
C27   O3    A    
O27   H25   S    
C26   O20   A    
Cu1   O1    S    
C51   C78   A    
C21   O9    A    
C73   C85   A    
S2    O29   D    
C2    C56   A    
C76   C96   A    
Cu6   O6    S    
C52   H16   S    
O42   H30   S    
C62   S2    S    
C65   S5    S    
C60   C69   A    
C78   C94   A    
C96   C100  A    
C63   S3    S    
C6    C36   A    
C1    C55   A    
C95   C99   A    
C56   H20   S    
Cu2   O23   S    
C23   O17   A    
C8    C44   A    
C70   C82   A    
C17   C100  A    
C68   C98   A    
C64   S4    S    
C11   C51   A    
C67   C97   A    
C59   C70   A    
C54   C75   A    
Cu5   O17   S    
C16   C101  A    
C14   C32   A    
C94   C102  A    
Cu4   O16   S    
S1    O26   D    
S5    O37   D    
C6    C42   A    
C29   C37   S    
C45   C66   A    
C42   C66   A    
C28   C40   S    
C49   C74   A    
C17   C35   A    
C12   C33   A    
C23   C43   S    
C18   C36   A    
C15   C33   A    
O39   H29   S    
C52   C77   A    
C88   H5    S    
Cu4   O4    S    
C38   C62   A    
C3    C59   A    
