data_mof_unit_40021.cif
_audit_creation_date              2012-12-10T18:06:49-0500
_audit_creation_method            fapswitch 2.2
_symmetry_space_group_name_H-M    P1
_symmetry_Int_Tables_number       1
_space_group_crystal_system       triclinic
_cell_length_a                    12.597132
_cell_length_b                    13.156556
_cell_length_c                    15.456916
_cell_angle_alpha                 83.366497
_cell_angle_beta                  98.67131
_cell_angle_gamma                 96.77813
_cell_volume                      2502.27572469

loop_
_atom_site_label
_atom_site_type_symbol
_atom_type_description
_atom_site_fract_x
_atom_site_fract_y
_atom_site_fract_z
_atom_type_partial_charge
C1    C     C_R   0.444704 0.308168 0.512982 0.849989
C2    C     C_R   0.645603 0.399827 0.938416 0.123086
C3    C     C_R   0.540187 0.425313 0.903296 0.015348
C4    C     C_R   0.434588 0.509928 0.336201 0.871707
C5    C     C_R   0.724367 0.399773 0.882405 0.447355
C6    C     C_R   0.698367 0.429118 0.791986 -0.323784
C7    C     C_R   0.518963 0.458226 0.814108 -0.265256
C8    C     C_R   0.728567 0.926460 0.563695 -0.197801
C9    C     C_R   0.595515 0.798440 0.500275 -0.048524
C10   C     C_R   0.300909 0.164630 0.499554 -0.187249
C11   C     C_R   0.268719 0.061137 0.492297 -0.146123
C12   C     C_R   0.423244 0.447778 0.104809 0.092437
C13   C     C_R   0.345865 0.991827 0.502004 -0.189692
C14   C     C_R   0.457131 0.024983 0.523364 0.085765
C15   C     C_R   0.487240 0.126655 0.544244 0.082416
C16   C     C_R   0.557172 0.691396 0.491721 0.865170
C17   C     C_R   0.539580 0.960693 0.524591 0.078312
C18   C     C_R   0.647549 0.992045 0.560161 0.173355
C19   C     C_R   0.672497 0.087551 0.592794 -0.248413
C20   C     C_R   0.593359 0.154276 0.584959 -0.195394
C21   C     C_R   0.517669 0.866669 0.489477 -0.256076
C22   C     C_R   0.702191 0.828821 0.535135 -0.201561
C23   C     C_R   0.314171 0.459897 0.070559 0.171694
C24   C     C_R   0.410376 0.198326 0.522700 -0.109555
C25   C     C_R   0.138301 0.641466 0.622409 -0.310638
C26   C     C_R   0.757454 0.379890 0.396169 0.019936
C27   C     C_R   0.852817 0.354107 0.374140 -0.251503
C28   C     C_R   0.563753 0.484573 0.664117 0.878503
C29   C     C_R   0.950614 0.399476 0.413735 -0.196354
C30   C     C_R   0.952834 0.471204 0.475801 0.016560
C31   C     C_R   0.853409 0.494582 0.495903 0.236553
C32   C     C_R   0.048999 0.520587 0.518399 -0.012254
C33   C     C_R   0.043955 0.591885 0.579970 0.197781
C34   C     C_R   0.494078 0.420108 0.050734 0.077625
C35   C     C_R   0.944898 0.613066 0.598470 -0.299496
C36   C     C_R   0.850919 0.564911 0.556825 -0.223996
C37   C     C_R   0.150866 0.502403 0.502416 -0.056392
C38   C     C_R   0.236581 0.620000 0.603483 0.005390
C39   C     C_R   0.391537 0.498587 0.244158 -0.061545
C40   C     C_R   0.596094 0.459463 0.758328 -0.098069
C41   C     C_R   0.243923 0.486752 0.124600 -0.195450
C42   C     C_R   0.282281 0.505212 0.211454 -0.198116
C43   C     C_R   0.460781 0.471365 0.190344 -0.258627
C44   C     C_R   0.460951 0.425242 0.959234 0.096382
C45   C     C_R   0.350379 0.432307 0.926870 -0.227649
C46   C     C_R   0.277724 0.447302 0.982430 -0.234623
C47   C     C_R   0.597323 0.389319 0.084793 -0.267780
C48   C     C_R   0.670906 0.377215 0.029236 -0.173028
H1    H     H_    0.193919 0.453609 0.955471 0.155623
H2    H     H_    0.311022 0.657251 0.635370 0.138756
H3    H     H_    0.442873 0.486817 0.787327 0.172510
H4    H     H_    0.939935 0.667228 0.645183 0.154605
H5    H     H_    0.135965 0.695965 0.669422 0.146617
H6    H     H_    0.163453 0.450021 0.457261 0.122569
H7    H     H_    0.680795 0.345177 0.365803 0.138341
H8    H     H_    0.022323 0.376869 0.394350 0.134626
H9    H     H_    0.851009 0.299343 0.326638 0.151491
H10   H     H_    0.777307 0.584452 0.573438 0.213442
H11   H     H_    0.757917 0.428628 0.748292 0.162077
H12   H     H_    0.763459 0.775929 0.544151 0.151666
H13   H     H_    0.749467 0.354593 0.058205 0.197666
H14   H     H_    0.159871 0.494426 0.099452 0.146580
H15   H     H_    0.226852 0.524660 0.252673 0.159335
H16   H     H_    0.545476 0.472005 0.215267 0.163261
H17   H     H_    0.317659 0.424347 0.859013 0.152297
H18   H     H_    0.622315 0.372048 0.154393 0.147205
H19   H     H_    0.870762 0.376787 0.869196 0.331568
H20   H     H_    0.753633 0.111505 0.622891 0.151490
H21   H     H_    0.811034 0.949179 0.591446 0.136755
H22   H     H_    0.438894 0.842749 0.455697 0.150194
H23   H     H_    0.240524 0.218655 0.484548 0.152803
H24   H     H_    0.315984 0.912574 0.494635 0.135125
H25   H     H_    0.184081 0.035130 0.475488 0.143637
H26   H     H_    0.615891 0.227165 0.612190 0.173350
N1    N     N_R   0.239390 0.551900 0.544730 -0.103071
N2    N     N_R   0.759950 0.448600 0.455730 -0.131249
O1    O     O_R   0.374950 0.371210 0.521360 -0.613790
O2    O     O_R   0.542050 0.338030 0.492790 -0.616624
O3    O     O_R   0.368720 0.526070 0.390200 -0.616250
O4    O     O_R   0.535820 0.492890 0.361630 -0.617868
O5    O     O_R   0.457950 0.661970 0.507210 -0.612376
O6    O     O_R   0.625050 0.628790 0.478640 -0.629518
O7    O     O_R   0.464180 0.507110 0.638370 -0.617397
O8    O     O_R   0.631280 0.473930 0.609800 -0.642275
O9    O     O_3   0.825790 0.372160 0.917211 -0.793669
Zn1   Zn    Zn3+2 0.388420 0.522150 0.519080 0.935355
Zn2   Zn    Zn3+2 0.611580 0.477850 0.480920 0.924730

loop_
_geom_bond_atom_site_label_1
_geom_bond_atom_site_label_2
_ccdc_geom_bond_type
O2    Zn2   S    
C28   O8    A    
C1    O1    A    
C41   C42   A    
C19   C20   A    
O8    Zn2   S    
C26   H7    S    
C48   H13   S    
C45   C46   A    
C46   H1    S    
C26   C27   A    
C9    C16   S    
C25   H5    S    
C4    O4    A    
C12   C43   A    
C3    C7    A    
C22   H12   S    
C30   C31   A    
C9    C22   A    
C27   C29   A    
C28   C40   S    
O6    Zn2   S    
C18   C19   A    
C35   C36   A    
C26   N2    A    
C7    C40   A    
C47   H18   S    
O5    Zn1   S    
C5    O9    S    
C10   H23   S    
C37   N1    A    
C23   C46   A    
C13   C14   A    
C28   O7    A    
C1    O2    A    
C14   C17   A    
C41   H14   S    
C43   H16   S    
C39   C42   A    
C38   N1    A    
C15   C20   A    
C3    C44   A    
H19   O9    S    
C34   C44   A    
C4    O3    A    
C27   H9    S    
C39   C43   A    
C2    C48   A    
C17   C21   A    
C29   C30   A    
C25   C38   A    
N1    Zn1   S    
C8    C22   A    
C47   C48   A    
C12   C23   A    
C4    C39   S    
C16   O6    A    
C17   C18   A    
C8    H21   S    
C20   H26   S    
C19   H20   S    
C32   C37   A    
N2    Zn2   S    
C37   H6    S    
C15   C24   A    
C13   H24   S    
O1    Zn1   S    
C45   H17   S    
C6    C40   A    
C2    C5    A    
C8    C18   A    
C12   C34   A    
C44   C45   A    
C14   C15   A    
C6    H11   S    
C38   H2    S    
C29   H8    S    
O4    Zn2   S    
C36   H10   S    
C23   C41   A    
C21   H22   S    
C10   C24   A    
C32   C33   A    
C2    C3    A    
C7    H3    S    
C30   C32   A    
C11   C13   A    
C9    C21   A    
C31   N2    A    
C5    C6    A    
C16   O5    A    
C33   C35   A    
C11   H25   S    
C10   C11   A    
O7    Zn1   S    
C1    C24   S    
C35   H4    S    
C31   C36   A    
C34   C47   A    
C42   H15   S    
O3    Zn1   S    
C25   C33   A    
