data_mof_unit_35847.cif
_audit_creation_date              2012-12-10T18:01:42-0500
_audit_creation_method            fapswitch 2.2
_symmetry_space_group_name_H-M    P1
_symmetry_Int_Tables_number       1
_space_group_crystal_system       triclinic
_cell_length_a                    10.814366
_cell_length_b                    9.532458
_cell_length_c                    19.408048
_cell_angle_alpha                 89.998416
_cell_angle_beta                  90.457086
_cell_angle_gamma                 89.999624
_cell_volume                      2000.66328154

loop_
_atom_site_label
_atom_site_type_symbol
_atom_type_description
_atom_site_fract_x
_atom_site_fract_y
_atom_site_fract_z
_atom_type_partial_charge
C1    C     C_R   0.262117 0.500021 0.499913 0.778016
C2    C     C_R   0.737883 0.500021 0.500083 0.777971
C3    C     C_R   0.499184 0.494074 0.930335 0.411726
C4    C     C_R   0.500662 0.494068 0.069664 0.411727
C5    C     C_R   0.500286 0.499658 0.367222 0.767055
C6    C     C_R   0.499701 0.499654 0.632778 0.767062
C7    C     C_R   0.063858 0.372737 0.499128 -0.182735
C8    C     C_R   0.936104 0.627540 0.499503 -0.195055
C9    C     C_R   0.936142 0.372734 0.500746 -0.182549
C10   C     C_R   0.063895 0.627539 0.500556 -0.195056
C11   C     C_R   0.871749 0.500107 0.500161 -0.028575
C12   C     C_R   0.128251 0.500108 0.499817 -0.028532
C13   C     C_R   0.411096 0.074441 0.464946 0.500301
C14   C     C_R   0.590213 0.926127 0.533946 0.486731
C15   C     C_R   0.588904 0.074436 0.535055 0.500309
C16   C     C_R   0.409786 0.926133 0.466056 0.486724
C17   C     C_R   0.419103 0.586974 0.252252 0.040477
C18   C     C_R   0.420068 0.404475 0.745962 0.078474
C19   C     C_R   0.580835 0.586961 0.747754 0.040486
C20   C     C_R   0.579875 0.404491 0.254030 0.078459
C21   C     C_R   0.423522 0.586549 0.180145 -0.175582
C22   C     C_R   0.423581 0.402860 0.818221 -0.180963
C23   C     C_R   0.576369 0.586554 0.819861 -0.175578
C24   C     C_R   0.576316 0.402859 0.181771 -0.180949
C25   C     C_R   0.500386 0.494505 0.145078 0.009775
C26   C     C_R   0.499485 0.494516 0.854921 0.009776
C27   C     C_R   0.500311 0.497759 0.290624 -0.064446
C28   C     C_R   0.499646 0.497745 0.709375 -0.064471
Cu1   Cu    Cu3+1 0.500000 0.640660 0.500000 1.022082
Cu2   Cu    Cu3+1 0.500000 0.359340 0.500000 1.031807
H1    H     H_    0.111854 0.273071 0.498174 0.200313
H2    H     H_    0.888065 0.727208 0.498903 0.201885
H3    H     H_    0.888146 0.273064 0.501620 0.200229
H4    H     H_    0.111934 0.727205 0.501227 0.201810
H5    H     H_    0.362453 0.654390 0.150650 0.148441
H6    H     H_    0.363068 0.333182 0.846476 0.147563
H7    H     H_    0.637424 0.654397 0.849361 0.148439
H8    H     H_    0.636819 0.333184 0.153510 0.147563
N1    N     N_R   0.500000 0.852070 0.500000 -0.313759
N2    N     N_R   0.500000 0.147930 0.500000 -0.328888
N3    N     N_R   0.500706 0.371304 0.034285 -0.230704
N4    N     N_R   0.500043 0.616757 0.965736 -0.232739
N5    N     N_R   0.499143 0.371306 0.965714 -0.230703
N6    N     N_R   0.499796 0.616754 0.034262 -0.232739
O1    O     O_R   0.319640 0.618740 0.500000 -0.532761
O2    O     O_R   0.680360 0.381260 0.500000 -0.536041
O3    O     O_R   0.680360 0.618740 0.500000 -0.532760
O4    O     O_R   0.319640 0.381260 0.500000 -0.536062
O5    O     O_R   0.499980 0.618820 0.400140 -0.565735
O6    O     O_R   0.500020 0.381180 0.599860 -0.549378
O7    O     O_R   0.500020 0.618820 0.599860 -0.565712
O8    O     O_R   0.499980 0.381180 0.400140 -0.549368
C29   C     C_3   0.319911 0.676880 0.284791 -0.375980
C30   C     C_3   0.211343 0.586741 0.309507 -0.320177
C31   C     C_3   0.099993 0.677310 0.327946 -0.787700
H9    H     H_    0.125461 0.755011 0.368143 0.307036
H10   H     H_    0.065257 0.733744 0.281619 0.242812
H11   H     H_    0.024501 0.609987 0.347737 0.237546
H12   H     H_    0.182780 0.512583 0.268106 0.221099
H13   H     H_    0.239893 0.524360 0.355171 0.222692
H14   H     H_    0.358902 0.740996 0.326899 0.274881
H15   H     H_    0.283928 0.754260 0.246661 0.197116
C32   C     C_3   0.325003 0.309918 0.711480 -0.399243
C33   C     C_3   0.210938 0.393565 0.688397 -0.367453
C34   C     C_3   0.106100 0.295614 0.666536 -0.798586
H16   H     H_    0.136938 0.225323 0.624420 0.256785
H17   H     H_    0.076009 0.230708 0.710883 0.253471
H18   H     H_    0.025779 0.358093 0.648226 0.254776
H19   H     H_    0.177906 0.460216 0.731535 0.226726
H20   H     H_    0.235148 0.463209 0.644729 0.206456
H21   H     H_    0.364610 0.250219 0.668036 0.224376
H22   H     H_    0.294516 0.227829 0.748418 0.196272
C35   C     C_3   0.680073 0.676822 0.715224 -0.375989
C36   C     C_3   0.788616 0.586621 0.690518 -0.320036
C37   C     C_3   0.900017 0.677136 0.672112 -0.787831
H23   H     H_    0.874603 0.754913 0.631934 0.306941
H24   H     H_    0.934782 0.733483 0.718457 0.242802
H25   H     H_    0.975475 0.609780 0.652308 0.237560
H26   H     H_    0.817126 0.512422 0.731922 0.221085
H27   H     H_    0.760061 0.524272 0.644840 0.222680
H28   H     H_    0.641119 0.740963 0.673110 0.274876
H29   H     H_    0.716074 0.754181 0.753359 0.197116
C38   C     C_3   0.674987 0.309971 0.288501 -0.399226
C39   C     C_3   0.789011 0.393678 0.311599 -0.367421
C40   C     C_3   0.893998 0.295796 0.333305 -0.798812
H30   H     H_    0.863303 0.225197 0.375325 0.256801
H31   H     H_    0.924147 0.231231 0.288860 0.253489
H32   H     H_    0.974245 0.358307 0.351687 0.254769
H33   H     H_    0.821892 0.460553 0.268511 0.226741
H34   H     H_    0.764811 0.463104 0.355346 0.206464
H35   H     H_    0.635405 0.250222 0.331940 0.224317
H36   H     H_    0.705512 0.227923 0.251553 0.196317
F1    F     F_    0.322912 0.143628 0.428429 -0.620093
F2    F     F_    0.683051 0.857978 0.566721 -0.654374
F3    F     F_    0.677087 0.143617 0.571572 -0.620046
F4    F     F_    0.316941 0.857990 0.433287 -0.654390

loop_
_geom_bond_atom_site_label_1
_geom_bond_atom_site_label_2
_ccdc_geom_bond_type
C31   H9    S    
C3    N4    A    
C35   C36   S    
C4    C25   S    
Cu1   O5    S    
C40   H30   S    
C2    O2    A    
C38   H36   S    
C3    N5    A    
C39   H34   S    
Cu1   O3    S    
Cu2   O4    S    
C15   F3    S    
C18   C32   S    
C4    N3    A    
C23   C26   A    
C13   N2    A    
Cu2   O8    S    
C14   N1    A    
C5    C27   S    
C29   H14   S    
C39   C40   S    
C6    C28   S    
C20   C24   A    
C34   H17   S    
C24   H8    S    
C5    O8    A    
C33   H20   S    
C6    O7    A    
Cu2   O6    S    
C36   H27   S    
C9    H3    S    
N3    N5    A    
C5    O5    A    
C1    C12   S    
N4    N6    A    
C2    C11   S    
C35   H28   S    
C30   H12   S    
C40   H31   S    
C7    C12   A    
C16   F4    S    
C7    H1    S    
C36   C37   S    
C8    H2    S    
C19   C35   S    
C18   C28   A    
C24   C25   A    
C30   H13   S    
C4    N6    A    
C23   H7    S    
C17   C21   A    
Cu1   O1    S    
C17   C27   A    
C19   C23   A    
C37   H23   S    
Cu1   Cu2   S    
C37   H24   S    
C29   H15   S    
C38   C39   S    
C34   H18   S    
Cu1   N1    S    
Cu2   N2    S    
C10   H4    S    
C33   H19   S    
C6    O6    A    
C19   C28   A    
C9    C11   A    
C10   C12   A    
C32   H21   S    
C36   H26   S    
C31   H10   S    
C13   C16   A    
C39   H33   S    
C17   C29   S    
C35   H29   S    
C38   H35   S    
Cu1   O7    S    
C40   H32   S    
C7    C9    A    
C21   C25   A    
C30   C31   S    
C18   C22   A    
Cu2   O2    S    
C3    C26   S    
C1    O4    A    
C29   C30   S    
C21   H5    S    
C20   C27   A    
C2    O3    A    
C22   H6    S    
C33   C34   S    
C1    O1    A    
C31   H11   S    
C8    C11   A    
C37   H25   S    
C15   N2    A    
C16   N1    A    
C32   C33   S    
C32   H22   S    
C8    C10   A    
C34   H16   S    
C22   C26   A    
C20   C38   S    
C13   F1    S    
C14   C15   A    
C14   F2    S    
