data_mof_unit_61895.cif
_audit_creation_date              2013-03-05T15:47:58-0500
_audit_creation_method            fapswitch 2.2
_symmetry_space_group_name_H-M    P1
_symmetry_Int_Tables_number       1
_space_group_crystal_system       triclinic
_cell_length_a                    21.816074
_cell_length_b                    21.81609
_cell_length_c                    23.453806
_cell_angle_alpha                 90.000215
_cell_angle_beta                  89.999819
_cell_angle_gamma                 90.000808
_cell_volume                      11162.6380552

loop_
_atom_site_label
_atom_site_type_symbol
_atom_site_description
_atom_site_fract_x
_atom_site_fract_y
_atom_site_fract_z
_atom_type_partial_charge
O1    O     O_R   0.408370 0.051730 0.500010 -0.594146
O2    O     O_R   0.948270 0.408370 0.500010 -0.594142
O3    O     O_R   0.591630 0.948270 0.500010 -0.594147
O4    O     O_R   0.051730 0.591630 0.500010 -0.594140
O5    O     O_R   0.591630 0.051730 0.499990 -0.594143
O6    O     O_R   0.051730 0.408370 0.499990 -0.594145
O7    O     O_R   0.408370 0.948270 0.499990 -0.594143
O8    O     O_R   0.948270 0.591630 0.499990 -0.594144
O9    O     O_R   0.908370 0.551730 0.000010 -0.594144
O10   O     O_R   0.448270 0.908370 0.000010 -0.594133
O11   O     O_R   0.091630 0.448270 0.000010 -0.594161
O12   O     O_R   0.551730 0.091630 0.000010 -0.594128
O13   O     O_R   0.091630 0.551730 0.999990 -0.594154
O14   O     O_R   0.551730 0.908370 0.999990 -0.594135
O15   O     O_R   0.908370 0.448270 0.999990 -0.594142
O16   O     O_R   0.448270 0.091630 0.999990 -0.594132
C1    C     C_R   0.380040 1.000000 0.500000 0.968269
C2    C     C_R   1.000000 0.380040 0.500000 0.968264
C3    C     C_R   0.619960 0.000000 0.500000 0.968268
C4    C     C_R   0.000000 0.619960 0.500000 0.968259
C5    C     C_R   0.880040 0.500000 0.000000 0.968257
C6    C     C_R   0.500000 0.880039 1.000000 0.968238
C7    C     C_R   0.119960 0.500001 0.999998 0.968279
C8    C     C_R   0.500000 0.119960 1.000000 0.968221
O17   O     O_R   0.499980 0.051730 0.417240 -0.581497
O18   O     O_R   0.948270 0.499980 0.417240 -0.581494
O19   O     O_R   0.500020 0.948270 0.417240 -0.581496
O20   O     O_R   0.051730 0.500020 0.417240 -0.581494
O21   O     O_R   0.500020 0.051730 0.582760 -0.581497
O22   O     O_R   0.051730 0.499980 0.582760 -0.581495
O23   O     O_R   0.499980 0.948270 0.582760 -0.581495
O24   O     O_R   0.948270 0.500020 0.582760 -0.581495
O25   O     O_R   0.999980 0.551730 0.917240 -0.581500
O26   O     O_R   0.448270 0.999980 0.917240 -0.581486
O27   O     O_R   0.000020 0.448270 0.917240 -0.581499
O28   O     O_R   0.551730 0.000020 0.917240 -0.581484
O29   O     O_R   0.000020 0.551730 0.082760 -0.581510
O30   O     O_R   0.551730 0.999980 0.082760 -0.581487
O31   O     O_R   0.999980 0.448270 0.082760 -0.581481
O32   O     O_R   0.448270 0.000020 0.082760 -0.581488
C9    C     C_R   0.500000 1.000000 0.390797 0.961999
C10   C     C_R   1.000000 0.500000 0.390797 0.961993
C11   C     C_R   0.500000 0.000000 0.609203 0.962002
C12   C     C_R   1.000000 0.500000 0.609203 0.961987
C13   C     C_R   1.000000 0.500000 0.890797 0.962013
C14   C     C_R   0.500000 0.000000 0.890797 0.961944
C15   C     C_R   0.999999 0.500000 0.109203 0.962042
C16   C     C_R   0.500000 0.000000 0.109203 0.961951
Zn1   Zn    Zn3+2 0.500000 0.069080 0.500000 1.152192
Zn2   Zn    Zn3+2 0.930920 0.500000 0.500000 1.152196
Zn3   Zn    Zn3+2 0.500000 0.930920 0.500000 1.152194
Zn4   Zn    Zn3+2 0.069080 0.500000 0.500000 1.152197
Zn5   Zn    Zn3+2 0.000000 0.569080 0.000000 1.152187
Zn6   Zn    Zn3+2 0.430920 0.000000 0.000000 1.152222
Zn7   Zn    Zn3+2 0.000000 0.430920 0.000000 1.152211
Zn8   Zn    Zn3+2 0.569080 0.000000 0.000000 1.152222
C17   C     C_1   0.500000 1.000000 0.330522 -0.121340
C18   C     C_1   0.000000 0.500000 0.330522 -0.121340
C19   C     C_1   0.500000 0.000000 0.669478 -0.121332
C20   C     C_1   1.000000 0.500000 0.669478 -0.121350
C21   C     C_1   0.000000 0.500000 0.830522 -0.121316
C22   C     C_1   0.500000 0.000000 0.830522 -0.121384
C23   C     C_1   1.000000 0.500000 0.169478 -0.121284
C24   C     C_1   0.500000 0.000000 0.169478 -0.121385
C25   C     C_1   0.500000 1.000000 0.279653 0.017805
C26   C     C_1   0.000000 0.499999 0.279653 0.017809
C27   C     C_1   0.500000 0.000000 0.720347 0.017809
C28   C     C_1   0.000000 0.500000 0.720347 0.017807
C29   C     C_1   0.000000 0.500000 0.779653 0.017822
C30   C     C_1   0.500000 0.000000 0.779653 0.017788
C31   C     C_1   0.000000 0.499999 0.220347 0.017825
C32   C     C_1   0.500000 1.000000 0.220347 0.017787
C33   C     C_R   0.312575 0.923507 0.422326 0.398835
C34   C     C_R   0.076493 0.312576 0.422327 0.398834
C35   C     C_R   0.687426 0.076493 0.422326 0.398836
C36   C     C_R   0.923505 0.687423 0.422328 0.398840
C37   C     C_R   0.687423 0.923510 0.577676 0.398834
C38   C     C_R   0.923503 0.312574 0.577672 0.398839
C39   C     C_R   0.312576 0.076490 0.577676 0.398834
C40   C     C_R   0.076499 0.687426 0.577669 0.398839
C41   C     C_R   0.812575 0.423508 0.922325 0.398835
C42   C     C_R   0.576505 0.812576 0.922336 0.398843
C43   C     C_R   0.187426 0.576477 0.922312 0.398820
C44   C     C_R   0.423479 0.187425 0.922348 0.398860
C45   C     C_R   0.187413 0.423548 0.077700 0.398821
C46   C     C_R   0.423487 0.812574 0.077659 0.398850
C47   C     C_R   0.812576 0.576493 0.077674 0.398838
C48   C     C_R   0.576514 0.187426 0.077658 0.398845
C49   C     C_R   0.288888 0.866648 0.406056 0.124895
C50   C     C_R   0.133353 0.288891 0.406058 0.124887
C51   C     C_R   0.711113 0.133352 0.406056 0.124893
C52   C     C_R   0.866646 0.711108 0.406060 0.124883
C53   C     C_R   0.711108 0.866651 0.593946 0.124890
C54   C     C_R   0.866644 0.288887 0.593940 0.124886
C55   C     C_R   0.288891 0.133349 0.593946 0.124893
C56   C     C_R   0.133359 0.711114 0.593936 0.124881
C57   C     C_R   0.788889 0.366649 0.906055 0.124897
C58   C     C_R   0.633367 0.788890 0.906073 0.124882
C59   C     C_R   0.211110 0.633334 0.906035 0.124902
C60   C     C_R   0.366616 0.211112 0.906095 0.124870
C61   C     C_R   0.211078 0.366678 0.093959 0.124925
C62   C     C_R   0.366625 0.788886 0.093918 0.124876
C63   C     C_R   0.788891 0.633353 0.093943 0.124891
C64   C     C_R   0.633376 0.211114 0.093916 0.124884
C65   C     C_R   0.229352 0.851049 0.423473 0.100890
C66   C     C_R   0.148952 0.229356 0.423476 0.100892
C67   C     C_R   0.770648 0.148951 0.423473 0.100891
C68   C     C_R   0.851048 0.770643 0.423478 0.100893
C69   C     C_R   0.770643 0.851051 0.576528 0.100890
C70   C     C_R   0.851046 0.229351 0.576523 0.100893
C71   C     C_R   0.229357 0.148949 0.576528 0.100889
C72   C     C_R   0.148955 0.770650 0.576520 0.100895
C73   C     C_R   0.729353 0.351050 0.923470 0.100894
C74   C     C_R   0.648961 0.729353 0.923490 0.100902
C75   C     C_R   0.270643 0.648939 0.923455 0.100848
C76   C     C_R   0.351027 0.270650 0.923511 0.100889
C77   C     C_R   0.270605 0.351065 0.076533 0.100785
C78   C     C_R   0.351034 0.729348 0.076502 0.100904
C79   C     C_R   0.729356 0.648950 0.076526 0.100895
C80   C     C_R   0.648967 0.270652 0.076500 0.100912
C81   C     C_R   0.191066 0.898790 0.444188 0.420592
C82   C     C_R   0.101211 0.191069 0.444191 0.420607
C83   C     C_R   0.808934 0.101210 0.444189 0.420600
C84   C     C_R   0.898789 0.808931 0.444192 0.420609
C85   C     C_R   0.808930 0.898791 0.555811 0.420609
C86   C     C_R   0.898788 0.191066 0.555809 0.420602
C87   C     C_R   0.191069 0.101209 0.555811 0.420609
C88   C     C_R   0.101213 0.808935 0.555807 0.420600
C89   C     C_R   0.691066 0.398791 0.944186 0.420577
C90   C     C_R   0.601216 0.691067 0.944200 0.420595
C91   C     C_R   0.308933 0.601203 0.944175 0.420527
C92   C     C_R   0.398777 0.308935 0.944213 0.420669
C93   C     C_R   0.308914 0.398801 0.055837 0.420251
C94   C     C_R   0.398781 0.691064 0.055795 0.420617
C95   C     C_R   0.691068 0.601210 0.055811 0.420586
C96   C     C_R   0.601220 0.308936 0.055794 0.420592
C97   C     C_R   0.218335 0.952324 0.470020 -0.105436
C98   C     C_R   0.047676 0.218336 0.470021 -0.105451
C99   C     C_R   0.781665 0.047676 0.470021 -0.105439
C100  C     C_R   0.952324 0.781664 0.470022 -0.105453
C101  C     C_R   0.781664 0.952325 0.529980 -0.105447
C102  C     C_R   0.952323 0.218334 0.529978 -0.105441
C103  C     C_R   0.218336 0.047675 0.529980 -0.105447
C104  C     C_R   0.047678 0.781666 0.529977 -0.105444
C105  C     C_R   0.718335 0.452325 0.970019 -0.105416
C106  C     C_R   0.547680 0.718335 0.970026 -0.105463
C107  C     C_R   0.281666 0.547672 0.970014 -0.105386
C108  C     C_R   0.452316 0.281665 0.970034 -0.105510
C109  C     C_R   0.281660 0.452340 0.030000 -0.105325
C110  C     C_R   0.452318 0.718334 0.029971 -0.105470
C111  C     C_R   0.718336 0.547675 0.029980 -0.105441
C112  C     C_R   0.547682 0.281666 0.029971 -0.105498
C113  C     C_R   0.282008 0.958537 0.464648 -0.145705
C114  C     C_R   0.041462 0.282008 0.464649 -0.145706
C115  C     C_R   0.717993 0.041463 0.464649 -0.145704
C116  C     C_R   0.958537 0.717991 0.464649 -0.145704
C117  C     C_R   0.717991 0.958539 0.535352 -0.145705
C118  C     C_R   0.958536 0.282008 0.535350 -0.145706
C119  C     C_R   0.282009 0.041461 0.535352 -0.145705
C120  C     C_R   0.041465 0.717993 0.535349 -0.145704
C121  C     C_R   0.782008 0.458538 0.964647 -0.145693
C122  C     C_R   0.541467 0.782008 0.964653 -0.145697
C123  C     C_R   0.217993 0.541457 0.964641 -0.145701
C124  C     C_R   0.458526 0.217992 0.964661 -0.145723
C125  C     C_R   0.217988 0.458564 0.035372 -0.145722
C126  C     C_R   0.458529 0.782007 0.035343 -0.145708
C127  C     C_R   0.782008 0.541462 0.035352 -0.145698
C128  C     C_R   0.541471 0.217993 0.035343 -0.145693
C129  C     C_R   0.186201 1.000000 0.500000 -0.037775
C130  C     C_R   1.000000 0.186201 0.500000 -0.037778
C131  C     C_R   0.813799 0.000001 0.500000 -0.037777
C132  C     C_R   0.000001 0.813799 0.500000 -0.037782
C133  C     C_R   0.686201 0.500000 0.999999 -0.037779
C134  C     C_R   0.500000 0.686201 1.000000 -0.037808
C135  C     C_R   0.313799 0.500002 0.000003 -0.037767
C136  C     C_R   0.500000 0.313799 0.000001 -0.037885
C137  C     C_R   0.313613 0.999999 0.500000 -0.043999
C138  C     C_R   0.999999 0.313612 0.499999 -0.044001
C139  C     C_R   0.686387 0.000001 0.500000 -0.043999
C140  C     C_R   0.000001 0.686387 0.499999 -0.044002
C141  C     C_R   0.813613 0.499999 0.000000 -0.043995
C142  C     C_R   0.499999 0.813612 0.999999 -0.044007
C143  C     C_R   0.186386 0.500007 0.000003 -0.044010
C144  C     C_R   0.500000 0.186388 0.000000 -0.044006
O33   O     O_R   0.999980 0.091600 0.546760 -0.619695
O34   O     O_R   0.908400 0.999980 0.546760 -0.619691
O35   O     O_R   0.000020 0.908400 0.546760 -0.619696
O36   O     O_R   0.091600 0.000020 0.546760 -0.619690
O37   O     O_R   0.000020 0.091600 0.453240 -0.619693
O38   O     O_R   0.091600 0.999980 0.453240 -0.619699
O39   O     O_R   0.999980 0.908400 0.453240 -0.619691
O40   O     O_R   0.908400 0.000020 0.453240 -0.619695
O41   O     O_R   0.499980 0.591600 0.046760 -0.619668
O42   O     O_R   0.408400 0.499980 0.046760 -0.619807
O43   O     O_R   0.500020 0.408400 0.046760 -0.619746
O44   O     O_R   0.591600 0.500020 0.046760 -0.619676
O45   O     O_R   0.500020 0.591600 0.953240 -0.619698
O46   O     O_R   0.591600 0.499980 0.953240 -0.619701
O47   O     O_R   0.499980 0.408400 0.953240 -0.619660
O48   O     O_R   0.408400 0.500020 0.953240 -0.619685
C145  C     C_R   1.000000 0.120369 0.500000 1.150216
C146  C     C_R   0.879631 0.000000 0.500000 1.150216
C147  C     C_R   1.000000 0.879631 0.500000 1.150215
C148  C     C_R   0.120369 1.000000 0.500000 1.150217
C149  C     C_R   0.500000 0.620369 0.000000 1.150216
C150  C     C_R   0.379631 0.499997 0.000001 1.150185
C151  C     C_R   0.500001 0.379631 0.000000 1.150188
C152  C     C_R   0.620369 0.500000 1.000000 1.150218
Zn9   Zn    Zn3+2 0.000000 0.000000 0.562420 0.947743
Zn10  Zn    Zn3+2 1.000000 0.000000 0.437580 0.947744
Zn11  Zn    Zn3+2 0.500000 0.500000 0.062420 0.947789
Zn12  Zn    Zn3+2 0.500000 0.500000 0.937580 0.947773
N1    N     N_R   0.322840 0.171563 0.632617 0.276188
O49   O     O_R   0.295494 0.196833 0.675975 -0.295758
O50   O     O_R   0.382177 0.175674 0.628393 -0.290126
N2    N     N_R   0.828428 0.322835 0.632609 0.276193
O51   O     O_R   0.803155 0.295490 0.675964 -0.295722
O52   O     O_R   0.824316 0.382172 0.628383 -0.290113
N3    N     N_R   0.677159 0.828438 0.632617 0.276190
O53   O     O_R   0.704504 0.803167 0.675973 -0.295736
O54   O     O_R   0.617822 0.824327 0.628393 -0.290119
N4    N     N_R   0.171577 0.677166 0.632603 0.276196
O55   O     O_R   0.196852 0.704512 0.675958 -0.295704
O56   O     O_R   0.175688 0.617829 0.628377 -0.290105
N5    N     N_R   0.677165 0.171567 0.367387 0.276190
O57   O     O_R   0.704511 0.196838 0.324030 -0.295747
O58   O     O_R   0.617828 0.175679 0.371612 -0.290122
N6    N     N_R   0.171568 0.322840 0.367389 0.276194
O59   O     O_R   0.196841 0.295494 0.324033 -0.295744
O60   O     O_R   0.175680 0.382177 0.371613 -0.290113
N7    N     N_R   0.322836 0.828433 0.367386 0.276190
O61   O     O_R   0.295491 0.803160 0.324030 -0.295746
O62   O     O_R   0.382173 0.824322 0.371611 -0.290121
N8    N     N_R   0.828430 0.677159 0.367392 0.276192
O63   O     O_R   0.803157 0.704504 0.324036 -0.295726
O64   O     O_R   0.824319 0.617822 0.371616 -0.290115
N9    N     N_R   0.822841 0.671569 0.132610 0.276190
O65   O     O_R   0.795496 0.696848 0.175963 -0.295724
O66   O     O_R   0.882178 0.675678 0.128386 -0.290115
N10   N     N_R   0.328400 0.822834 0.132578 0.276196
O67   O     O_R   0.303119 0.795489 0.175931 -0.295737
O68   O     O_R   0.324287 0.882170 0.128350 -0.290104
N11   N     N_R   0.177115 0.328461 0.132616 0.276167
O69   O     O_R   0.204461 0.303124 0.175939 -0.295749
O70   O     O_R   0.117774 0.324393 0.128409 -0.290114
N12   N     N_R   0.671601 0.177166 0.132576 0.276195
O71   O     O_R   0.696884 0.204511 0.175927 -0.295739
O72   O     O_R   0.675714 0.117829 0.128348 -0.290100
N13   N     N_R   0.177163 0.671542 0.867360 0.276188
O73   O     O_R   0.204511 0.696812 0.824005 -0.295718
O74   O     O_R   0.117825 0.675649 0.871580 -0.290116
N14   N     N_R   0.671589 0.822839 0.867411 0.276195
O75   O     O_R   0.696868 0.795494 0.824058 -0.295730
O76   O     O_R   0.675701 0.882176 0.871637 -0.290102
N15   N     N_R   0.822839 0.328433 0.867387 0.276189
O77   O     O_R   0.795493 0.303154 0.824034 -0.295721
O78   O     O_R   0.882176 0.324325 0.871611 -0.290110
N16   N     N_R   0.328385 0.177163 0.867439 0.276200
O79   O     O_R   0.303099 0.204506 0.824089 -0.295747
O80   O     O_R   0.324273 0.117826 0.871668 -0.290095
O81   O     O_3   0.362103 0.947057 0.392710 -0.577770
C153  C     C_3   0.339858 0.992338 0.354884 -0.255018
H1    H     H_    0.376926 0.005906 0.325362 0.192388
H2    H     H_    0.325353 0.034123 0.378475 0.181218
H3    H     H_    0.301458 0.974895 0.328033 0.175172
O82   O     O_3   0.052944 0.362103 0.392710 -0.577769
C154  C     C_3   0.007665 0.339856 0.354884 -0.254987
H4    H     H_    0.994096 0.376924 0.325361 0.192389
H5    H     H_    0.965879 0.325350 0.378473 0.181215
H6    H     H_    0.025109 0.301458 0.328032 0.175179
O83   O     O_3   0.637898 0.052943 0.392711 -0.577771
C155  C     C_3   0.660143 0.007663 0.354885 -0.255016
H7    H     H_    0.623074 0.994094 0.325362 0.192387
H8    H     H_    0.674647 0.965878 0.378475 0.181217
H9    H     H_    0.698542 0.025105 0.328033 0.175173
O84   O     O_3   0.947055 0.637896 0.392711 -0.577767
C156  C     C_3   0.992334 0.660142 0.354884 -0.255009
H10   H     H_    0.005901 0.623075 0.325360 0.192384
H11   H     H_    0.034120 0.674647 0.378473 0.181218
H12   H     H_    0.974891 0.698542 0.328034 0.175174
O85   O     O_3   0.637896 0.947061 0.607291 -0.577774
C157  C     C_3   0.660143 0.992343 0.645116 -0.255004
H13   H     H_    0.623075 0.005913 0.674638 0.192387
H14   H     H_    0.674649 0.034127 0.621524 0.181224
H15   H     H_    0.698541 0.974901 0.671968 0.175175
O86   O     O_3   0.947052 0.362103 0.607288 -0.577766
C158  C     C_3   0.992331 0.339858 0.645115 -0.255006
H16   H     H_    0.005897 0.376926 0.674640 0.192387
H17   H     H_    0.034118 0.325354 0.621526 0.181211
H18   H     H_    0.974888 0.301458 0.671966 0.175173
O87   O     O_3   0.362104 0.052939 0.607291 -0.577774
C159  C     C_3   0.339857 0.007658 0.645116 -0.255011
H19   H     H_    0.376925 0.994088 0.674637 0.192384
H20   H     H_    0.325350 0.965874 0.621524 0.181226
H21   H     H_    0.301459 0.025100 0.671968 0.175174
O88   O     O_3   0.052951 0.637898 0.607286 -0.577763
C160  C     C_3   0.007674 0.660143 0.645116 -0.255002
H22   H     H_    0.994109 0.623075 0.674640 0.192391
H23   H     H_    0.965887 0.674647 0.621529 0.181206
H24   H     H_    0.025119 0.698543 0.671966 0.175175
O89   O     O_3   0.862104 0.447059 0.892709 -0.577773
C161  C     C_3   0.839858 0.492340 0.854885 -0.255018
H25   H     H_    0.876926 0.505909 0.825362 0.192385
H26   H     H_    0.825354 0.534125 0.878476 0.181221
H27   H     H_    0.801458 0.474899 0.828034 0.175172
O90   O     O_3   0.552961 0.862103 0.892716 -0.577753
C162  C     C_3   0.507688 0.839857 0.854883 -0.254995
H28   H     H_    0.494128 0.876923 0.825356 0.192397
H29   H     H_    0.465897 0.825353 0.878466 0.181205
H30   H     H_    0.525135 0.801456 0.828036 0.175168
O91   O     O_3   0.137898 0.552921 0.892701 -0.577789
C163  C     C_3   0.160142 0.507627 0.854888 -0.255011
H31   H     H_    0.123072 0.494047 0.825371 0.192378
H32   H     H_    0.174649 0.465851 0.878489 0.181233
H33   H     H_    0.198539 0.525061 0.828029 0.175179
O92   O     O_3   0.447018 0.137898 0.892724 -0.577737
C164  C     C_3   0.492284 0.160144 0.854884 -0.254994
H34   H     H_    0.505834 0.123079 0.825350 0.192399
H35   H     H_    0.534082 0.174640 0.878460 0.181198
H36   H     H_    0.474836 0.198549 0.828044 0.175160
O93   O     O_3   0.137889 0.447110 0.107313 -0.577805
C165  C     C_3   0.160137 0.492419 0.145110 -0.254990
H37   H     H_    0.123074 0.505999 0.174634 0.192373
H38   H     H_    0.174628 0.534192 0.121494 0.181268
H39   H     H_    0.198546 0.475000 0.171961 0.175154
O94   O     O_3   0.447030 0.862102 0.107280 -0.577747
C166  C     C_3   0.492300 0.839857 0.145116 -0.255000
H40   H     H_    0.505855 0.876923 0.174646 0.192397
H41   H     H_    0.534093 0.825359 0.121535 0.181200
H42   H     H_    0.474853 0.801453 0.171959 0.175164
O95   O     O_3   0.862104 0.552943 0.107290 -0.577773
C167  C     C_3   0.839857 0.507663 0.145115 -0.255022
H43   H     H_    0.876925 0.494095 0.174639 0.192382
H44   H     H_    0.825353 0.465877 0.121525 0.181224
H45   H     H_    0.801457 0.525104 0.171966 0.175173
O96   O     O_3   0.552971 0.137898 0.107279 -0.577741
C168  C     C_3   0.507702 0.160144 0.145117 -0.255026
H46   H     H_    0.494147 0.123077 0.174647 0.192406
H47   H     H_    0.465908 0.174643 0.121537 0.181189
H48   H     H_    0.525151 0.198547 0.171960 0.175156
N17   N     N_R   0.207137 0.788722 0.418414 0.254248
O97   O     O_R   0.149751 0.775654 0.427424 -0.379278
O98   O     O_R   0.245885 0.743429 0.416198 -0.280062
N18   N     N_R   0.211279 0.207143 0.418419 0.254251
O99   O     O_R   0.224347 0.149758 0.427432 -0.379269
O100  O     O_R   0.256572 0.245893 0.416202 -0.280064
N19   N     N_R   0.792865 0.211278 0.418414 0.254248
O101  O     O_R   0.850250 0.224345 0.427426 -0.379277
O102  O     O_R   0.754116 0.256571 0.416197 -0.280063
N20   N     N_R   0.788720 0.792858 0.418420 0.254251
O103  O     O_R   0.775653 0.850242 0.427433 -0.379271
O104  O     O_R   0.743427 0.754108 0.416205 -0.280060
N21   N     N_R   0.792856 0.788724 0.581587 0.254250
O105  O     O_R   0.850240 0.775655 0.572571 -0.379267
O106  O     O_R   0.754105 0.743432 0.583807 -0.280059
N22   N     N_R   0.788720 0.207135 0.581581 0.254247
O107  O     O_R   0.775653 0.149749 0.572570 -0.379281
O108  O     O_R   0.743426 0.245883 0.583796 -0.280063
N23   N     N_R   0.207143 0.211277 0.581588 0.254250
O109  O     O_R   0.149760 0.224346 0.572571 -0.379267
O110  O     O_R   0.245894 0.256569 0.583809 -0.280061
N24   N     N_R   0.211282 0.792867 0.581577 0.254248
O111  O     O_R   0.224347 0.850254 0.572569 -0.379283
O112  O     O_R   0.256576 0.754120 0.583788 -0.280062
N25   N     N_R   0.707138 0.288723 0.918411 0.254258
O113  O     O_R   0.649750 0.275657 0.927407 -0.379256
O114  O     O_R   0.745887 0.243430 0.916208 -0.280047
N26   N     N_R   0.711288 0.707137 0.918436 0.254250
O115  O     O_R   0.724351 0.649749 0.927437 -0.379290
O116  O     O_R   0.756583 0.745885 0.916233 -0.280054
N27   N     N_R   0.292854 0.711268 0.918392 0.254269
O117  O     O_R   0.350237 0.724342 0.927400 -0.379232
O118  O     O_R   0.254103 0.756557 0.916171 -0.280053
N28   N     N_R   0.288702 0.292871 0.918462 0.254268
O119  O     O_R   0.275645 0.350261 0.927455 -0.379264
O120  O     O_R   0.243403 0.254126 0.916272 -0.280021
N29   N     N_R   0.292789 0.288724 0.081569 0.254357
O121  O     O_R   0.350186 0.275641 0.072643 -0.379113
O122  O     O_R   0.254016 0.243446 0.083699 -0.280009
N30   N     N_R   0.288708 0.707126 0.081556 0.254248
O123  O     O_R   0.275649 0.649737 0.072559 -0.379299
O124  O     O_R   0.243411 0.745871 0.083755 -0.280069
N31   N     N_R   0.707142 0.711278 0.081585 0.254257
O125  O     O_R   0.649754 0.724343 0.072586 -0.379265
O126  O     O_R   0.745891 0.756571 0.083789 -0.280050
N32   N     N_R   0.711294 0.292872 0.081551 0.254244
O127  O     O_R   0.724355 0.350261 0.072553 -0.379310
O128  O     O_R   0.756590 0.254126 0.083748 -0.280051
O129  O     O_3   0.128622 0.893221 0.436331 -0.566379
C169  C     C_3   0.116301 0.899959 0.377154 -0.180170
H49   H     H_    0.066211 0.899488 0.369867 0.181573
H50   H     H_    0.135512 0.861613 0.351603 0.182427
H51   H     H_    0.134061 0.944367 0.360496 0.121926
O130  O     O_3   0.106780 0.128625 0.436334 -0.566377
C170  C     C_3   0.100043 0.116303 0.377158 -0.180178
H52   H     H_    0.100514 0.066213 0.369870 0.181573
H53   H     H_    0.138391 0.135515 0.351607 0.182427
H54   H     H_    0.055636 0.134062 0.360498 0.121932
O131  O     O_3   0.871378 0.106778 0.436331 -0.566378
C171  C     C_3   0.883699 0.100039 0.377154 -0.180176
H55   H     H_    0.933788 0.100500 0.369866 0.181571
H56   H     H_    0.864494 0.138389 0.351604 0.182437
H57   H     H_    0.865931 0.055634 0.360495 0.121922
O132  O     O_3   0.893220 0.871374 0.436334 -0.566376
C172  C     C_3   0.899958 0.883695 0.377157 -0.180184
H58   H     H_    0.861607 0.864489 0.351608 0.182437
H59   H     H_    0.944362 0.865928 0.360497 0.121924
H60   H     H_    0.899495 0.933784 0.369870 0.181574
O133  O     O_3   0.871374 0.893221 0.563668 -0.566375
C173  C     C_3   0.883696 0.899960 0.622844 -0.180179
H61   H     H_    0.933786 0.899497 0.630131 0.181573
H62   H     H_    0.864490 0.861609 0.648394 0.182436
H63   H     H_    0.865930 0.944364 0.639505 0.121923
O134  O     O_3   0.893220 0.128622 0.563668 -0.566380
C174  C     C_3   0.899958 0.116302 0.622844 -0.180189
H64   H     H_    0.899497 0.066214 0.630132 0.181573
H65   H     H_    0.861607 0.135505 0.648393 0.182438
H66   H     H_    0.944360 0.134070 0.639505 0.121923
O135  O     O_3   0.128625 0.106779 0.563668 -0.566374
C175  C     C_3   0.116303 0.100041 0.622845 -0.180180
H67   H     H_    0.066213 0.100503 0.630131 0.181574
H68   H     H_    0.135508 0.138392 0.648394 0.182436
H69   H     H_    0.134069 0.055636 0.639505 0.121924
O136  O     O_3   0.106779 0.871379 0.563667 -0.566379
C176  C     C_3   0.100040 0.883697 0.622844 -0.180184
H70   H     H_    0.100498 0.933786 0.630133 0.181573
H71   H     H_    0.138392 0.864494 0.648393 0.182441
H72   H     H_    0.055636 0.865925 0.639503 0.121923
O137  O     O_3   0.628623 0.393220 0.936330 -0.566376
C177  C     C_3   0.616299 0.399962 0.877155 -0.180146
H73   H     H_    0.566212 0.399463 0.869868 0.181584
H74   H     H_    0.635532 0.361633 0.851595 0.182393
H75   H     H_    0.634035 0.444381 0.860506 0.121944
O138  O     O_3   0.606782 0.628624 0.936338 -0.566383
C178  C     C_3   0.600045 0.616308 0.877161 -0.180184
H76   H     H_    0.600504 0.566218 0.869870 0.181572
H77   H     H_    0.638398 0.635513 0.851613 0.182442
H78   H     H_    0.555642 0.634079 0.860500 0.121900
O139  O     O_3   0.371378 0.606784 0.936331 -0.566370
C179  C     C_3   0.383716 0.600050 0.877158 -0.180030
H79   H     H_    0.433805 0.600661 0.869869 0.181578
H80   H     H_    0.364397 0.638326 0.851580 0.182261
H81   H     H_    0.366073 0.555582 0.860530 0.122025
O140  O     O_3   0.393216 0.371377 0.936345 -0.566327
C180  C     C_3   0.399952 0.383686 0.877166 -0.180222
H82   H     H_    0.399498 0.433774 0.869871 0.181556
H83   H     H_    0.361596 0.364481 0.851622 0.182437
H84   H     H_    0.444353 0.365908 0.860506 0.121930
O141  O     O_3   0.371362 0.393172 0.063632 -0.566371
C181  C     C_3   0.383757 0.399856 0.122800 -0.179475
H85   H     H_    0.433851 0.398680 0.130102 0.181589
H86   H     H_    0.364013 0.361840 0.148455 0.181649
H87   H     H_    0.366579 0.444552 0.139344 0.122393
O142  O     O_3   0.393219 0.628621 0.063663 -0.566367
C182  C     C_3   0.399961 0.616312 0.122841 -0.180204
H88   H     H_    0.399515 0.566224 0.130134 0.181495
H89   H     H_    0.361603 0.635510 0.148387 0.182448
H90   H     H_    0.444360 0.634096 0.139499 0.121932
O143  O     O_3   0.628625 0.606778 0.063670 -0.566378
C183  C     C_3   0.616304 0.600034 0.122846 -0.180145
H91   H     H_    0.566213 0.600506 0.130135 0.181578
H92   H     H_    0.635521 0.638378 0.148401 0.182423
H93   H     H_    0.634063 0.555622 0.139498 0.121930
O144  O     O_3   0.606784 0.371379 0.063659 -0.566387
C184  C     C_3   0.600051 0.383692 0.122837 -0.180153
H94   H     H_    0.600499 0.433781 0.130129 0.181590
H95   H     H_    0.638411 0.364495 0.148379 0.182455
H96   H     H_    0.555654 0.365909 0.139502 0.121782

loop_
_geom_bond_atom_site_label_1
_geom_bond_atom_site_label_2
_geom_bond_distance
_ccdc_geom_bond_type
C165  H38   1.112324 S    
O143  C183  1.421318 S    
N15   O78   1.301381 A    
C166  H41   1.112320 S    
O8    Zn2   2.034520 S    
C90   C106  1.443928 A    
C66   N18   1.448392 S    
C176  H70   1.106094 S    
O87   C159  1.413650 S    
C77   C93   1.420792 A    
C10   C18   1.413688 S    
C168  H46   1.105005 S    
O89   C161  1.413652 S    
C157  H13   1.105004 S    
C14   C22   1.413688 S    
C50   N6    1.437397 S    
C175  H67   1.106089 S    
O18   Zn2   1.977597 S    
C58   C74   1.403436 A    
C165  H39   1.114975 S    
C8    C144  1.449184 S    
O83   C155  1.413650 S    
C184  H96   1.114162 S    
O25   C13   1.287728 A    
C22   C30   1.193081 T    
C117  C139  1.407494 A    
C87   O135  1.380046 S    
C40   O88   1.383450 S    
C47   C127  1.419174 A    
O19   Zn3   1.977599 S    
O144  C184  1.421323 S    
C48   C128  1.419179 A    
C46   C126  1.419179 A    
C158  H17   1.112322 S    
C99   C131  1.437940 A    
O94   C166  1.413650 S    
C104  C120  1.401368 A    
C89   C105  1.443932 A    
C156  H11   1.112320 S    
C102  C130  1.437940 A    
C98   C114  1.401368 A    
C74   C90   1.420728 A    
O5    Zn1   2.034529 S    
O39   C147  1.263594 A    
C68   C84   1.420732 A    
O42   C150  1.263584 A    
N26   O116  1.301422 A    
N6    O59   1.301494 A    
C96   C112  1.443926 A    
O138  C178  1.421323 S    
C161  H26   1.112321 S    
N1    O50   1.301379 A    
C123  C143  1.407476 A    
C125  C143  1.407450 A    
C51   C67   1.403437 A    
O17   C9    1.287728 A    
C169  H50   1.111141 S    
O46   C152  1.263590 A    
O92   C164  1.413649 S    
C109  C135  1.437954 A    
C132  C147  1.436192 S    
N32   O128  1.301422 A    
O90   C162  1.413650 S    
C97   C113  1.401368 A    
C87   C103  1.443928 A    
C49   N7    1.437399 S    
C84   O132  1.380044 S    
C45   O93   1.383456 S    
C100  C116  1.401366 A    
C47   C63   1.396895 A    
C93   O141  1.380060 S    
O88   C160  1.413650 S    
C23   C31   1.193081 T    
O26   Zn6   1.977597 S    
O129  C169  1.421324 S    
C176  H72   1.114169 S    
O33   Zn9   2.031828 S    
O37   C145  1.263591 A    
N31   O125  1.301241 A    
O27   C13   1.287730 A    
C3    C139  1.449176 S    
C168  H48   1.114977 S    
O31   C15   1.287728 A    
C1    C137  1.449176 S    
O32   C16   1.287729 A    
C77   N29   1.448392 S    
C175  H69   1.114163 S    
O96   C168  1.413648 S    
C41   O89   1.383452 S    
C33   C49   1.396894 A    
C45   C125  1.419157 A    
C34   C50   1.396894 A    
C159  H20   1.112320 S    
O38   Zn10  2.031826 S    
N25   O113  1.301238 A    
C15   C23   1.413688 S    
C116  C140  1.407497 A    
O9    C5    1.286704 A    
C105  C121  1.401369 A    
C38   C54   1.396897 A    
C155  H9    1.114975 S    
C111  C127  1.401367 A    
C106  C134  1.437936 A    
O11   C7    1.286723 A    
C85   O133  1.380045 S    
C86   O134  1.380043 S    
C118  C138  1.407496 A    
N20   O103  1.301246 A    
O16   Zn6   2.034520 S    
C44   O92   1.383453 S    
C40   C120  1.419174 A    
O130  C170  1.421322 S    
C9    C17   1.413688 S    
O4    C4    1.286707 A    
C35   C115  1.419174 A    
C82   O130  1.380043 S    
O93   C165  1.413658 S    
O34   Zn9   2.031826 S    
N23   O109  1.301246 A    
C182  H89   1.111153 S    
O6    Zn4   2.034523 S    
O133  C173  1.421322 S    
C172  H58   1.111147 S    
N27   O117  1.301207 A    
N14   O75   1.301495 A    
C178  H77   1.111150 S    
C181  H86   1.111489 S    
C34   O82   1.383450 S    
O135  C175  1.421324 S    
C126  C142  1.407500 A    
C59   N13   1.437391 S    
O38   C148  1.263590 A    
O21   Zn1   1.977597 S    
O137  C177  1.421310 S    
O34   C146  1.263594 A    
N13   O73   1.301488 A    
C108  C136  1.437929 A    
O23   C11   1.287728 A    
C72   N24   1.448392 S    
N2    O52   1.301381 A    
O37   Zn10  2.031825 S    
O81   C153  1.413651 S    
C154  H6    1.114976 S    
C181  H87   1.114358 S    
N3    O54   1.301381 A    
N24   O111  1.301244 A    
O131  C171  1.421323 S    
C110  C126  1.401366 A    
C83   C99   1.443928 A    
C101  C131  1.437940 A    
C163  H31   1.104999 S    
O13   C7    1.286683 A    
C164  H35   1.112321 S    
C81   C97   1.443927 A    
N28   O119  1.301246 A    
C120  C140  1.407497 A    
O2    Zn2   2.034533 S    
C19   C27   1.193081 T    
C52   C68   1.403437 A    
O35   Zn9   2.031825 S    
C85   C101  1.443929 A    
O7    C1    1.286708 A    
C174  H65   1.111116 S    
C91   C107  1.443933 A    
O142  C182  1.421319 S    
O26   C14   1.287729 A    
O29   C15   1.287730 A    
O46   Zn12  2.031826 S    
O30   C16   1.287727 A    
C78   C94   1.420726 A    
C35   C51   1.396894 A    
O29   Zn5   1.977597 S    
C156  H10   1.105005 S    
C160  H23   1.112319 S    
C92   O140  1.380041 S    
C180  H82   1.106090 S    
C46   O94   1.383450 S    
C75   N27   1.448394 S    
N10   O68   1.301380 A    
C48   C64   1.396898 A    
C33   O81   1.383452 S    
C184  H94   1.106089 S    
C177  H74   1.111136 S    
N17   O98   1.301420 A    
C113  C137  1.407493 A    
O41   C149  1.263593 A    
C108  C124  1.401366 A    
C109  C125  1.401376 A    
C167  H43   1.105006 S    
C172  H60   1.106089 S    
C88   O136  1.380045 S    
C155  H7    1.105003 S    
C42   C122  1.419176 A    
O36   C148  1.263593 A    
O140  C180  1.421319 S    
O15   Zn7   2.034532 S    
O44   C152  1.263593 A    
C180  H84   1.114168 S    
N4    O56   1.301381 A    
C7    C143  1.449165 S    
C76   C92   1.420723 A    
C99   C115  1.401367 A    
C66   C82   1.420732 A    
N22   O108  1.301423 A    
O3    C3    1.286706 A    
C173  H61   1.106088 S    
C70   C86   1.420733 A    
C47   O95   1.383452 S    
O136  C176  1.421321 S    
C36   C52   1.396896 A    
O32   Zn6   1.977597 S    
C164  H36   1.114979 S    
C46   C62   1.396897 A    
O18   C10   1.287727 A    
C96   O144  1.380043 S    
O22   Zn4   1.977594 S    
N12   O71   1.301495 A    
C134  C149  1.436190 S    
O23   Zn3   1.977594 S    
C171  H55   1.106089 S    
C95   O143  1.380043 S    
C154  H4    1.105005 S    
C153  H1    1.105004 S    
C25   C32   1.390930 S    
C71   N23   1.448394 S    
O12   C8    1.286713 A    
C64   N12   1.437400 S    
C163  H33   1.114972 S    
C53   N3    1.437397 S    
C162  H30   1.114977 S    
O14   C6    1.286709 A    
C131  C146  1.436191 S    
C175  H68   1.111146 S    
N16   O79   1.301495 A    
C54   C70   1.403437 A    
C6    C142  1.449180 S    
C107  C123  1.401375 A    
C129  C148  1.436194 S    
C58   N14   1.437399 S    
N10   O67   1.301495 A    
N5    O58   1.301382 A    
C133  C152  1.436191 S    
C121  C141  1.407496 A    
N29   O122  1.301425 A    
C100  C132  1.437935 A    
O30   Zn8   1.977594 S    
O84   C156  1.413649 S    
C2    C138  1.449180 S    
C157  H15   1.114976 S    
C155  H8    1.112320 S    
O141  C181  1.421332 S    
C156  H12   1.114974 S    
C49   C65   1.403437 A    
N30   O123  1.301246 A    
C37   O85   1.383452 S    
C38   O86   1.383449 S    
C53   C69   1.403440 A    
C42   C58   1.396897 A    
O45   C149  1.263591 A    
C60   C76   1.403435 A    
C167  H45   1.114977 S    
C67   C83   1.420733 A    
C153  H3    1.114975 S    
N6    O60   1.301382 A    
N21   O105  1.301245 A    
C45   C61   1.396863 A    
C78   N30   1.448389 S    
N1    O49   1.301496 A    
O10   C6    1.286707 A    
C106  C122  1.401366 A    
N8    O64   1.301381 A    
C102  C118  1.401368 A    
C86   C102  1.443926 A    
C39   C119  1.419174 A    
C170  H54   1.114162 S    
C107  C135  1.437962 A    
C16   C24   1.413688 S    
O2    C2    1.286708 A    
N11   O69   1.301494 A    
O35   C147  1.263592 A    
C179  H79   1.106133 S    
O47   Zn12  2.031828 S    
O33   C145  1.263593 A    
C94   O142  1.380036 S    
N26   O115  1.301244 A    
C69   N21   1.448393 S    
N21   O106  1.301421 A    
O31   Zn7   1.977594 S    
C28   C29   1.390930 S    
C35   O83   1.383450 S    
C57   N15   1.437400 S    
C42   O90   1.383451 S    
C165  H37   1.105010 S    
C43   O91   1.383449 S    
C182  H88   1.106086 S    
C43   C59   1.396883 A    
O21   C11   1.287730 A    
C176  H71   1.111151 S    
O22   C12   1.287727 A    
C91   O139  1.380040 S    
C171  H57   1.114162 S    
C67   N19   1.448392 S    
C168  H47   1.112321 S    
C115  C139  1.407492 A    
O13   Zn5   2.034529 S    
C60   N16   1.437399 S    
C162  H28   1.105003 S    
C82   C98   1.443929 A    
C128  C144  1.407504 A    
C83   O131  1.380043 S    
N19   O101  1.301245 A    
O3    Zn3   2.034519 S    
C75   C91   1.420744 A    
C81   O129  1.380045 S    
C36   C116  1.419174 A    
C79   C95   1.420728 A    
C80   C96   1.420728 A    
C44   C60   1.396898 A    
O139  C179  1.421307 S    
C39   C55   1.396893 A    
O28   Zn8   1.977599 S    
O36   Zn9   2.031824 S    
C158  H16   1.105005 S    
C73   N25   1.448389 S    
C158  H18   1.114975 S    
N7    O62   1.301380 A    
O48   Zn12  2.031824 S    
N20   O104  1.301420 A    
C177  H75   1.114111 S    
C50   C66   1.403438 A    
C56   N4    1.437398 S    
C114  C138  1.407495 A    
O134  C174  1.421325 S    
C65   N17   1.448391 S    
N8    O63   1.301495 A    
C112  C128  1.401367 A    
N3    O53   1.301496 A    
O11   Zn7   2.034519 S    
N30   O124  1.301425 A    
C43   C123  1.419164 A    
C157  H14   1.112319 S    
C84   C100  1.443928 A    
C17   C25   1.193081 T    
C170  H52   1.106091 S    
C103  C119  1.401368 A    
C169  H49   1.106087 S    
O5    C3    1.286708 A    
C104  C132  1.437939 A    
C62   N10   1.437399 S    
C179  H81   1.114161 S    
C61   C77   1.403420 A    
C27   C30   1.390930 S    
C172  H59   1.114163 S    
N32   O127  1.301244 A    
O7    Zn3   2.034532 S    
C166  H40   1.105006 S    
O45   Zn12  2.031825 S    
C154  H5    1.112319 S    
C89   O137  1.380040 S    
N24   O112  1.301420 A    
C12   C20   1.413688 S    
C95   C111  1.443931 A    
C59   C75   1.403434 A    
C13   C21   1.413688 S    
C163  H32   1.112317 S    
O17   Zn1   1.977597 S    
C72   C88   1.420729 A    
O43   C151  1.263588 A    
C183  H91   1.106127 S    
C20   C28   1.193081 T    
C41   C121  1.419170 A    
C135  C150  1.436194 S    
C39   O87   1.383453 S    
C64   C80   1.403434 A    
O14   Zn8   2.034523 S    
O91   C163  1.413649 S    
C111  C133  1.437941 A    
C98   C130  1.437937 A    
O20   Zn4   1.977599 S    
C160  H22   1.105004 S    
O95   C167  1.413651 S    
C169  H51   1.114159 S    
C4    C140  1.449177 S    
C70   N22   1.448391 S    
N17   O97   1.301245 A    
C5    C141  1.449176 S    
C56   C72   1.403437 A    
C161  H27   1.114974 S    
C34   C114  1.419173 A    
O8    C4    1.286709 A    
C73   C89   1.420733 A    
O4    Zn4   2.034531 S    
C136  C151  1.436188 S    
C159  H19   1.105005 S    
C167  H44   1.112321 S    
C122  C142  1.407503 A    
N25   O114  1.301417 A    
O86   C158  1.413649 S    
C94   C110  1.443921 A    
C36   O84   1.383451 S    
O20   C10   1.287729 A    
C180  H83   1.111151 S    
C177  H73   1.106042 S    
C130  C145  1.436192 S    
C184  H95   1.111146 S    
O42   Zn11  2.031826 S    
O44   Zn11  2.031824 S    
C18   C26   1.193081 T    
C26   C31   1.390930 S    
N27   O118  1.301385 A    
C182  H90   1.114170 S    
C40   C56   1.396895 A    
C97   C129  1.437940 A    
C62   C78   1.403436 A    
C178  H78   1.114164 S    
C181  H85   1.106474 S    
O16   C8    1.286704 A    
C51   N5    1.437400 S    
C164  H34   1.105005 S    
C119  C137  1.407494 A    
O10   Zn6   2.034533 S    
C76   N28   1.448389 S    
O25   Zn5   1.977597 S    
O6    C2    1.286706 A    
N12   O72   1.301382 A    
N13   O74   1.301384 A    
C38   C118  1.419172 A    
O27   Zn7   1.977599 S    
C92   C108  1.443922 A    
C93   C109  1.443945 A    
N2    O51   1.301495 A    
C103  C129  1.437939 A    
C173  H63   1.114164 S    
C171  H56   1.111147 S    
C153  H2    1.112318 S    
N11   O70   1.301382 A    
O85   C157  1.413650 S    
C162  H29   1.112321 S    
C79   N31   1.448391 S    
N16   O80   1.301381 A    
N31   O126  1.301415 A    
O43   Zn11  2.031825 S    
C124  C144  1.407507 A    
N19   O102  1.301420 A    
C88   C104  1.443927 A    
O19   C9    1.287730 A    
N14   O76   1.301381 A    
C174  H64   1.106056 S    
C183  H93   1.114194 S    
C63   N9    1.437399 S    
O40   Zn10  2.031824 S    
O47   C151  1.263594 A    
N5    O57   1.301494 A    
O24   C12   1.287729 A    
C174  H66   1.114134 S    
C65   C81   1.420733 A    
N23   O110  1.301422 A    
N18   O99   1.301244 A    
O28   C14   1.287727 A    
O24   Zn2   1.977597 S    
N29   O121  1.301249 A    
O12   Zn8   2.034531 S    
C48   O96   1.383451 S    
C101  C117  1.401367 A    
C69   C85   1.420732 A    
C110  C134  1.437936 A    
C105  C133  1.437941 A    
N9    O66   1.301382 A    
C71   C87   1.420731 A    
C55   N1    1.437398 S    
C160  H24   1.114976 S    
C80   N32   1.448391 S    
C57   C73   1.403433 A    
N15   O77   1.301492 A    
C68   N20   1.448393 S    
C37   C53   1.396896 A    
C21   C29   1.193081 T    
O132  C172  1.421323 S    
C161  H25   1.105004 S    
O48   C150  1.263607 A    
C90   O138  1.380044 S    
C173  H62   1.111147 S    
C159  H21   1.114975 S    
C63   C79   1.403436 A    
C183  H92   1.111185 S    
C44   C124  1.419181 A    
C166  H42   1.114976 S    
C11   C19   1.413688 S    
C54   N2    1.437398 S    
C55   C71   1.403438 A    
C170  H53   1.111149 S    
C127  C141  1.407496 A    
C41   C57   1.396895 A    
C52   N8    1.437397 S    
N22   O107  1.301245 A    
N28   O120  1.301421 A    
C179  H80   1.111213 S    
C24   C32   1.193081 T    
N4    O55   1.301495 A    
C61   N11   1.437411 S    
O41   Zn11  2.031828 S    
O82   C154  1.413650 S    
O39   Zn10  2.031828 S    
C178  H76   1.106090 S    
C112  C136  1.437935 A    
O15   C5    1.286710 A    
O9    Zn5   2.034521 S    
O1    C1    1.286706 A    
C74   N26   1.448391 S    
N18   O100  1.301422 A    
C33   C113  1.419171 A    
N7    O61   1.301494 A    
O40   C146  1.263593 A    
N9    O65   1.301496 A    
O1    Zn1   2.034521 S    
C37   C117  1.419172 A    
