data_mof_unit_33119.cif
_audit_creation_date              2012-12-11T15:50:45-0500
_audit_creation_method            fapswitch 2.2
_symmetry_space_group_name_H-M    P1
_symmetry_Int_Tables_number       1
_space_group_crystal_system       triclinic
_cell_length_a                    19.155061
_cell_length_b                    11.392691
_cell_length_c                    18.593045
_cell_angle_alpha                 89.66103
_cell_angle_beta                  91.026178
_cell_angle_gamma                 89.68142
_cell_volume                      4056.73037961

loop_
_atom_site_label
_atom_site_type_symbol
_atom_type_description
_atom_site_fract_x
_atom_site_fract_y
_atom_site_fract_z
_atom_type_partial_charge
C1    C     C_R   0.271401 0.040084 0.852928 0.553422
C2    C     C_R   0.729258 0.041834 0.147537 0.546475
C3    C     C_R   0.771401 0.540084 0.852928 0.553424
C4    C     C_R   0.229258 0.541834 0.147537 0.546475
C5    C     C_3   0.556011 0.819464 0.966527 0.391587
C6    C     C_3   0.521215 0.736484 0.018824 0.496856
C7    C     C_3   0.056011 0.319464 0.966527 0.391589
C8    C     C_3   0.021215 0.236484 0.018824 0.496854
C9    C     C_R   0.253652 0.569603 0.075850 0.059620
C10   C     C_R   0.748235 0.567269 0.924717 0.061552
C11   C     C_R   0.753652 0.069603 0.075850 0.059620
C12   C     C_R   0.248235 0.067269 0.924717 0.061551
C13   C     C_R   0.272368 0.476598 0.030613 -0.076125
C14   C     C_R   0.731723 0.474527 0.971509 -0.095684
C15   C     C_R   0.772368 0.976598 0.030613 -0.076125
C16   C     C_R   0.231723 0.974527 0.971509 -0.095685
C17   C     C_R   0.277274 0.496104 0.955887 -0.021859
C18   C     C_R   0.730100 0.492216 0.046202 -0.069948
C19   C     C_R   0.777274 0.996104 0.955887 -0.021861
C20   C     C_R   0.230100 0.992216 0.046202 -0.069948
C21   C     C_R   0.278460 0.700776 0.979002 -0.167137
C22   C     C_R   0.731480 0.698759 0.022588 -0.081552
C23   C     C_R   0.778460 0.200776 0.979002 -0.167135
C24   C     C_R   0.231480 0.198759 0.022588 -0.081552
C25   C     C_R   0.268796 0.682330 0.052550 -0.133547
C26   C     C_R   0.743402 0.681075 0.949707 -0.073443
C27   C     C_R   0.768796 0.182330 0.052550 -0.133548
C28   C     C_R   0.243402 0.181075 0.949707 -0.073443
C29   C     C_3   0.340403 0.408779 0.034736 0.168532
C30   C     C_3   0.666623 0.400185 0.971194 0.181859
C31   C     C_3   0.840403 0.908779 0.034736 0.168533
C32   C     C_3   0.166622 0.900185 0.971194 0.181858
C33   C     C_3   0.346639 0.431799 0.954909 0.274146
C34   C     C_3   0.666024 0.416739 0.052362 0.309414
C35   C     C_3   0.846639 0.931799 0.954909 0.274146
C36   C     C_3   0.166024 0.916739 0.052362 0.309414
C37   C     C_R   0.264971 0.610335 0.929966 0.058246
C38   C     C_R   0.739064 0.606615 0.072172 0.053936
C39   C     C_R   0.764971 0.110335 0.929966 0.058246
C40   C     C_R   0.239064 0.106615 0.072172 0.053936
C41   C     C_R   0.513557 0.825787 0.426964 0.093378
C42   C     C_R   0.490164 0.840379 0.574715 0.106475
C43   C     C_R   0.013557 0.325787 0.426964 0.093378
C44   C     C_R   0.990164 0.340379 0.574715 0.106475
C45   C     C_R   0.467855 0.822493 0.855470 0.596490
C46   C     C_R   0.530117 0.822720 0.145225 0.558865
C47   C     C_R   0.967854 0.322493 0.855470 0.596496
C48   C     C_R   0.030117 0.322720 0.145225 0.558865
C49   C     C_R   0.565916 0.797366 0.477918 -0.006840
C50   C     C_R   0.554724 0.805027 0.550610 0.056787
C51   C     C_R   0.065916 0.297367 0.477918 -0.006839
C52   C     C_R   0.054724 0.305028 0.550611 0.056783
C53   C     C_R   0.438818 0.879220 0.524172 -0.007351
C54   C     C_R   0.450176 0.871794 0.450201 -0.035466
C55   C     C_R   0.938818 0.379219 0.524172 -0.007346
C56   C     C_R   0.950176 0.371793 0.450201 -0.035465
C57   C     C_3   0.610481 0.690608 0.487792 0.264641
C58   C     C_3   0.597990 0.699511 0.568018 0.286750
C59   C     C_3   0.110481 0.190609 0.487792 0.264640
C60   C     C_3   0.097991 0.199512 0.568018 0.286747
C61   C     C_R   0.221619 0.508875 0.438006 -0.041141
C62   C     C_R   0.773135 0.534115 0.562771 -0.040406
C63   C     C_R   0.721619 0.008875 0.438006 -0.041141
C64   C     C_R   0.273135 0.034116 0.562771 -0.040407
C65   C     C_R   0.166484 0.515809 0.485513 -0.105933
C66   C     C_R   0.823283 0.599456 0.528884 -0.059835
C67   C     C_R   0.666484 0.015809 0.485513 -0.105932
C68   C     C_R   0.323282 0.099457 0.528884 -0.059841
C69   C     C_R   0.180083 0.548182 0.556066 -0.033342
C70   C     C_R   0.821403 0.613583 0.456241 -0.091984
C71   C     C_R   0.680083 0.048182 0.556066 -0.033341
C72   C     C_R   0.321403 0.113584 0.456241 -0.091986
C73   C     C_R   0.303116 0.519707 0.539241 0.174017
C74   C     C_R   0.726440 0.480153 0.444723 0.292836
C75   C     C_R   0.803116 0.019708 0.539241 0.174024
C76   C     C_R   0.226440 0.980153 0.444723 0.292838
C77   C     C_R   0.290121 0.511279 0.465688 0.337758
C78   C     C_R   0.725878 0.468999 0.520112 0.347480
C79   C     C_R   0.790121 0.011280 0.465688 0.337759
C80   C     C_R   0.225878 0.969000 0.520113 0.347481
C81   C     C_3   0.105507 0.597306 0.481186 0.303769
C82   C     C_3   0.843483 0.723379 0.541693 0.340034
C83   C     C_3   0.605507 0.097306 0.481186 0.303766
C84   C     C_3   0.343483 0.223380 0.541693 0.340037
C85   C     C_3   0.123133 0.635975 0.556830 0.210872
C86   C     C_3   0.848199 0.735579 0.460696 0.219335
C87   C     C_3   0.623133 0.135975 0.556830 0.210874
C88   C     C_3   0.348199 0.235579 0.460696 0.219327
C89   C     C_R   0.262975 0.640364 0.853337 0.549721
C90   C     C_R   0.738231 0.638034 0.148065 0.541609
C91   C     C_R   0.762975 0.140364 0.853337 0.549718
C92   C     C_R   0.238231 0.138034 0.148065 0.541609
C93   C     C_R   0.247668 0.559921 0.582855 -0.043095
C94   C     C_R   0.766537 0.567837 0.414994 -0.067636
C95   C     C_R   0.747668 0.059921 0.582855 -0.043093
C96   C     C_R   0.266537 0.067837 0.414994 -0.067633
C97   C     C_R   0.286047 0.009281 0.637859 0.588330
C98   C     C_R   0.709317 0.997412 0.361334 0.576291
C99   C     C_R   0.786047 0.509281 0.637859 0.588337
C100  C     C_R   0.209317 0.497412 0.361334 0.576291
C101  C     C_R   0.469197 0.824168 0.647997 0.586189
C102  C     C_R   0.531423 0.822107 0.352491 0.543090
C103  C     C_R   0.969197 0.324168 0.647997 0.586190
C104  C     C_R   0.031423 0.322107 0.352491 0.543090
C105  C     C_R   0.260188 0.635012 0.644848 0.568894
C106  C     C_R   0.743067 0.632928 0.352344 0.561125
C107  C     C_R   0.760188 0.135013 0.644848 0.568895
C108  C     C_R   0.243067 0.132928 0.352344 0.561125
C109  C     C_3   0.436134 0.861267 0.035034 -0.210230
C110  C     C_3   0.470858 0.945184 0.980120 -0.182761
C111  C     C_3   0.936134 0.361267 0.035034 -0.210231
C112  C     C_3   0.970858 0.445184 0.980120 -0.182758
C113  C     C_3   0.449823 0.757554 0.984122 -0.091662
C114  C     C_3   0.543155 0.923258 0.017229 -0.154993
C115  C     C_3   0.949823 0.257554 0.984122 -0.091664
C116  C     C_3   0.043155 0.423258 0.017229 -0.154990
C117  C     C_3   0.485613 0.838836 0.930877 0.001811
C118  C     C_3   0.507789 0.837090 0.070150 -0.009604
C119  C     C_3   0.985613 0.338836 0.930877 0.001812
C120  C     C_3   0.007789 0.337090 0.070150 -0.009605
Cr1   Cr    Cr6+3 0.229640 0.835880 0.747370 1.174816
Cr2   Cr    Cr6+3 0.770360 0.835880 0.252630 1.152985
Cr3   Cr    Cr6+3 0.729640 0.335880 0.747370 1.174781
Cr4   Cr    Cr6+3 0.270360 0.335880 0.252630 1.152985
Cr5   Cr    Cr6+3 0.387390 0.989720 0.750850 1.114208
Cr6   Cr    Cr6+3 0.612610 0.989720 0.249150 1.095735
Cr7   Cr    Cr6+3 0.887390 0.489720 0.750850 1.114194
Cr8   Cr    Cr6+3 0.112610 0.489720 0.249150 1.095735
Cr9   Cr    Cr6+3 0.385770 0.677220 0.749340 1.167418
Cr10  Cr    Cr6+3 0.614230 0.677220 0.250660 1.196368
Cr11  Cr    Cr6+3 0.885770 0.177220 0.749340 1.167408
Cr12  Cr    Cr6+3 0.114230 0.177220 0.250660 1.196367
H1    H     H_    0.411766 0.690787 0.968993 0.238409
H2    H     H_    0.581807 0.991758 0.031925 0.155781
H3    H     H_    0.911766 0.190787 0.968993 0.238409
H4    H     H_    0.081807 0.491758 0.031925 0.155783
H5    H     H_    0.387458 0.901584 0.542141 0.095211
H6    H     H_    0.409489 0.897608 0.412031 0.154443
H7    H     H_    0.887457 0.401582 0.542141 0.095211
H8    H     H_    0.909489 0.397607 0.412031 0.154442
H9    H     H_    0.165246 0.206166 0.472294 0.075011
H10   H     H_    0.068437 0.125301 0.591527 0.225874
H11   H     H_    0.665245 0.706165 0.472294 0.075011
H12   H     H_    0.568436 0.625300 0.591527 0.225876
H13   H     H_    0.110062 0.666388 0.439862 0.215476
H14   H     H_    0.800107 0.775138 0.565069 0.115980
H15   H     H_    0.610062 0.166388 0.439862 0.215475
H16   H     H_    0.300107 0.275139 0.565069 0.115978
H17   H     H_    0.142037 0.725492 0.556648 0.203072
H18   H     H_    0.810778 0.801617 0.440363 0.077219
H19   H     H_    0.642036 0.225492 0.556649 0.203074
H20   H     H_    0.310778 0.301617 0.440362 0.077221
H21   H     H_    0.386980 0.878172 0.064022 0.145703
H22   H     H_    0.450235 0.031876 0.961932 0.172855
H23   H     H_    0.886980 0.378172 0.064022 0.145703
H24   H     H_    0.950235 0.531875 0.961932 0.172858
H25   H     H_    0.294538 0.785335 0.959485 0.084943
H26   H     H_    0.717433 0.784344 0.041519 0.118803
H27   H     H_    0.794538 0.285335 0.959485 0.084945
H28   H     H_    0.217433 0.284344 0.041519 0.118803
H29   H     H_    0.275684 0.752635 0.090707 0.107843
H30   H     H_    0.744840 0.754158 0.912519 0.160310
H31   H     H_    0.775684 0.252635 0.090707 0.107843
H32   H     H_    0.244840 0.254159 0.912519 0.160312
H33   H     H_    0.835246 0.814540 0.046009 0.072268
H34   H     H_    0.173880 0.807854 0.957395 0.085084
H35   H     H_    0.335246 0.314540 0.046009 0.072268
H36   H     H_    0.673880 0.307854 0.957395 0.085082
H37   H     H_    0.345531 0.351178 0.921907 0.099956
H38   H     H_    0.674616 0.335055 0.083335 0.088920
H39   H     H_    0.845530 0.851178 0.921907 0.099954
H40   H     H_    0.174616 0.835055 0.083335 0.088920
O1    O     O_R   0.214300 0.709080 0.827500 -0.472146
O2    O     O_R   0.785700 0.709080 0.172500 -0.495827
O3    O     O_R   0.714300 0.209080 0.827500 -0.472174
O4    O     O_R   0.285700 0.209080 0.172500 -0.495827
O5    O     O_R   0.445900 0.919370 0.676500 -0.466631
O6    O     O_R   0.554100 0.919370 0.323500 -0.481471
O7    O     O_R   0.945900 0.419370 0.676500 -0.466630
O8    O     O_R   0.054100 0.419370 0.323500 -0.481471
O9    O     O_R   0.456660 0.717710 0.669820 -0.447408
O10   O     O_R   0.543340 0.717710 0.330180 -0.450394
O11   O     O_R   0.956660 0.217710 0.669820 -0.447408
O12   O     O_R   0.043340 0.217710 0.330180 -0.450394
O13   O     O_R   0.320590 0.625770 0.672930 -0.445620
O14   O     O_R   0.679410 0.625770 0.327070 -0.434379
O15   O     O_R   0.820590 0.125770 0.672930 -0.445615
O16   O     O_R   0.179410 0.125770 0.327070 -0.434379
O17   O     O_3   0.334270 0.834280 0.749190 -0.370536
O18   O     O_3   0.665730 0.834280 0.250810 -0.374063
O19   O     O_3   0.834270 0.334280 0.749190 -0.370530
O20   O     O_3   0.165730 0.334280 0.250810 -0.374064
O21   O     O_R   0.236190 0.958390 0.823150 -0.451839
O22   O     O_R   0.763810 0.958390 0.176850 -0.448396
O23   O     O_R   0.736190 0.458390 0.823150 -0.451834
O24   O     O_R   0.263810 0.458390 0.176850 -0.448396
O25   O     O_R   0.332090 0.075280 0.831290 -0.525765
O26   O     O_R   0.667910 0.075280 0.168710 -0.521295
O27   O     O_R   0.832090 0.575280 0.831290 -0.525770
O28   O     O_R   0.167910 0.575280 0.168710 -0.521295
O29   O     O_R   0.446280 0.918040 0.826620 -0.513323
O30   O     O_R   0.553720 0.918040 0.173380 -0.517649
O31   O     O_R   0.946280 0.418040 0.826620 -0.513311
O32   O     O_R   0.053720 0.418040 0.173380 -0.517649
O33   O     O_R   0.457080 0.716270 0.831760 -0.446380
O34   O     O_R   0.542920 0.716270 0.168240 -0.405283
O35   O     O_R   0.957080 0.216270 0.831760 -0.446383
O36   O     O_R   0.042920 0.216270 0.168240 -0.405283
O37   O     O_R   0.320980 0.624440 0.823040 -0.471779
O38   O     O_R   0.679020 0.624440 0.176960 -0.427068
O39   O     O_R   0.820980 0.124440 0.823040 -0.471777
O40   O     O_R   0.179020 0.124440 0.176960 -0.427068
O41   O     O_R   0.213880 0.710510 0.665560 -0.458496
O42   O     O_R   0.786120 0.710510 0.334440 -0.512576
O43   O     O_R   0.713880 0.210510 0.665560 -0.458518
O44   O     O_R   0.286120 0.210510 0.334440 -0.512576
O45   O     O_R   0.235800 0.959720 0.673040 -0.408691
O46   O     O_R   0.764200 0.959720 0.326960 -0.410770
O47   O     O_R   0.735800 0.459720 0.673040 -0.408687
O48   O     O_R   0.264200 0.459720 0.326960 -0.410770
O49   O     O_R   0.331670 0.076720 0.669350 -0.444246
O50   O     O_R   0.668330 0.076720 0.330650 -0.463267
O51   O     O_R   0.831670 0.576720 0.669350 -0.444264
O52   O     O_R   0.168330 0.576720 0.330650 -0.463267
F1    F     F_    0.579798 0.591909 0.458184 -0.567637
F2    F     F_    0.657820 0.729173 0.606407 -0.639972
F3    F     F_    0.079799 0.091909 0.458185 -0.567639
F4    F     F_    0.157821 0.229174 0.606407 -0.639974
S1    S     S_3+6 0.392351 0.512325 0.564740 0.120727
O53   O     O_2   0.407142 0.475294 0.641280 -0.185242
O54   O     O_2   0.431850 0.433059 0.517318 -0.147389
O55   O     O_3   0.422224 0.644157 0.546663 -0.559672
H41   H     H_    0.431242 0.643443 0.494390 0.388105
S2    S     S_3+6 0.693623 0.370805 0.388040 0.066278
O56   O     O_2   0.720106 0.256719 0.418250 -0.341623
O57   O     O_2   0.615399 0.373970 0.386018 -0.217804
O58   O     O_3   0.723440 0.386616 0.303954 -0.516854
H42   H     H_    0.705461 0.317623 0.277420 0.376648
S3    S     S_3+6 0.892351 0.012324 0.564740 0.120714
O59   O     O_2   0.907142 0.975294 0.641280 -0.185280
O60   O     O_2   0.931849 0.933058 0.517318 -0.147394
O61   O     O_3   0.922225 0.144155 0.546663 -0.559668
H43   H     H_    0.931244 0.143441 0.494391 0.388107
S4    S     S_3+6 0.193624 0.870805 0.388040 0.066277
O62   O     O_2   0.220107 0.756719 0.418250 -0.341623
O63   O     O_2   0.115399 0.873970 0.386018 -0.217807
O64   O     O_3   0.223441 0.886616 0.303954 -0.516854
H44   H     H_    0.205461 0.817623 0.277420 0.376648
F5    F     F_    0.345126 0.516426 0.420522 -0.555380
F6    F     F_    0.675806 0.405831 0.551452 -0.598304
F7    F     F_    0.845126 0.016427 0.420522 -0.555379
F8    F     F_    0.175806 0.905831 0.551452 -0.598306
F9    F     F_    0.043579 0.540443 0.475197 -0.580369
F10   F     F_    0.904711 0.734892 0.580143 -0.478566
F11   F     F_    0.543579 0.040443 0.475198 -0.580373
F12   F     F_    0.404710 0.234892 0.580144 -0.478518
S5    S     S_3+6 0.064454 0.610649 0.628679 0.137730
O65   O     O_2   0.993421 0.585955 0.598744 -0.132754
O66   O     O_2   0.089313 0.509359 0.674815 -0.276830
O67   O     O_3   0.060630 0.732270 0.679280 -0.441946
H45   H     H_    0.026018 0.714295 0.716677 0.364269
S6    S     S_3+6 0.932068 0.740550 0.418268 0.192499
O68   O     O_2   0.944280 0.631899 0.374641 -0.232372
O69   O     O_2   0.933702 0.845007 0.368543 -0.190658
O70   O     O_3   0.995780 0.752115 0.480612 -0.360534
H46   H     H_    0.024841 0.818765 0.465478 0.407868
S7    S     S_3+6 0.564454 0.110646 0.628680 0.137734
O71   O     O_2   0.493421 0.085957 0.598746 -0.132689
O72   O     O_2   0.589314 0.009352 0.674812 -0.276903
O73   O     O_3   0.560632 0.232264 0.679283 -0.441913
H47   H     H_    0.526103 0.214220 0.716750 0.364223
S8    S     S_3+6 0.432068 0.240550 0.418269 0.192497
O74   O     O_2   0.444280 0.131900 0.374642 -0.232374
O75   O     O_2   0.433703 0.345007 0.368544 -0.190657
O76   O     O_3   0.495780 0.252115 0.480613 -0.360528
H48   H     H_    0.524841 0.318765 0.465479 0.407868
F13   F     F_    0.616366 0.804946 0.928434 -0.617168
F14   F     F_    0.542978 0.627145 0.037367 -0.444546
F15   F     F_    0.116366 0.304946 0.928434 -0.617165
F16   F     F_    0.042978 0.127145 0.037367 -0.444545
S9    S     S_3+6 0.407518 0.463321 0.094978 0.128085
O77   O     O_2   0.476939 0.420049 0.070718 -0.095587
O78   O     O_2   0.407360 0.594758 0.098458 -0.272542
O79   O     O_3   0.396204 0.408678 0.178093 -0.474642
H49   H     H_    0.433795 0.444038 0.207998 0.379867
S10   S     S_3+6 0.594711 0.450445 0.915506 0.147508
O80   O     O_2   0.527806 0.406014 0.945290 -0.140899
O81   O     O_2   0.592564 0.581355 0.908977 -0.162805
O82   O     O_3   0.602573 0.393419 0.832860 -0.495788
H50   H     H_    0.561951 0.424517 0.804903 0.367242
S11   S     S_3+6 0.907518 0.963321 0.094978 0.128085
O83   O     O_2   0.976939 0.920049 0.070718 -0.095587
O84   O     O_2   0.907360 0.094758 0.098458 -0.272542
O85   O     O_3   0.896204 0.908678 0.178093 -0.474642
H51   H     H_    0.933795 0.944038 0.207998 0.379867
S12   S     S_3+6 0.094711 0.950445 0.915506 0.147512
O86   O     O_2   0.027806 0.906014 0.945290 -0.140898
O87   O     O_2   0.092564 0.081355 0.908977 -0.162810
O88   O     O_3   0.102573 0.893418 0.832860 -0.495754
H52   H     H_    0.061950 0.924515 0.804904 0.367237
F17   F     F_    0.401607 0.502595 0.936724 -0.558815
F18   F     F_    0.610289 0.474918 0.079695 -0.480101
F19   F     F_    0.901607 0.002595 0.936724 -0.558817
F20   F     F_    0.110289 0.974918 0.079695 -0.480101

loop_
_geom_bond_atom_site_label_1
_geom_bond_atom_site_label_2
_ccdc_geom_bond_type
Cr4   O48   S    
Cr9   O13   S    
S11   O83   D    
C73   C93   A    
Cr12  O16   S    
C75   C95   A    
C48   C120  S    
Cr6   O30   S    
S9    O79   S    
C103  O11   A    
O79   H49   S    
C63   C98   S    
C69   C93   A    
C5    C6    S    
C20   C40   A    
C71   C95   A    
C22   C38   A    
C29   C33   S    
Cr6   O50   S    
C55   H7    S    
S4    O62   D    
C9    C13   A    
C72   C88   S    
C11   C15   A    
Cr1   O1    S    
C12   C16   A    
S8    O74   D    
C84   F12   S    
Cr8   O8    S    
C74   S2    S    
C58   F2    S    
C96   C108  S    
C59   C60   S    
C113  H1    S    
Cr8   O52   S    
S2    O57   D    
Cr2   O22   S    
C7    F15   S    
C39   C91   S    
C109  C118  S    
C51   C52   A    
C102  O10   A    
C7    C119  S    
C106  O14   A    
C81   F9    S    
C30   C34   S    
C3    O23   A    
S2    O58   S    
Cr1   O41   S    
C1    O21   A    
S1    O53   D    
C66   C82   S    
C11   C27   A    
C68   C72   A    
C48   O36   A    
C34   F18   S    
S12   O86   D    
C54   H6    S    
C98   O46   A    
C78   F6    S    
C53   H5    S    
Cr9   O37   S    
C6    F14   S    
C110  C114  S    
C4    O24   A    
C38   C90   S    
S10   O82   S    
C108  O16   A    
C84   C88   S    
C90   O2    A    
S4    O64   S    
C18   C38   A    
C19   C35   S    
C76   C96   A    
S10   O81   D    
C44   C55   A    
C66   C70   A    
S8    O76   S    
C56   H8    S    
Cr6   O6    S    
C30   H36   S    
C62   C99   S    
C72   C96   A    
C61   C65   A    
C107  O43   A    
C5    C117  S    
C73   C77   A    
Cr8   O20   S    
C111  H23   S    
C86   S6    S    
Cr10  O18   S    
Cr11  O15   S    
C67   C83   S    
C111  C112  S    
Cr11  O35   S    
C73   S1    S    
C7    C8    S    
C53   C54   A    
C75   C79   A    
C64   C68   A    
S11   O84   D    
S1    O55   S    
C86   H18   S    
C42   C53   A    
Cr1   O17   S    
S7    O73   S    
C31   S11   S    
C49   C57   S    
C41   C102  S    
S5    O65   D    
Cr6   O18   S    
C43   C104  S    
C52   C60   S    
C27   H31   S    
S12   O88   S    
C31   H33   S    
C61   C77   A    
Cr9   O17   S    
Cr12  O20   S    
C103  O7    A    
C57   F1    S    
Cr6   O26   S    
O58   H42   S    
C1    C12   S    
C2    C11   S    
C44   C103  S    
C106  O42   A    
C99   O51   A    
C36   H40   S    
C62   C66   A    
C91   O39   A    
C10   C14   A    
C89   O37   A    
Cr2   O2    S    
Cr7   O19   S    
C116  C120  S    
C60   F4    S    
C7    C116  S    
Cr10  O34   S    
C33   F17   S    
C35   F19   S    
Cr4   O24   S    
O82   H50   S    
C114  H2    S    
S3    O60   D    
C42   C50   A    
C113  C117  S    
C115  C119  S    
Cr11  O39   S    
C102  O6    A    
C92   O40   A    
C61   C100  S    
C42   C101  S    
C112  C116  S    
C109  H21   S    
C45   C117  S    
C46   O34   A    
C21   C25   A    
Cr1   O45   S    
C62   C78   A    
C1    O25   A    
C76   C80   A    
O67   H45   S    
Cr7   O27   S    
Cr3   O3    S    
S7    O71   D    
C15   C31   S    
S6    O68   D    
Cr4   O4    S    
Cr5   O49   S    
C16   C32   S    
C48   O32   A    
C13   C17   A    
S5    O67   S    
C85   S5    S    
C57   C58   S    
C115  H3    S    
C98   O50   A    
S4    O63   D    
C101  O9    A    
C58   H12   S    
C4    O28   A    
C100  O48   A    
S8    O75   D    
C49   C50   A    
C112  H24   S    
C4    C9    S    
C81   C85   S    
C87   S7    S    
C83   C87   S    
C55   C56   A    
Cr3   O43   S    
C35   H39   S    
C74   C94   A    
C75   S3    S    
S3    O59   D    
C89   O1    A    
C33   H37   S    
S6    O70   S    
C9    C25   A    
C92   O4    A    
C15   C19   A    
Cr5   O29   S    
C12   C28   A    
C13   C29   S    
C70   C94   A    
C32   S12   S    
O85   H51   S    
C46   C118  S    
Cr8   O32   S    
C41   C49   A    
Cr3   O47   S    
C60   H10   S    
Cr11  O11   S    
C94   C106  S    
C80   F8    S    
C59   F3    S    
S12   O87   D    
C64   C80   A    
Cr3   O23   S    
C17   C33   S    
C110  C117  S    
Cr1   O21   S    
C82   H14   S    
Cr2   O18   S    
C84   H16   S    
C68   C84   S    
C24   C28   A    
C22   H26   S    
C82   C86   S    
C26   H30   S    
Cr2   O42   S    
C83   F11   S    
C2    O22   A    
C50   C58   S    
O88   H52   S    
Cr8   O28   S    
C69   C85   S    
Cr9   O33   S    
C65   C81   S    
Cr10  O14   S    
O61   H43   S    
C47   O31   A    
C108  O44   A    
C95   C107  S    
C71   C87   S    
C104  O12   A    
C99   O47   A    
C97   O45   A    
S9    O78   D    
S2    O56   D    
Cr3   O19   S    
C32   C36   S    
Cr4   O20   S    
C28   H32   S    
C45   O33   A    
C79   F7    S    
C112  C119  S    
C116  H4    S    
C37   C89   S    
C29   H35   S    
Cr7   O7    S    
S1    O54   D    
C109  C110  S    
Cr12  O12   S    
S7    O72   D    
C43   C51   A    
C65   C69   A    
O55   H41   S    
C67   C71   A    
C101  O5    A    
C20   C36   S    
C46   O30   A    
C21   C37   A    
C29   S9    S    
C22   C26   A    
C30   S10   S    
O73   H47   S    
C82   F10   S    
Cr7   O31   S    
C5    C114  S    
C14   C18   A    
Cr12  O40   S    
C63   C79   A    
Cr7   O51   S    
C76   S4    S    
S10   O80   D    
C100  O52   A    
C107  O15   A    
C105  O13   A    
C8    C115  S    
C93   C105  S    
C88   S8    S    
C3    O27   A    
C23   C27   A    
O70   H46   S    
C74   C78   A    
C34   H38   S    
C16   C20   A    
C10   C26   A    
C47   C119  S    
Cr5   O25   S    
C87   H19   S    
C88   H20   S    
C14   C30   S    
C8    F16   S    
C36   F20   S    
C63   C67   A    
C105  O41   A    
C32   H34   S    
C57   H11   S    
S11   O85   S    
C5    F13   S    
Cr10  O10   S    
C25   H29   S    
C90   O38   A    
S6    O69   D    
S9    O77   D    
C23   H27   S    
C111  C120  S    
S5    O66   D    
C6    C113  S    
C110  H22   S    
C91   O3    A    
C17   C37   A    
C40   C92   S    
C109  C113  S    
C18   C34   S    
C59   H9    S    
C114  C118  S    
C19   C39   A    
C83   H15   S    
O76   H48   S    
Cr12  O36   S    
C81   H13   S    
Cr5   O5    S    
Cr10  O38   S    
C51   C59   S    
C70   C86   S    
C8    C120  S    
Cr4   O44   S    
Cr9   O9    S    
C64   C97   S    
Cr2   O46   S    
C2    O26   A    
C21   H25   S    
Cr5   O17   S    
O64   H44   S    
C24   H28   S    
Cr11  O19   S    
C47   O35   A    
C3    C10   S    
C44   C52   A    
C104  O8    A    
C23   C39   A    
C24   C40   A    
C97   O49   A    
S3    O61   S    
C31   C35   S    
C85   H17   S    
C41   C54   A    
C43   C56   A    
C77   F5    S    
C45   O29   A    
C111  C115  S    
C6    C118  S    
