data_mof_unit_13732.cif
_audit_creation_date              2012-12-10T19:37:57-0500
_audit_creation_method            fapswitch 2.2
_symmetry_space_group_name_H-M    P1
_symmetry_Int_Tables_number       1
_space_group_crystal_system       triclinic
_cell_length_a                    10.831591
_cell_length_b                    15.846709
_cell_length_c                    17.097211
_cell_angle_alpha                 94.629211
_cell_angle_beta                  92.071974
_cell_angle_gamma                 92.300083
_cell_volume                      2920.43481372

loop_
_atom_site_label
_atom_site_type_symbol
_atom_type_description
_atom_site_fract_x
_atom_site_fract_y
_atom_site_fract_z
_atom_type_partial_charge
C1    C     C_R   0.501277 0.490789 0.348753 0.916297
C2    C     C_3   0.879045 0.503121 0.504301 -0.077677
C3    C     C_3   0.945109 0.547221 0.584290 0.306085
C4    C     C_3   0.921139 0.550331 0.432199 -0.455715
C5    C     C_R   0.497201 0.488721 0.262816 -0.100087
C6    C     C_R   0.484994 0.564257 0.226391 -0.189371
C7    C     C_R   0.472300 0.563677 0.144769 0.087810
C8    C     C_R   0.477909 0.485408 0.098858 0.268326
C9    C     C_R   0.489741 0.409495 0.135353 0.401567
C10   C     C_R   0.499321 0.411603 0.217046 -0.255928
C11   C     C_R   0.458152 0.451610 0.859981 -0.177434
C12   C     C_R   0.259906 0.500050 0.493135 0.921917
C13   C     C_R   0.441738 0.447909 0.778563 0.383757
C14   C     C_R   0.527931 0.518461 0.901828 0.313661
C15   C     C_R   0.500995 0.511425 0.737242 -0.141402
C16   C     C_R   0.571561 0.577584 0.779465 -0.291336
C17   C     C_R   0.585037 0.580804 0.860926 -0.182515
C18   C     C_R   0.447090 0.748539 0.453663 0.032686
C19   C     C_R   0.441884 0.836821 0.453761 -0.286497
C20   C     C_R   0.507059 0.889463 0.512609 0.316414
C21   C     C_R   0.577214 0.850910 0.570746 0.028234
C22   C     C_R   0.579329 0.761144 0.567455 0.049729
C23   C     C_R   0.497454 0.509028 0.651213 0.870044
C24   C     C_R   0.532650 0.149817 0.533575 -0.298474
C25   C     C_R   0.550274 0.238216 0.539903 0.575308
C26   C     C_R   0.454593 0.106868 0.475496 0.321941
C27   C     C_R   0.407436 0.246554 0.433202 0.024608
C28   C     C_R   0.391514 0.156963 0.424538 -0.265008
C29   C     C_R   0.740457 0.500593 0.503565 0.790631
C30   C     C_3   0.060728 0.408747 0.477650 0.273267
C31   C     C_3   0.920668 0.411096 0.488654 -0.407072
C32   C     C_3   0.088256 0.537221 0.575789 -0.524740
C33   C     C_3   0.063585 0.562689 0.433970 0.309839
C34   C     C_3   0.121660 0.500875 0.491604 -0.175123
Cu1   Cu    Cu3+1 0.493900 0.415220 0.496180 1.079977
Cu2   Cu    Cu3+1 0.506100 0.584780 0.503820 0.959075
H1    H     H_    0.098358 0.371055 0.524341 0.126162
H2    H     H_    0.878637 0.612776 0.429771 0.178036
H3    H     H_    0.139321 0.599260 0.588708 0.198989
H4    H     H_    0.415915 0.401692 0.890983 0.227510
H5    H     H_    0.507501 0.353054 0.244999 0.208065
H6    H     H_    0.618691 0.626244 0.749197 0.166680
H7    H     H_    0.639913 0.632205 0.892367 0.158171
H8    H     H_    0.480517 0.623807 0.261869 0.173136
H9    H     H_    0.585654 0.113895 0.573181 0.184810
H10   H     H_    0.630185 0.729647 0.611151 0.131544
H11   H     H_    0.359158 0.282742 0.392282 0.216491
H12   H     H_    0.387026 0.863299 0.408338 0.179370
H13   H     H_    0.330864 0.127072 0.377748 0.175175
H14   H     H_    0.394907 0.708712 0.408743 0.176851
H15   H     H_    0.867961 0.379768 0.436724 0.238532
H16   H     H_    0.893599 0.373146 0.536630 0.244601
H17   H     H_    0.127904 0.497735 0.619553 0.225824
H18   H     H_    0.087644 0.628107 0.459852 0.113750
H19   H     H_    0.887154 0.512733 0.377339 0.232296
N1    N     N_2   0.463566 0.480335 0.016372 -0.188417
N2    N     N_2   0.542291 0.524438 0.984873 -0.219642
N3    N     N_R   0.515260 0.712130 0.509560 -0.198708
N4    N     N_2   0.507306 0.980471 0.516228 -0.245916
N5    N     N_2   0.443544 0.015179 0.466027 -0.199663
N6    N     N_R   0.484730 0.287850 0.490450 -0.238809
O1    O     O_R   0.494300 0.420530 0.382500 -0.592785
O2    O     O_R   0.504600 0.563720 0.388950 -0.587198
O3    O     O_R   0.312540 0.428400 0.496760 -0.549987
O4    O     O_R   0.322840 0.571590 0.503210 -0.590745
O5    O     O_R   0.495400 0.436280 0.611050 -0.474849
O6    O     O_R   0.505700 0.579470 0.617500 -0.620393
O7    O     O_R   0.677160 0.428410 0.496790 -0.540043
O8    O     O_R   0.687460 0.571600 0.503240 -0.617051
C35   C     C_3   0.918855 0.645122 0.593988 -0.395640
C36   C     C_3   0.978408 0.695979 0.667633 -0.871987
H20   H     H_    0.911131 0.701244 0.715146 0.240150
H21   H     H_    0.061984 0.667070 0.691152 0.266440
H22   H     H_    0.004697 0.761387 0.653634 0.256904
H23   H     H_    0.950147 0.677733 0.543057 0.204542
H24   H     H_    0.818265 0.653814 0.596467 0.210753
S1    S     S_3+6 0.344901 0.362850 0.734253 0.019173
O9    O     O_2   0.423017 0.288868 0.713391 -0.220971
O10   O     O_2   0.251001 0.336853 0.791369 -0.269601
O11   O     O_3   0.269514 0.389108 0.653091 -0.592828
H25   H     H_    0.233062 0.334765 0.628145 0.374240
S2    S     S_3+6 0.491841 0.311222 0.078617 0.055765
O12   O     O_2   0.520393 0.240931 0.129570 -0.262365
O13   O     O_2   0.367283 0.292922 0.037785 -0.246090
O14   O     O_3   0.599933 0.317445 0.010881 -0.495605
H26   H     H_    0.584068 0.266203 0.974192 0.390182
C37   C     C_3   0.446486 0.646307 0.109397 -0.372747
C38   C     C_3   0.314157 0.646165 0.075317 -0.740186
H27   H     H_    0.299000 0.597663 0.025011 0.267670
H28   H     H_    0.247346 0.633274 0.121149 0.261013
H29   H     H_    0.296394 0.709157 0.054167 0.236703
H30   H     H_    0.458726 0.700594 0.154833 0.197251
H31   H     H_    0.513371 0.659422 0.063872 0.221728
S3    S     S_3+6 0.093147 0.348577 0.386105 0.039400
O15   O     O_2   0.987495 0.348889 0.326614 -0.233653
O16   O     O_2   0.208154 0.382052 0.350707 -0.254899
O17   O     O_3   0.112796 0.247820 0.406374 -0.547003
H32   H     H_    0.124351 0.216509 0.354817 0.373105
S4    S     S_3+6 0.674333 0.271536 0.607705 0.027291
O18   O     O_2   0.689260 0.364216 0.629041 -0.286520
O19   O     O_2   0.657501 0.228938 0.682325 -0.262327
O20   O     O_3   0.805411 0.237511 0.568414 -0.559803
H33   H     H_    0.807892 0.176853 0.578270 0.356451
C39   C     C_3   0.646907 0.907796 0.635080 -0.370798
C40   C     C_3   0.720711 0.862334 0.695630 -0.851844
H34   H     H_    0.658503 0.820791 0.727543 0.249372
H35   H     H_    0.792472 0.824546 0.666391 0.253484
H36   H     H_    0.767723 0.909934 0.739145 0.270788
H37   H     H_    0.712244 0.951036 0.607182 0.222915
H38   H     H_    0.579443 0.947443 0.666940 0.235275
C41   C     C_3   0.895081 0.508581 0.660415 -0.378577
C42   C     C_3   0.957698 0.432092 0.692319 -0.648296
H39   H     H_    0.987625 0.385126 0.646680 0.251247
H40   H     H_    0.040363 0.454132 0.729959 0.249441
H41   H     H_    0.892969 0.399458 0.730062 0.282852
H42   H     H_    0.900357 0.556375 0.711426 0.214282
H43   H     H_    0.794622 0.495469 0.652379 0.210246
S5    S     S_3+6 0.118700 0.567112 0.335962 0.019605
O21   O     O_2   0.255636 0.558121 0.335325 -0.320448
O22   O     O_2   0.055766 0.500786 0.278790 -0.187098
O23   O     O_3   0.086902 0.662861 0.306500 -0.552425
H44   H     H_    0.126857 0.665428 0.255484 0.368856

loop_
_geom_bond_atom_site_label_1
_geom_bond_atom_site_label_2
_ccdc_geom_bond_type
C37   C38   S    
C41   C42   S    
C31   H16   S    
C1    O1    A    
C8    N1    S    
C42   H40   S    
O17   H32   S    
Cu2   O6    S    
C7    C8    A    
S1    O9    D    
C40   H35   S    
C2    C29   S    
C1    C5    S    
C24   H9    S    
C23   O5    A    
C24   C26   A    
Cu2   N3    S    
C5    C6    A    
C12   O3    A    
C11   C14   A    
C15   C16   A    
N1    N2    D    
C18   C19   A    
C32   H3    S    
C23   O6    A    
S5    O21   D    
C39   C40   S    
C27   N6    A    
C21   C39   S    
C25   S4    S    
C7    C37   S    
C19   C20   A    
C3    C41   S    
C8    C9    A    
Cu1   O3    S    
Cu2   O2    S    
C9    C10   A    
C9    S2    S    
C15   C23   S    
N4    N5    D    
C6    H8    S    
C21   C22   A    
C10   H5    S    
C14   C17   A    
O20   H33   S    
C1    O2    A    
C42   H39   S    
C18   N3    A    
C29   O8    A    
S1    O10   D    
C40   H36   S    
C13   S1    S    
C30   C34   S    
C11   H4    S    
C3    C35   S    
C24   C25   A    
C31   H15   S    
C36   H21   S    
C19   H12   S    
C16   C17   A    
S3    O17   S    
O14   H26   S    
C30   H1    S    
C2    C31   S    
Cu1   Cu2   S    
C32   C34   S    
C2    C4    S    
C17   H7    S    
C29   O7    A    
C28   H13   S    
S4    O18   D    
C38   H29   S    
C33   C34   S    
C3    C32   S    
Cu1   N6    S    
C25   N6    A    
C38   H27   S    
C20   N4    S    
S3    O16   D    
O23   H44   S    
C41   H42   S    
S4    O19   D    
C4    H2    S    
S2    O13   D    
C13   C15   A    
C4    H19   S    
C35   H24   S    
C12   C34   S    
C16   H6    S    
C32   H17   S    
C35   H23   S    
C35   C36   S    
Cu2   O8    S    
C18   H14   S    
C40   H34   S    
S1    O11   S    
C27   H11   S    
C33   H18   S    
C14   N2    S    
C4    C33   S    
C22   H10   S    
Cu2   O4    S    
C38   H28   S    
O11   H25   S    
C22   N3    A    
C36   H22   S    
C6    C7    A    
S2    O14   S    
C12   O4    A    
C26   C28   A    
Cu1   O5    S    
C41   H43   S    
C2    C3    S    
C5    C10   A    
C30   S3    S    
C39   H38   S    
C11   C13   A    
C30   C31   S    
Cu1   O7    S    
C37   H31   S    
Cu1   O1    S    
S3    O15   D    
S5    O22   D    
C33   S5    S    
S4    O20   S    
C36   H20   S    
C20   C21   A    
S2    O12   D    
C27   C28   A    
C39   H37   S    
C37   H30   S    
C26   N5    S    
S5    O23   S    
C42   H41   S    
