data_mof_unit_60847.cif
_audit_creation_date              2012-12-10T17:23:02-0500
_audit_creation_method            fapswitch 2.2
_symmetry_space_group_name_H-M    P1
_symmetry_Int_Tables_number       1
_space_group_crystal_system       triclinic
_cell_length_a                    21.716428
_cell_length_b                    21.716459
_cell_length_c                    39.001856
_cell_angle_alpha                 89.999864
_cell_angle_beta                  89.999918
_cell_angle_gamma                 89.99999
_cell_volume                      18393.4281101

loop_
_atom_site_label
_atom_site_type_symbol
_atom_type_description
_atom_site_fract_x
_atom_site_fract_y
_atom_site_fract_z
_atom_type_partial_charge
C1    C     C_R   0.618466 1.000000 0.500000 0.821070
C2    C     C_R   0.000000 0.618466 0.500000 0.820978
C3    C     C_R   0.381534 0.000000 0.500000 0.821069
C4    C     C_R   0.000000 0.381534 0.500000 0.820978
C5    C     C_R   0.118466 0.500000 0.000000 0.821070
C6    C     C_R   0.500000 0.118466 0.000000 0.820978
C7    C     C_R   0.881534 0.500000 1.000000 0.821069
C8    C     C_R   0.500000 0.881534 1.000000 0.820979
C9    C     C_R   0.781154 0.009100 0.469285 -0.168968
C10   C     C_R   0.990783 0.781157 0.469297 -0.168816
C11   C     C_R   0.218846 0.990907 0.469285 -0.168967
C12   C     C_R   0.009219 0.218843 0.469297 -0.168816
C13   C     C_R   0.781154 0.990900 0.530715 -0.168968
C14   C     C_R   0.990780 0.218843 0.530703 -0.168815
C15   C     C_R   0.218846 0.009093 0.530715 -0.168968
C16   C     C_R   0.009217 0.781157 0.530703 -0.168816
C17   C     C_R   0.281154 0.509076 0.969283 -0.168967
C18   C     C_R   0.490800 0.281157 0.969295 -0.168815
C19   C     C_R   0.718846 0.490903 0.969285 -0.168967
C20   C     C_R   0.509190 0.718844 0.969294 -0.168813
C21   C     C_R   0.281154 0.490924 0.030717 -0.168966
C22   C     C_R   0.490810 0.718843 0.030706 -0.168815
C23   C     C_R   0.718846 0.509097 0.030715 -0.168968
C24   C     C_R   0.509200 0.281156 0.030705 -0.168814
C25   C     C_R   0.813340 1.000000 0.500000 -0.118986
C26   C     C_R   1.000000 0.813342 0.500000 -0.118918
C27   C     C_R   0.186660 0.000000 0.500000 -0.118987
C28   C     C_R   1.000000 0.186658 0.500000 -0.118917
C29   C     C_R   0.313340 0.500000 0.000000 -0.118989
C30   C     C_R   0.500000 0.313342 0.000000 -0.118920
C31   C     C_R   0.686659 0.500000 1.000000 -0.118986
C32   C     C_R   0.500000 0.686658 1.000000 -0.118921
C33   C     C_R   0.685049 1.000000 0.500000 -0.018403
C34   C     C_R   1.000000 0.685051 0.500000 -0.018385
C35   C     C_R   0.314951 0.000000 0.500000 -0.018399
C36   C     C_R   0.000000 0.314949 0.500000 -0.018387
C37   C     C_R   0.185049 0.500000 0.000000 -0.018398
C38   C     C_R   0.500000 0.185050 0.000000 -0.018384
C39   C     C_R   0.814951 0.500000 1.000000 -0.018401
C40   C     C_R   0.500000 0.814950 1.000000 -0.018381
C41   C     C_R   1.000000 0.119414 0.500000 0.819801
C42   C     C_R   0.880585 1.000000 0.500000 0.819842
C43   C     C_R   1.000000 0.880585 0.500000 0.819801
C44   C     C_R   0.119415 0.000000 0.500000 0.819843
C45   C     C_R   0.500000 0.619415 1.000000 0.819805
C46   C     C_R   0.380585 0.500000 0.000000 0.819846
C47   C     C_R   0.500000 0.380585 0.000000 0.819805
C48   C     C_R   0.619415 0.500000 1.000000 0.819844
C49   C     C_R   0.500000 1.000000 0.566171 0.774849
C50   C     C_R   1.000000 0.500000 0.566171 0.774832
C51   C     C_R   0.500000 0.000000 0.433829 0.774849
C52   C     C_R   0.000000 0.500000 0.433829 0.774831
C53   C     C_R   0.000000 0.500000 0.066171 0.774848
C54   C     C_R   0.500000 0.000000 0.066171 0.774829
C55   C     C_R   1.000000 0.500000 0.933829 0.774847
C56   C     C_R   0.500000 0.000000 0.933828 0.774830
C57   C     C_R   0.547052 0.970123 0.878073 -0.181352
C58   C     C_R   0.029903 0.547153 0.878067 -0.182772
C59   C     C_R   0.452948 0.029877 0.878073 -0.181355
C60   C     C_R   0.970096 0.452847 0.878067 -0.182777
C61   C     C_R   0.547051 0.029878 0.121926 -0.181355
C62   C     C_R   0.029894 0.452841 0.121933 -0.182772
C63   C     C_R   0.452949 0.970122 0.121927 -0.181352
C64   C     C_R   0.970105 0.547159 0.121933 -0.182776
C65   C     C_R   0.047053 0.470124 0.378073 -0.181356
C66   C     C_R   0.529895 0.047158 0.378067 -0.182776
C67   C     C_R   0.952948 0.529876 0.378073 -0.181356
C68   C     C_R   0.470104 0.952842 0.378067 -0.182774
C69   C     C_R   0.047055 0.529872 0.621927 -0.181354
C70   C     C_R   0.529894 0.952841 0.621933 -0.182776
C71   C     C_R   0.952945 0.470128 0.621927 -0.181355
C72   C     C_R   0.470106 0.047158 0.621933 -0.182774
C73   C     C_R   0.546690 0.969479 0.842293 -0.163892
C74   C     C_R   0.030543 0.546728 0.842280 -0.165084
C75   C     C_R   0.453310 0.030521 0.842293 -0.163894
C76   C     C_R   0.969456 0.453272 0.842280 -0.165085
C77   C     C_R   0.546689 0.030522 0.157707 -0.163893
C78   C     C_R   0.030534 0.453266 0.157720 -0.165087
C79   C     C_R   0.453310 0.969478 0.157707 -0.163894
C80   C     C_R   0.969465 0.546734 0.157720 -0.165087
C81   C     C_R   0.046691 0.469480 0.342293 -0.163893
C82   C     C_R   0.530535 0.046734 0.342280 -0.165087
C83   C     C_R   0.953309 0.530520 0.342293 -0.163893
C84   C     C_R   0.469464 0.953267 0.342280 -0.165087
C85   C     C_R   0.046693 0.530516 0.657707 -0.163895
C86   C     C_R   0.530534 0.953265 0.657720 -0.165087
C87   C     C_R   0.953306 0.469484 0.657707 -0.163894
C88   C     C_R   0.469465 0.046734 0.657720 -0.165087
C89   C     C_R   0.500000 1.000000 0.823899 0.104288
C90   C     C_R   1.000000 0.500000 0.824201 0.098265
C91   C     C_R   0.500000 0.000000 0.176101 0.104288
C92   C     C_R   0.000000 0.500000 0.175799 0.098266
C93   C     C_R   0.000000 0.500000 0.323899 0.104288
C94   C     C_R   0.500000 0.000000 0.324201 0.098267
C95   C     C_R   1.000000 0.500000 0.676101 0.104290
C96   C     C_R   0.500000 1.000000 0.675799 0.098266
C97   C     C_R   0.500000 1.000000 0.896181 -0.022894
C98   C     C_R   1.000000 0.500000 0.896184 -0.022122
C99   C     C_R   0.500000 0.000000 0.103819 -0.022893
C100  C     C_R   1.000000 0.500000 0.103817 -0.022128
C101  C     C_R   0.000000 0.500000 0.396181 -0.022899
C102  C     C_R   0.500000 0.000000 0.396183 -0.022130
C103  C     C_R   1.000000 0.500000 0.603819 -0.022901
C104  C     C_R   0.500000 1.000000 0.603816 -0.022131
C105  C     C_R   0.444206 0.999565 0.767372 -0.174817
C106  C     C_R   0.944260 0.499754 0.768410 -0.174741
C107  C     C_R   0.555794 0.000434 0.767372 -0.174815
C108  C     C_R   0.055740 0.500246 0.768410 -0.174741
C109  C     C_R   0.444206 0.000434 0.232628 -0.174815
C110  C     C_R   0.944260 0.500253 0.231590 -0.174741
C111  C     C_R   0.555794 0.999567 0.232628 -0.174816
C112  C     C_R   0.055740 0.499747 0.231590 -0.174741
C113  C     C_R   0.944206 0.499564 0.267372 -0.174816
C114  C     C_R   0.444260 0.999745 0.268410 -0.174742
C115  C     C_R   0.055794 0.500436 0.267372 -0.174816
C116  C     C_R   0.555740 0.000256 0.268410 -0.174742
C117  C     C_R   0.944205 0.500443 0.732628 -0.174817
C118  C     C_R   0.444260 0.000255 0.731590 -0.174741
C119  C     C_R   0.055794 0.499557 0.732628 -0.174817
C120  C     C_R   0.555740 0.999744 0.731590 -0.174743
C121  C     C_R   0.500000 0.999999 0.713519 0.092765
C122  C     C_R   1.000000 0.500000 0.714233 0.099199
C123  C     C_R   0.500000 0.000001 0.286481 0.092765
C124  C     C_R   0.000000 0.500000 0.285767 0.099199
C125  C     C_R   0.000000 0.500000 0.213519 0.092764
C126  C     C_R   0.500000 0.000000 0.214233 0.099198
C127  C     C_R   1.000000 0.500000 0.786481 0.092767
C128  C     C_R   0.500000 1.000000 0.785767 0.099199
C129  C     C_R   0.716970 0.009368 0.468982 0.136025
C130  C     C_R   0.990510 0.716973 0.468993 0.135393
C131  C     C_R   0.283030 0.990638 0.468981 0.136023
C132  C     C_R   0.009492 0.283028 0.468993 0.135393
C133  C     C_R   0.716970 0.990632 0.531018 0.136025
C134  C     C_R   0.990508 0.283027 0.531007 0.135392
C135  C     C_R   0.283030 0.009361 0.531019 0.136023
C136  C     C_R   0.009489 0.716972 0.531007 0.135392
C137  C     C_R   0.216969 0.509344 0.968979 0.136023
C138  C     C_R   0.490528 0.216972 0.968991 0.135390
C139  C     C_R   0.783030 0.490634 0.968981 0.136027
C140  C     C_R   0.509461 0.783028 0.968990 0.135386
C141  C     C_R   0.216969 0.490656 0.031021 0.136019
C142  C     C_R   0.490539 0.783028 0.031009 0.135387
C143  C     C_R   0.783030 0.509366 0.031019 0.136024
C144  C     C_R   0.509471 0.216972 0.031009 0.135389
Cu1   Cu    Cu3+1 0.500000 0.061870 0.500000 0.946312
Cu2   Cu    Cu3+1 0.938130 0.500000 0.500000 0.946030
Cu3   Cu    Cu3+1 0.500000 0.938130 0.500000 0.946312
Cu4   Cu    Cu3+1 0.061870 0.500000 0.500000 0.946030
Cu5   Cu    Cu3+1 0.000000 0.561870 0.000000 0.946315
Cu6   Cu    Cu3+1 0.438130 0.000000 0.000000 0.946034
Cu7   Cu    Cu3+1 0.000000 0.438130 0.000000 0.946315
Cu8   Cu    Cu3+1 0.561870 0.000000 0.000000 0.946034
Cu9   Cu    Cu3+1 0.000000 0.000000 0.465870 0.938759
Cu10  Cu    Cu3+1 0.000000 0.000000 0.534130 0.938759
Cu11  Cu    Cu3+1 0.500000 0.500000 0.965870 0.938757
Cu12  Cu    Cu3+1 0.500000 0.500000 0.034130 0.938757
H1    H     H_    0.583448 0.946198 0.891614 0.144393
H2    H     H_    0.053522 0.583759 0.891594 0.145079
H3    H     H_    0.416552 0.053801 0.891614 0.144395
H4    H     H_    0.946478 0.416241 0.891595 0.145084
H5    H     H_    0.583447 0.053804 0.108386 0.144394
H6    H     H_    0.053506 0.416230 0.108406 0.145084
H7    H     H_    0.416553 0.946197 0.108386 0.144392
H8    H     H_    0.946494 0.583769 0.108406 0.145088
H9    H     H_    0.083450 0.446200 0.391614 0.144399
H10   H     H_    0.553508 0.083768 0.391594 0.145088
H11   H     H_    0.916551 0.553800 0.391614 0.144399
H12   H     H_    0.446492 0.916232 0.391595 0.145087
H13   H     H_    0.083454 0.553793 0.608386 0.144400
H14   H     H_    0.553506 0.916230 0.608406 0.145089
H15   H     H_    0.916546 0.446207 0.608386 0.144401
H16   H     H_    0.446494 0.083769 0.608406 0.145087
H17   H     H_    0.582610 0.944313 0.829123 0.124820
H18   H     H_    0.054179 0.583216 0.828661 0.131635
H19   H     H_    0.417390 0.055687 0.829122 0.124820
H20   H     H_    0.945821 0.416784 0.828662 0.131636
H21   H     H_    0.582608 0.055689 0.170877 0.124821
H22   H     H_    0.054163 0.416773 0.171339 0.131636
H23   H     H_    0.417391 0.944311 0.170877 0.124820
H24   H     H_    0.945837 0.583226 0.171339 0.131636
H25   H     H_    0.082611 0.444315 0.329122 0.124820
H26   H     H_    0.554164 0.083226 0.328661 0.131636
H27   H     H_    0.917389 0.555685 0.329122 0.124820
H28   H     H_    0.445835 0.916775 0.328661 0.131636
H29   H     H_    0.082616 0.555678 0.670878 0.124821
H30   H     H_    0.554163 0.916773 0.671339 0.131636
H31   H     H_    0.917383 0.444322 0.670878 0.124820
H32   H     H_    0.445837 0.083226 0.671339 0.131636
H33   H     H_    0.400381 0.997850 0.780541 0.126568
H34   H     H_    0.900795 0.500120 0.782042 0.132338
H35   H     H_    0.599619 0.002149 0.780541 0.126568
H36   H     H_    0.099204 0.499880 0.782042 0.132338
H37   H     H_    0.400381 0.002149 0.219458 0.126568
H38   H     H_    0.900796 0.499892 0.217958 0.132339
H39   H     H_    0.599619 0.997852 0.219458 0.126568
H40   H     H_    0.099204 0.500108 0.217958 0.132339
H41   H     H_    0.900381 0.497847 0.280542 0.126568
H42   H     H_    0.400796 0.000104 0.282042 0.132339
H43   H     H_    0.099619 0.502153 0.280541 0.126568
H44   H     H_    0.599203 0.999897 0.282042 0.132339
H45   H     H_    0.900380 0.502165 0.719459 0.126568
H46   H     H_    0.400796 0.999895 0.717958 0.132339
H47   H     H_    0.099619 0.497835 0.719458 0.126568
H48   H     H_    0.599204 0.000103 0.717958 0.132339
H49   H     H_    0.806023 0.016307 0.445536 0.161286
H50   H     H_    0.983482 0.806027 0.445557 0.161396
H51   H     H_    0.193977 0.983704 0.445535 0.161287
H52   H     H_    0.016521 0.193973 0.445557 0.161395
H53   H     H_    0.806023 0.983693 0.554464 0.161286
H54   H     H_    0.983479 0.193973 0.554443 0.161395
H55   H     H_    0.193977 0.016296 0.554465 0.161288
H56   H     H_    0.016518 0.806027 0.554443 0.161395
H57   H     H_    0.306022 0.516265 0.945532 0.161289
H58   H     H_    0.483513 0.306027 0.945553 0.161397
H59   H     H_    0.693977 0.483697 0.945535 0.161286
H60   H     H_    0.516469 0.693974 0.945551 0.161399
H61   H     H_    0.306022 0.483735 0.054469 0.161289
H62   H     H_    0.483531 0.693974 0.054449 0.161399
H63   H     H_    0.693977 0.516303 0.054464 0.161286
H64   H     H_    0.516486 0.306026 0.054447 0.161398
O1    O     O_R   0.590130 0.052260 0.500070 -0.584199
O2    O     O_R   0.947740 0.590130 0.500070 -0.584213
O3    O     O_R   0.409870 0.947740 0.500070 -0.584198
O4    O     O_R   0.052260 0.409870 0.500070 -0.584213
O5    O     O_R   0.590130 0.947740 0.499930 -0.584199
O6    O     O_R   0.947740 0.409870 0.499930 -0.584213
O7    O     O_R   0.409870 0.052260 0.499930 -0.584199
O8    O     O_R   0.052260 0.590130 0.499930 -0.584213
O9    O     O_R   0.090130 0.552260 0.000070 -0.584199
O10   O     O_R   0.447740 0.090130 0.000070 -0.584213
O11   O     O_R   0.909870 0.447740 0.000070 -0.584199
O12   O     O_R   0.552260 0.909870 0.000070 -0.584213
O13   O     O_R   0.090130 0.447740 0.999930 -0.584198
O14   O     O_R   0.447740 0.909870 0.999930 -0.584213
O15   O     O_R   0.909870 0.552260 0.999930 -0.584199
O16   O     O_R   0.552260 0.090130 0.999930 -0.584213
O17   O     O_R   0.499930 0.052260 0.549980 -0.586316
O18   O     O_R   0.947740 0.499930 0.549980 -0.586358
O19   O     O_R   0.500070 0.947740 0.549980 -0.586316
O20   O     O_R   0.052260 0.500070 0.549980 -0.586357
O21   O     O_R   0.499930 0.947740 0.450020 -0.586316
O22   O     O_R   0.947740 0.500070 0.450020 -0.586356
O23   O     O_R   0.500070 0.052260 0.450020 -0.586316
O24   O     O_R   0.052260 0.499930 0.450020 -0.586357
O25   O     O_R   0.999930 0.552260 0.049980 -0.586318
O26   O     O_R   0.447740 0.999930 0.049980 -0.586357
O27   O     O_R   0.000070 0.447740 0.049980 -0.586316
O28   O     O_R   0.552260 0.000070 0.049980 -0.586357
O29   O     O_R   0.999930 0.447740 0.950020 -0.586315
O30   O     O_R   0.447740 0.000070 0.950020 -0.586358
O31   O     O_R   0.000070 0.552260 0.950020 -0.586313
O32   O     O_R   0.552260 0.999930 0.950020 -0.586357
O33   O     O_R   0.999990 0.090340 0.471200 -0.592402
O34   O     O_R   0.909660 0.999990 0.471200 -0.592446
O35   O     O_R   0.000010 0.909660 0.471200 -0.592401
O36   O     O_R   0.090340 0.000010 0.471200 -0.592448
O37   O     O_R   0.999990 0.909660 0.528800 -0.592402
O38   O     O_R   0.909660 0.000010 0.528800 -0.592447
O39   O     O_R   0.000010 0.090340 0.528800 -0.592401
O40   O     O_R   0.090340 0.999990 0.528800 -0.592447
O41   O     O_R   0.499990 0.590340 0.971200 -0.592403
O42   O     O_R   0.409660 0.499990 0.971200 -0.592449
O43   O     O_R   0.500010 0.409660 0.971200 -0.592405
O44   O     O_R   0.590340 0.500010 0.971200 -0.592446
O45   O     O_R   0.499990 0.409660 0.028800 -0.592402
O46   O     O_R   0.409660 0.500010 0.028800 -0.592448
O47   O     O_R   0.500010 0.590340 0.028800 -0.592405
O48   O     O_R   0.590340 0.499990 0.028800 -0.592447
C145  C     C_3   0.683182 0.019124 0.435600 -0.878587
H65   H     H_    0.715407 0.024932 0.413722 0.230356
H66   H     H_    0.653287 0.978811 0.430138 0.231046
H67   H     H_    0.654194 0.061125 0.437304 0.235504
C146  C     C_3   0.980627 0.683187 0.435623 -0.876878
H68   H     H_    0.974747 0.715413 0.413752 0.231016
H69   H     H_    0.020914 0.653283 0.430116 0.231018
H70   H     H_    0.938626 0.654209 0.437374 0.235326
C147  C     C_3   0.316819 0.980889 0.435599 -0.878589
H71   H     H_    0.284593 0.975086 0.413721 0.230357
H72   H     H_    0.346713 0.021204 0.430140 0.231049
H73   H     H_    0.345807 0.938889 0.437300 0.235500
C148  C     C_3   0.019378 0.316814 0.435623 -0.876879
H74   H     H_    0.025259 0.284587 0.413752 0.231017
H75   H     H_    0.979090 0.346717 0.430116 0.231017
H76   H     H_    0.061378 0.345792 0.437375 0.235327
C149  C     C_3   0.683181 0.980876 0.564400 -0.878587
H77   H     H_    0.715407 0.975068 0.586278 0.230356
H78   H     H_    0.653287 0.021189 0.569862 0.231045
H79   H     H_    0.654194 0.938875 0.562696 0.235505
C150  C     C_3   0.980622 0.316813 0.564376 -0.876876
H80   H     H_    0.974741 0.284587 0.586247 0.231016
H81   H     H_    0.020910 0.346716 0.569884 0.231017
H82   H     H_    0.938622 0.345791 0.562625 0.235328
C151  C     C_3   0.316818 0.019111 0.564401 -0.878588
H83   H     H_    0.284593 0.024914 0.586279 0.230357
H84   H     H_    0.346713 0.978796 0.569860 0.231049
H85   H     H_    0.345806 0.061111 0.562700 0.235500
C152  C     C_3   0.019373 0.683186 0.564377 -0.876876
H86   H     H_    0.025253 0.715412 0.586248 0.231016
H87   H     H_    0.979086 0.653283 0.569884 0.231018
H88   H     H_    0.061373 0.654208 0.562626 0.235327
C153  C     C_3   0.183181 0.519075 0.935595 -0.878587
H89   H     H_    0.215406 0.524868 0.913716 0.230357
H90   H     H_    0.153287 0.478756 0.930143 0.231059
H91   H     H_    0.154192 0.561076 0.937290 0.235485
C154  C     C_3   0.480663 0.183186 0.935620 -0.876875
H92   H     H_    0.474794 0.215412 0.913747 0.231017
H93   H     H_    0.520954 0.153283 0.930119 0.231028
H94   H     H_    0.438662 0.154207 0.937364 0.235312
C155  C     C_3   0.816818 0.480880 0.935600 -0.878593
H95   H     H_    0.784593 0.475074 0.913722 0.230357
H96   H     H_    0.846713 0.521194 0.930139 0.231047
H97   H     H_    0.845806 0.438880 0.937303 0.235502
C156  C     C_3   0.519316 0.816815 0.935617 -0.876874
H98   H     H_    0.525179 0.784589 0.913745 0.231018
H99   H     H_    0.479023 0.846717 0.930121 0.231034
H100  H     H_    0.561317 0.845794 0.937358 0.235305
C157  C     C_3   0.183181 0.480925 0.064405 -0.878582
H101  H     H_    0.215406 0.475132 0.086284 0.230357
H102  H     H_    0.153287 0.521243 0.069857 0.231059
H103  H     H_    0.154192 0.438924 0.062710 0.235486
C158  C     C_3   0.480684 0.816814 0.064382 -0.876874
H104  H     H_    0.474821 0.784588 0.086255 0.231018
H105  H     H_    0.520977 0.846716 0.069879 0.231033
H106  H     H_    0.438683 0.845794 0.062642 0.235304
C159  C     C_3   0.816818 0.519120 0.064400 -0.878587
H107  H     H_    0.784593 0.524925 0.086278 0.230356
H108  H     H_    0.846713 0.478805 0.069861 0.231047
H109  H     H_    0.845806 0.561120 0.062697 0.235504
C160  C     C_3   0.519337 0.183185 0.064380 -0.876875
H110  H     H_    0.525206 0.215412 0.086253 0.231018
H111  H     H_    0.479046 0.153283 0.069881 0.231028
H112  H     H_    0.561338 0.154207 0.062636 0.235312

loop_
_geom_bond_atom_site_label_1
_geom_bond_atom_site_label_2
_ccdc_geom_bond_type
C4    C36   S    
C82   C94   A    
C5    C37   S    
C152  H87   S    
C32   C45   S    
C64   H8    S    
C2    O8    A    
C18   H58   S    
C153  H89   S    
C148  H76   S    
C63   H7    S    
C72   H16   S    
C60   C98   A    
C17   H57   S    
Cu1   O1    S    
C42   O34   A    
C1    O5    A    
C83   C93   A    
C146  H70   S    
Cu1   O23   S    
C1    O1    A    
C16   H56   S    
Cu9   O33   S    
C138  C154  S    
C55   O29   A    
Cu11  O43   S    
C2    C34   S    
C69   C103  A    
C132  C148  S    
C71   C87   A    
C50   C103  S    
C23   C143  A    
C23   H63   S    
C52   C101  S    
C105  H33   S    
C49   O17   A    
C14   H54   S    
C44   O36   A    
Cu6   O14   S    
C21   C29   A    
C106  C127  A    
C60   C76   A    
C23   C31   A    
C80   C92   A    
C157  H103  S    
C53   O27   A    
Cu6   Cu8   S    
C66   C82   A    
C15   C27   A    
C11   C27   A    
C57   C97   A    
C38   C138  A    
C83   H27   S    
C130  C146  S    
C112  C125  A    
C24   H64   S    
C95   C122  S    
C31   C48   S    
C145  H66   S    
C79   H23   S    
C105  C118  A    
C107  C120  A    
Cu10  O40   S    
C153  H91   S    
C67   H11   S    
C6    O16   A    
C77   C91   A    
C12   C132  A    
Cu4   O20   S    
C13   C133  A    
Cu8   O16   S    
Cu6   O10   S    
C74   C90   A    
C149  H78   S    
C113  C124  A    
C140  C156  S    
C40   C140  A    
C55   C98   S    
C50   O20   A    
C19   H59   S    
C73   C89   A    
Cu11  O41   S    
C45   O47   A    
Cu12  O46   S    
C19   C139  A    
C158  H104  S    
Cu11  Cu12  S    
C7    C39   S    
C17   C137  A    
C8    C40   S    
C67   C83   A    
C116  C123  A    
C58   C98   A    
C134  C150  S    
C65   C101  A    
C49   O19   A    
C92   C125  S    
C49   C104  S    
C51   C102  S    
Cu1   O7    S    
C22   C32   A    
C96   C121  S    
C74   H18   S    
Cu5   Cu7   S    
C156  H99   S    
Cu3   O21   S    
C41   O33   A    
C157  H102  S    
C57   C73   A    
C159  H108  S    
C63   C99   A    
C27   C44   S    
Cu7   O11   S    
Cu2   O18   S    
C61   C77   A    
C154  H93   S    
C87   C95   A    
C6    C38   S    
C109  H37   S    
C79   C91   A    
Cu10  O38   S    
C47   O45   A    
Cu9   O35   S    
C21   H61   S    
C147  H71   S    
C160  H111  S    
Cu2   O22   S    
C118  H46   S    
C11   H51   S    
C56   C97   S    
Cu6   O30   S    
C155  H96   S    
C85   H29   S    
C131  C147  S    
C13   H53   S    
C84   H28   S    
C35   C135  A    
C87   H31   S    
C78   C92   A    
C115  H43   S    
C77   H21   S    
C56   O30   A    
C117  C122  A    
C151  H83   S    
C44   O40   A    
C45   O41   A    
Cu12  O48   S    
C3    C35   S    
C158  H106  S    
C22   C142  A    
C150  H80   S    
C69   H13   S    
C109  C114  A    
C114  C123  A    
C68   H12   S    
C54   O28   A    
C6    O10   A    
C120  H48   S    
C71   H15   S    
C54   C99   S    
C106  H34   S    
C16   C136  A    
Cu8   O32   S    
C69   C85   A    
C120  C121  A    
C67   C101  A    
C20   C32   A    
Cu6   O26   S    
C71   C103  A    
C3    O3    A    
C62   C78   A    
C51   O23   A    
C36   C134  A    
Cu3   O19   S    
C148  H75   S    
C82   H26   S    
Cu5   O9    S    
C10   H50   S    
C35   C131  A    
C42   O38   A    
C85   C95   A    
C59   C97   A    
C146  H69   S    
C55   O31   A    
C75   C89   A    
C109  C126  A    
C114  H42   S    
C147  H73   S    
C107  H35   S    
Cu4   O24   S    
C108  H36   S    
C111  H39   S    
Cu8   O12   S    
C8    O14   A    
C88   C96   A    
C17   C29   A    
C19   C31   A    
Cu3   O5    S    
C9    C25   A    
C7    O11   A    
C136  C152  S    
C58   C74   A    
Cu5   O15   S    
C37   C141  A    
C12   C28   A    
C20   H60   S    
C142  C158  S    
C68   C102  A    
C151  H85   S    
Cu7   O27   S    
Cu2   O2    S    
C70   C104  A    
C155  H97   S    
Cu7   O13   S    
C65   H9    S    
C28   C41   S    
C2    O2    A    
C150  H82   S    
C152  H86   S    
C41   O39   A    
C112  H40   S    
C59   H3    S    
Cu4   O8    S    
C90   C127  S    
C137  C153  S    
C111  C116  A    
C4    O6    A    
C94   C123  S    
C145  H65   S    
C64   C80   A    
C108  C119  A    
C51   O21   A    
Cu1   Cu3   S    
Cu2   Cu4   S    
C153  H90   S    
C53   C100  S    
C16   C26   A    
C7    O15   A    
C75   H19   S    
C68   C84   A    
C76   H20   S    
C119  H47   S    
C12   H52   S    
C72   C104  A    
C10   C130  A    
C149  H77   S    
C52   O22   A    
C65   C81   A    
C139  C155  S    
C46   O46   A    
C111  C126  A    
C84   C94   A    
C86   C96   A    
C62   C100  A    
Cu11  O44   S    
C18   C138  A    
C86   H30   S    
C133  C149  S    
C106  C117  A    
C3    O7    A    
Cu3   O3    S    
C33   C129  A    
Cu5   O25   S    
C115  C124  A    
C78   H22   S    
C38   C144  A    
C25   C42   S    
Cu2   O6    S    
C29   C46   S    
C20   C140  A    
C36   C132  A    
C70   H14   S    
C21   C141  A    
C160  H112  S    
C156  H98   S    
C62   H6    S    
C24   C144  A    
C56   O32   A    
C54   O26   A    
C135  C151  S    
C159  H107  S    
Cu8   O28   S    
C64   C100  A    
C154  H92   S    
C145  H67   S    
Cu10  O39   S    
C76   C90   A    
C89   C128  S    
Cu5   O31   S    
Cu9   O34   S    
C91   C126  S    
C40   C142  A    
C160  H110  S    
C66   C102  A    
C93   C124  S    
C81   H25   S    
C1    C33   S    
Cu7   O29   S    
C63   C79   A    
C155  H95   S    
C61   H5    S    
C80   H24   S    
C107  C128  A    
C149  H79   S    
C52   O24   A    
C116  H44   S    
C15   C135  A    
C48   O48   A    
C141  C157  S    
C15   H55   S    
Cu11  O42   S    
Cu12  O45   S    
C158  H105  S    
Cu1   O17   S    
C110  H38   S    
C18   C30   A    
C34   C136  A    
C10   C26   A    
C22   H62   S    
C37   C137  A    
C13   C25   A    
C61   C99   A    
C117  H45   S    
C72   C88   A    
C26   C43   S    
C24   C30   A    
C66   H10   S    
C30   C47   S    
C50   O18   A    
C58   H2    S    
C156  H100  S    
C14   C134  A    
C47   O43   A    
C148  H74   S    
C4    O4    A    
C48   O44   A    
C118  C121  A    
C159  H109  S    
C81   C93   A    
C39   C139  A    
C154  H94   S    
C146  H68   S    
C110  C113  A    
Cu10  O37   S    
Cu9   O36   S    
C39   C143  A    
C147  H72   S    
C143  C159  S    
C152  H88   S    
C5    O9    A    
C144  C160  S    
C70   C86   A    
C59   C75   A    
C43   O37   A    
C119  C122  A    
C43   O35   A    
C57   H1    S    
C105  C128  A    
C60   H4    S    
C11   C131  A    
C9    C129  A    
C46   O42   A    
Cu4   O4    S    
C151  H84   S    
C9    H49   S    
C8    O12   A    
Cu12  O47   S    
C150  H81   S    
C108  C127  A    
C73   H17   S    
C157  H101  S    
C53   O25   A    
C129  C145  S    
C110  C125  A    
C33   C133  A    
C88   H32   S    
C34   C130  A    
C113  H41   S    
C5    O13   A    
C14   C28   A    
Cu9   Cu10  S    
C112  C115  A    
