data_mof_unit_50285.cif
_audit_creation_date              2012-12-11T15:09:38-0500
_audit_creation_method            fapswitch 2.2
_symmetry_space_group_name_H-M    P1
_symmetry_Int_Tables_number       1
_space_group_crystal_system       triclinic
_cell_length_a                    20.637939
_cell_length_b                    7.198198
_cell_length_c                    14.449856
_cell_angle_alpha                 90.489875
_cell_angle_beta                  97.744841
_cell_angle_gamma                 89.086917
_cell_volume                      2126.71657395

loop_
_atom_site_label
_atom_site_type_symbol
_atom_type_description
_atom_site_fract_x
_atom_site_fract_y
_atom_site_fract_z
_atom_type_partial_charge
O1    O     O_R   0.447130 0.507140 0.597350 -0.538232
O2    O     O_R   0.552870 0.007140 0.402650 -0.543906
O3    O     O_R   0.578910 0.181280 0.586990 -0.546399
O4    O     O_R   0.421090 0.681280 0.413010 -0.541150
C1    C     C_R   0.604078 0.344338 0.607871 0.731291
C2    C     C_R   0.394896 0.844824 0.394610 0.747373
O5    O     O_R   0.449230 0.177860 0.608640 -0.549114
O6    O     O_R   0.550770 0.677860 0.391360 -0.542301
O7    O     O_R   0.422260 0.000770 0.424450 -0.536455
O8    O     O_R   0.577740 0.500770 0.575550 -0.531462
C3    C     C_R   0.431386 0.347067 0.632578 0.694738
C4    C     C_R   0.568017 0.845279 0.366689 0.720703
O9    O     O_3   0.491310 0.336980 0.439550 -0.386713
O10   O     O_3   0.508690 0.836980 0.560450 -0.385321
V1    V     V_3+5 0.501610 0.064760 0.511210 1.386113
V2    V     V_3+5 0.498390 0.564760 0.488790 1.402505
C5    C     C_R   0.623261 0.919709 0.127939 -0.031303
C6    C     C_R   0.359683 0.314357 0.860727 -0.028453
H1    H     H_    0.713144 0.062269 0.030993 0.129957
H2    H     H_    0.282068 0.097229 0.946775 0.127229
C7    C     C_R   0.608424 0.855959 0.289966 -0.092298
C8    C     C_R   0.386185 0.351275 0.703350 -0.084078
C9    C     C_R   0.930543 0.857206 0.303829 0.226830
C10   C     C_R   0.068471 0.421141 0.696449 0.224671
C11   C     C_R   0.895797 0.862025 0.380062 0.305990
C12   C     C_R   0.100079 0.416036 0.616718 0.303995
C13   C     C_R   0.826605 0.856503 0.366391 -0.140219
C14   C     C_R   0.166801 0.362322 0.622749 -0.131972
C15   C     C_R   0.790547 0.877177 0.274308 0.006227
C16   C     C_R   0.202304 0.306470 0.709967 -0.002880
C17   C     C_R   0.828588 0.903504 0.200200 0.014214
C18   C     C_R   0.165106 0.279630 0.785530 0.011288
C19   C     C_R   0.719810 0.879301 0.250350 0.094754
C20   C     C_R   0.272910 0.288211 0.729980 0.081010
C21   C     C_R   0.691691 0.933212 0.158423 0.089625
C22   C     C_R   0.299908 0.236588 0.821056 0.083560
C23   C     C_R   0.732541 0.999414 0.096841 -0.216686
C24   C     C_R   0.260586 0.153456 0.880081 -0.191452
C25   C     C_R   0.798871 0.971860 0.114089 -0.166994
C26   C     C_R   0.194054 0.184110 0.865231 -0.165181
C27   C     C_R   0.675710 0.827163 0.311730 -0.255965
C28   C     C_R   0.318708 0.337924 0.670107 -0.240203
C29   C     C_R   0.580923 0.901099 0.198080 -0.039422
C30   C     C_R   0.407845 0.353602 0.801296 -0.051621
C31   C     C_R   0.896649 0.869674 0.213801 -0.200229
C32   C     C_R   0.100607 0.352340 0.781159 -0.201146
H3    H     H_    0.690849 0.762834 0.377569 0.131725
H4    H     H_    0.304755 0.361316 0.597055 0.123346
H5    H     H_    0.826751 0.009442 0.058991 0.118101
H6    H     H_    0.166966 0.143662 0.920463 0.129112
C33   C     C_1   0.166639 0.855357 0.167934 -0.152269
C34   C     C_1   0.831940 0.358400 0.835214 -0.141975
C35   C     C_1   0.218907 0.853516 0.219393 -0.050295
C36   C     C_1   0.778785 0.355388 0.785862 -0.002247
C37   C     C_1   0.280056 0.854150 0.281410 -0.060790
C38   C     C_1   0.716842 0.353531 0.725875 -0.058183
C39   C     C_1   0.332004 0.851875 0.333641 -0.187138
C40   C     C_1   0.665322 0.351568 0.672533 -0.223977
O11   O     O_R   0.922300 0.202240 0.924350 -0.538111
O12   O     O_R   0.077700 0.702240 0.075650 -0.535208
O13   O     O_R   0.050780 0.535130 0.891350 -0.530146
O14   O     O_R   0.949220 0.035130 0.108650 -0.541057
C41   C     C_R   0.066954 0.366138 0.865211 0.753221
C42   C     C_R   0.933808 0.869857 0.134678 0.766312
O15   O     O_R   0.921100 0.531560 0.912990 -0.529785
O16   O     O_R   0.078900 0.031560 0.087010 -0.539108
O17   O     O_R   0.947120 0.708470 0.097370 -0.536737
O18   O     O_R   0.052880 0.208470 0.902630 -0.545224
C43   C     C_R   0.895532 0.364172 0.894628 0.736893
C44   C     C_R   0.104121 0.862883 0.106115 0.731994
O19   O     O_3   0.008710 0.375800 0.060400 -0.375532
O20   O     O_3   0.991290 0.875800 0.939600 -0.372781
V3    V     V_3+5 0.998380 0.648080 0.988790 1.514092
V4    V     V_3+5 0.001620 0.148080 0.011210 1.490995
C45   C     C_R   0.508602 0.923993 0.178641 0.046691
C46   C     C_R   0.471462 0.805257 0.116575 -0.134312
C47   C     C_R   0.406570 0.850950 0.084388 -0.126558
C48   C     C_R   0.373431 0.980826 0.132711 -0.087604
C49   C     C_R   0.407827 0.079064 0.206418 -0.120390
C50   C     C_R   0.475952 0.066055 0.222010 -0.142250
H7    H     H_    0.494566 0.690463 0.086348 0.112804
H8    H     H_    0.381908 0.782650 0.023543 0.141229
H9    H     H_    0.321663 0.006471 0.112814 0.119499
H10   H     H_    0.382020 0.174906 0.247080 0.121247
H11   H     H_    0.502653 0.166076 0.267740 0.145834
C51   C     C_R   0.479226 0.375821 0.840304 0.062909
C52   C     C_R   0.497480 0.479160 0.921915 -0.116264
C53   C     C_R   0.559086 0.453312 0.974634 -0.110107
C54   C     C_R   0.607541 0.351713 0.938100 -0.091734
C55   C     C_R   0.593306 0.267692 0.851234 -0.097522
C56   C     C_R   0.529656 0.276030 0.803704 -0.150783
H12   H     H_    0.463410 0.577258 0.945508 0.118607
H13   H     H_    0.571149 0.518307 0.042095 0.113050
H14   H     H_    0.655888 0.338456 0.977111 0.100518
H15   H     H_    0.629899 0.180290 0.825040 0.127287
H16   H     H_    0.519881 0.183896 0.745338 0.132463
C57   C     C_R   0.599660 0.901361 0.023828 0.068759
C58   C     C_R   0.539629 0.976049 0.982188 -0.089489
C59   C     C_R   0.512849 0.923536 0.891867 -0.135879
C60   C     C_R   0.551219 0.827192 0.834489 -0.089861
C61   C     C_R   0.614429 0.770810 0.870236 -0.104552
C62   C     C_R   0.636994 0.798088 0.965062 -0.153207
H17   H     H_    0.512522 0.071614 0.020048 0.123352
H18   H     H_    0.463871 0.968991 0.864189 0.120710
H19   H     H_    0.531885 0.795666 0.762811 0.129481
H20   H     H_    0.644064 0.693464 0.826445 0.119758
H21   H     H_    0.682743 0.731266 0.992783 0.121299
C63   C     C_R   0.354585 0.412933 0.951384 0.080515
C64   C     C_R   0.298346 0.525919 0.957358 -0.141161
C65   C     C_R   0.279382 0.571420 0.043837 -0.143386
C66   C     C_R   0.320445 0.525729 0.125196 -0.088978
C67   C     C_R   0.380912 0.441908 0.119266 -0.120539
C68   C     C_R   0.395061 0.369389 0.034238 -0.157915
H22   H     H_    0.265972 0.564508 0.894902 0.125627
H23   H     H_    0.233545 0.644020 0.047232 0.114563
H24   H     H_    0.306971 0.559862 0.192648 0.125456
H25   H     H_    0.416173 0.429692 0.181366 0.118207
H26   H     H_    0.437461 0.281332 0.033532 0.126962
Br1   Br    Br    0.025083 0.847684 0.322387 -0.450502
Br2   Br    Br    0.977971 0.502132 0.687016 -0.425015
C69   C     C_R   0.796984 0.825121 0.451462 0.114173
C70   C     C_R   0.804078 0.648850 0.492453 -0.080711
C71   C     C_R   0.782022 0.618170 0.577620 -0.075032
C72   C     C_R   0.751042 0.761522 0.621545 -0.079257
C73   C     C_R   0.743077 0.936603 0.580255 -0.120635
C74   C     C_R   0.766979 0.970340 0.496077 -0.095196
H27   H     H_    0.828312 0.536671 0.459432 0.143848
H28   H     H_    0.790030 0.483160 0.609029 0.144253
H29   H     H_    0.733581 0.737965 0.687710 0.114986
H30   H     H_    0.718956 0.046041 0.614046 0.127096
H31   H     H_    0.761987 0.107700 0.465668 0.113546
C75   C     C_R   0.190726 0.322487 0.533560 0.107051
C76   C     C_R   0.184954 0.141241 0.498090 -0.082649
C77   C     C_R   0.193424 0.105447 0.405830 -0.066070
C78   C     C_R   0.210336 0.248808 0.349188 -0.078664
C79   C     C_R   0.217794 0.429003 0.385007 -0.107156
C80   C     C_R   0.206961 0.467255 0.476604 -0.084396
H32   H     H_    0.170005 0.029912 0.540219 0.138801
H33   H     H_    0.184835 0.966821 0.378693 0.153346
H34   H     H_    0.216642 0.221953 0.277192 0.119856
H35   H     H_    0.229898 0.539480 0.340809 0.125663
H36   H     H_    0.209602 0.608998 0.502492 0.117241
Br3   Br    Br    0.943676 0.884551 0.504448 -0.348934
Br4   Br    Br    0.049343 0.467797 0.496810 -0.356121

loop_
_geom_bond_atom_site_label_1
_geom_bond_atom_site_label_2
_ccdc_geom_bond_type
C24   C26   A    
C80   H36   S    
C61   C62   A    
C9    C31   A    
C13   C15   A    
C66   C67   A    
O1    C3    A    
C52   C53   A    
O2    C4    A    
C2    O7    A    
C57   C58   A    
C13   C69   S    
C71   C72   A    
O16   C44   A    
C47   C48   A    
O5    C3    A    
C60   H19   S    
C50   H11   S    
C1    C40   S    
C47   H8    S    
C21   C23   A    
C10   C12   A    
C51   C56   A    
C9    Br1   S    
C49   H10   S    
C12   Br4   S    
O18   V4    S    
C58   H17   S    
O16   V4    S    
C15   C19   A    
O12   V3    S    
C70   H27   S    
O15   V3    S    
C63   C64   A    
C54   H14   S    
O13   C41   A    
C65   C66   A    
O14   C42   A    
C34   C43   S    
H1    C23   S    
C56   H16   S    
C7    C29   A    
C73   H30   S    
C8    C30   A    
C38   C40   T    
C75   C76   A    
C20   C28   A    
C66   H24   S    
O17   V3    S    
C33   C44   S    
C45   C50   A    
C57   C62   A    
O5    V1    S    
C59   H18   S    
C76   H32   S    
O6    V2    S    
C52   H12   S    
C2    C39   S    
C11   Br3   S    
C30   C51   S    
C48   H9    S    
C67   C68   A    
C34   C36   T    
C35   C37   S    
C29   C45   S    
C78   H34   S    
C36   C38   S    
C10   Br2   S    
C16   C20   A    
C42   O17   A    
C78   C79   A    
C46   C47   A    
O4    C2    A    
C77   H33   S    
O19   V3    S    
C48   C49   A    
C79   C80   A    
O13   V3    S    
C75   C80   A    
C4    C7    S    
C49   C50   A    
C14   C75   S    
C63   C68   A    
O4    V2    S    
C45   C46   A    
C5    C29   A    
C79   H35   S    
C6    C30   A    
C76   C77   A    
H2    C24   S    
C59   C60   A    
O12   C44   A    
O6    C4    A    
C27   H3    S    
C62   H21   S    
O1    V2    S    
C28   H4    S    
O2    V1    S    
O11   V4    S    
C69   C70   A    
C64   H22   S    
O11   C43   A    
C7    C27   A    
O20   V4    S    
C25   H5    S    
C37   C39   T    
C73   C74   A    
O3    V1    S    
C61   H20   S    
O15   C43   A    
C53   H13   S    
C3    C8    S    
C51   C52   A    
C18   C32   A    
O20   V3    S    
O3    C1    A    
C55   H15   S    
C46   H7    S    
O19   V4    S    
C77   C78   A    
C11   C13   A    
C41   O18   A    
C31   C42   S    
C12   C14   A    
C67   H25   S    
C19   C27   A    
C22   C24   A    
O7    V1    S    
C10   C32   A    
C1    O8    A    
C23   C25   A    
O8    V2    S    
C64   C65   A    
C16   C18   A    
C55   C56   A    
C8    C28   A    
C32   C41   S    
C5    C57   S    
C74   H31   S    
C26   H6    S    
C14   C16   A    
C60   C61   A    
C19   C21   A    
C17   C25   A    
C72   H29   S    
C20   C22   A    
C18   C26   A    
C6    C63   S    
C68   H26   S    
C69   C74   A    
C9    C11   A    
C53   C54   A    
C15   C17   A    
C58   C59   A    
C17   C31   A    
O9    V2    S    
C71   H28   S    
C70   C71   A    
O10   V1    S    
O14   V4    S    
C5    C21   A    
C33   C35   T    
C54   C55   A    
C6    C22   A    
C65   H23   S    
C72   C73   A    
