data_mof_unit_35859.cif
_audit_creation_date              2012-12-10T16:38:13-0500
_audit_creation_method            fapswitch 2.2
_symmetry_space_group_name_H-M    P1
_symmetry_Int_Tables_number       1
_space_group_crystal_system       triclinic
_cell_length_a                    28.2664
_cell_length_b                    18.572666
_cell_length_c                    16.874884
_cell_angle_alpha                 90.000013
_cell_angle_beta                  62.794763
_cell_angle_gamma                 90.000057
_cell_volume                      7878.98479191

loop_
_atom_site_label
_atom_site_type_symbol
_atom_type_description
_atom_site_fract_x
_atom_site_fract_y
_atom_site_fract_z
_atom_type_partial_charge
C1    C     C_R   0.700809 0.264874 0.676750 0.897359
C2    C     C_R   0.299191 0.735125 0.323250 0.897360
C3    C     C_R   0.299191 0.264875 0.323250 0.897357
C4    C     C_R   0.700808 0.735125 0.676750 0.897359
C5    C     C_R   0.200809 0.764875 0.676750 0.897359
C6    C     C_R   0.799191 0.235125 0.323250 0.897360
C7    C     C_R   0.799191 0.764875 0.323250 0.897357
C8    C     C_R   0.200808 0.235125 0.676750 0.897359
C9    C     C_R   0.896991 0.500000 0.515076 -0.001828
C10   C     C_R   0.103009 0.500000 0.484924 -0.001829
C11   C     C_R   0.396991 0.000000 0.515076 -0.001829
C12   C     C_R   0.603009 1.000000 0.484924 -0.001829
C13   C     C_R   0.107592 0.371326 0.462212 0.227970
C14   C     C_R   0.892408 0.628674 0.537788 0.227970
C15   C     C_R   0.892407 0.371326 0.537792 0.227970
C16   C     C_R   0.107593 0.628673 0.462208 0.227970
C17   C     C_R   0.607592 0.871326 0.462211 0.227970
C18   C     C_R   0.392408 0.128674 0.537788 0.227970
C19   C     C_R   0.392407 0.871326 0.537792 0.227970
C20   C     C_R   0.607593 0.128674 0.462208 0.227969
C21   C     C_R   0.717579 0.261063 0.957030 0.015499
C22   C     C_R   0.282422 0.738931 0.042968 0.015498
C23   C     C_R   0.282424 0.261063 0.042968 0.015498
C24   C     C_R   0.717579 0.738932 0.957030 0.015498
C25   C     C_R   0.217578 0.761063 0.957030 0.015498
C26   C     C_R   0.782424 0.238932 0.042967 0.015499
C27   C     C_R   0.782423 0.761064 0.042968 0.015498
C28   C     C_R   0.217579 0.238932 0.957030 0.015498
C29   C     C_R   0.764615 0.219572 0.915250 0.055062
C30   C     C_R   0.235387 0.780424 0.084747 0.055063
C31   C     C_R   0.235389 0.219569 0.084746 0.055063
C32   C     C_R   0.764614 0.780426 0.915252 0.055063
C33   C     C_R   0.264614 0.719572 0.915250 0.055062
C34   C     C_R   0.735390 0.280426 0.084744 0.055063
C35   C     C_R   0.735389 0.719569 0.084746 0.055063
C36   C     C_R   0.264614 0.280426 0.915252 0.055063
C37   C     C_R   0.799605 0.213221 0.954986 -0.007491
C38   C     C_R   0.200397 0.786774 0.045012 -0.007489
C39   C     C_R   0.200399 0.213219 0.045011 -0.007488
C40   C     C_R   0.799604 0.786776 0.954987 -0.007489
C41   C     C_R   0.299604 0.713221 0.954987 -0.007491
C42   C     C_R   0.700399 0.286775 0.045010 -0.007487
C43   C     C_R   0.700398 0.713220 0.045011 -0.007488
C44   C     C_R   0.299604 0.286775 0.954987 -0.007489
C45   C     C_R   0.638775 0.313792 0.953547 0.000221
C46   C     C_R   0.361223 0.686201 0.046455 0.000213
C47   C     C_R   0.361225 0.313795 0.046453 0.000214
C48   C     C_R   0.638776 0.686204 0.953546 0.000216
C49   C     C_R   0.138775 0.813793 0.953546 0.000219
C50   C     C_R   0.861224 0.186200 0.046455 0.000211
C51   C     C_R   0.861225 0.813795 0.046453 0.000214
C52   C     C_R   0.138776 0.186203 0.953546 0.000216
C53   C     C_R   0.612796 0.338777 0.902815 -0.172958
C54   C     C_R   0.387203 0.661218 0.097187 -0.172949
C55   C     C_R   0.387203 0.338781 0.097187 -0.172953
C56   C     C_R   0.612795 0.661222 0.902815 -0.172954
C57   C     C_R   0.112796 0.838778 0.902814 -0.172956
C58   C     C_R   0.887203 0.161218 0.097187 -0.172949
C59   C     C_R   0.887203 0.838781 0.097187 -0.172952
C60   C     C_R   0.112795 0.161222 0.902815 -0.172953
C61   C     C_R   0.629361 0.313234 0.816244 -0.127037
C62   C     C_R   0.370639 0.686763 0.183757 -0.127039
C63   C     C_R   0.370637 0.313241 0.183760 -0.127051
C64   C     C_R   0.629359 0.686769 0.816246 -0.127024
C65   C     C_R   0.129361 0.813235 0.816243 -0.127037
C66   C     C_R   0.870639 0.186762 0.183757 -0.127038
C67   C     C_R   0.870637 0.813241 0.183759 -0.127044
C68   C     C_R   0.129359 0.186769 0.816246 -0.127024
C69   C     C_R   0.675415 0.270851 0.775190 -0.171855
C70   C     C_R   0.324585 0.729146 0.224810 -0.171856
C71   C     C_R   0.324585 0.270854 0.224811 -0.171853
C72   C     C_R   0.675414 0.729149 0.775191 -0.171861
C73   C     C_R   0.175415 0.770852 0.775190 -0.171854
C74   C     C_R   0.824585 0.229146 0.224810 -0.171857
C75   C     C_R   0.824585 0.770854 0.224811 -0.171854
C76   C     C_R   0.175414 0.229149 0.775191 -0.171861
C77   C     C_R   0.701274 0.245355 0.826187 0.037165
C78   C     C_R   0.298726 0.754641 0.173813 0.037169
C79   C     C_R   0.298728 0.245356 0.173812 0.037165
C80   C     C_R   0.701274 0.754643 0.826187 0.037167
C81   C     C_R   0.201274 0.745356 0.826186 0.037165
C82   C     C_R   0.798727 0.254641 0.173812 0.037170
C83   C     C_R   0.798727 0.745356 0.173812 0.037165
C84   C     C_R   0.201274 0.254643 0.826187 0.037167
C85   C     C_R   0.696910 0.128396 0.515649 0.921349
C86   C     C_R   0.303090 0.871604 0.484351 0.921351
C87   C     C_R   0.303090 0.128396 0.484350 0.921350
C88   C     C_R   0.696910 0.871604 0.515649 0.921348
C89   C     C_R   0.196910 0.628396 0.515649 0.921349
C90   C     C_R   0.803090 0.371604 0.484351 0.921351
C91   C     C_R   0.803090 0.628396 0.484350 0.921351
C92   C     C_R   0.196910 0.371604 0.515649 0.921348
C93   C     C_R   0.686543 0.274838 0.911348 0.045158
C94   C     C_R   0.313457 0.725156 0.088652 0.045154
C95   C     C_R   0.313459 0.274840 0.088651 0.045158
C96   C     C_R   0.686543 0.725158 0.911348 0.045156
C97   C     C_R   0.186543 0.774839 0.911348 0.045157
C98   C     C_R   0.813458 0.225156 0.088652 0.045155
C99   C     C_R   0.813459 0.774840 0.088651 0.045157
C100  C     C_R   0.186543 0.225158 0.911348 0.045156
C101  C     C_R   0.615074 0.316552 0.047390 -0.031673
C102  C     C_R   0.384929 0.683446 0.952612 -0.031641
C103  C     C_R   0.384929 0.316553 0.952610 -0.031653
C104  C     C_R   0.615073 0.683444 0.047390 -0.031654
C105  C     C_R   0.115072 0.816550 0.047389 -0.031663
C106  C     C_R   0.884930 0.183445 0.952612 -0.031638
C107  C     C_R   0.884928 0.816554 0.952610 -0.031654
C108  C     C_R   0.115074 0.183443 0.047390 -0.031654
C109  C     C_R   0.646132 0.308239 0.092889 -0.078347
C110  C     C_R   0.353872 0.691759 0.907109 -0.078355
C111  C     C_R   0.353871 0.308240 0.907109 -0.078349
C112  C     C_R   0.646131 0.691755 0.092890 -0.078349
C113  C     C_R   0.146130 0.808236 0.092891 -0.078349
C114  C     C_R   0.853873 0.191758 0.907109 -0.078355
C115  C     C_R   0.853871 0.808240 0.907109 -0.078350
C116  C     C_R   0.146132 0.191755 0.092890 -0.078349
C117  C     C_R   0.738319 0.187592 0.800123 0.041069
C118  C     C_R   0.261683 0.812406 0.199873 0.041069
C119  C     C_R   0.261685 0.187589 0.199873 0.041063
C120  C     C_R   0.738317 0.812408 0.800126 0.041067
C121  C     C_R   0.238319 0.687592 0.800123 0.041069
C122  C     C_R   0.761685 0.312408 0.199871 0.041066
C123  C     C_R   0.761685 0.687590 0.199873 0.041064
C124  C     C_R   0.238318 0.312407 0.800126 0.041067
C125  C     C_R   0.770950 0.177759 0.841518 -0.204938
C126  C     C_R   0.229053 0.822239 0.158476 -0.204940
C127  C     C_R   0.229056 0.177754 0.158475 -0.204942
C128  C     C_R   0.770948 0.822241 0.841523 -0.204940
C129  C     C_R   0.270950 0.677760 0.841519 -0.204938
C130  C     C_R   0.729056 0.322242 0.158472 -0.204945
C131  C     C_R   0.729055 0.677755 0.158475 -0.204942
C132  C     C_R   0.270948 0.322240 0.841522 -0.204940
C133  C     C_R   0.072794 0.102354 0.935596 0.908260
C134  C     C_R   0.927205 0.897646 0.064404 0.908261
C135  C     C_R   0.927205 0.102353 0.064404 0.908264
C136  C     C_R   0.072795 0.897646 0.935596 0.908257
C137  C     C_R   0.572794 0.602354 0.935596 0.908259
C138  C     C_R   0.427205 0.397647 0.064404 0.908261
C139  C     C_R   0.427205 0.602353 0.064404 0.908261
C140  C     C_R   0.572795 0.397646 0.935596 0.908255
C141  C     C_R   0.553772 0.130617 0.482047 0.039760
C142  C     C_R   0.446228 0.869383 0.517953 0.039760
C143  C     C_R   0.446230 0.130617 0.517948 0.039759
C144  C     C_R   0.553771 0.869383 0.482051 0.039760
C145  C     C_R   0.053772 0.630617 0.482046 0.039760
C146  C     C_R   0.946228 0.369383 0.517953 0.039760
C147  C     C_R   0.946230 0.630617 0.517948 0.039760
C148  C     C_R   0.053770 0.369383 0.482051 0.039760
C149  C     C_R   0.527004 0.195931 0.489223 -0.146912
C150  C     C_R   0.472996 0.804069 0.510776 -0.146909
C151  C     C_R   0.472998 0.195931 0.510770 -0.146913
C152  C     C_R   0.527002 0.804069 0.489230 -0.146910
C153  C     C_R   0.027004 0.695931 0.489223 -0.146909
C154  C     C_R   0.972996 0.304069 0.510777 -0.146909
C155  C     C_R   0.972998 0.695931 0.510769 -0.146912
C156  C     C_R   0.027002 0.304069 0.489230 -0.146910
C157  C     C_R   0.473680 0.065417 0.506351 0.022672
C158  C     C_R   0.526320 0.934583 0.493648 0.022672
C159  C     C_R   0.526321 0.065417 0.493646 0.022672
C160  C     C_R   0.473679 0.934583 0.506354 0.022672
C161  C     C_R   0.973680 0.565417 0.506351 0.022672
C162  C     C_R   0.026320 0.434583 0.493648 0.022673
C163  C     C_R   0.026321 0.565417 0.493646 0.022672
C164  C     C_R   0.973679 0.434583 0.506354 0.022672
C165  C     C_R   0.947670 0.500000 0.511361 -0.044478
C166  C     C_R   0.052330 0.500000 0.488639 -0.044478
C167  C     C_R   0.447670 0.000000 0.511361 -0.044478
C168  C     C_R   0.552330 1.000000 0.488638 -0.044478
C169  C     C_R   0.871414 0.434513 0.517840 0.010432
C170  C     C_R   0.128586 0.565487 0.482159 0.010432
C171  C     C_R   0.128586 0.434512 0.482161 0.010432
C172  C     C_R   0.871414 0.565488 0.517839 0.010431
C173  C     C_R   0.371414 0.934513 0.517840 0.010432
C174  C     C_R   0.628586 0.065487 0.482159 0.010432
C175  C     C_R   0.628586 0.934512 0.482161 0.010432
C176  C     C_R   0.371414 0.065488 0.517839 0.010431
C177  C     C_R   0.827077 0.435781 0.498691 -0.089064
C178  C     C_R   0.172923 0.564219 0.501308 -0.089064
C179  C     C_R   0.172922 0.435781 0.501309 -0.089065
C180  C     C_R   0.827078 0.564219 0.498690 -0.089065
C181  C     C_R   0.327077 0.935781 0.498691 -0.089064
C182  C     C_R   0.672923 0.064219 0.501308 -0.089064
C183  C     C_R   0.672922 0.935781 0.501309 -0.089064
C184  C     C_R   0.327078 0.064219 0.498691 -0.089065
C185  C     C_R   0.806598 0.500000 0.488023 -0.296465
C186  C     C_R   0.193402 0.500000 0.511977 -0.296467
C187  C     C_R   0.306598 0.000000 0.488023 -0.296465
C188  C     C_R   0.693401 0.000000 0.511976 -0.296466
H1    H     H_    0.047141 0.253031 0.481808 0.181587
H2    H     H_    0.952859 0.746969 0.518191 0.181587
H3    H     H_    0.952856 0.253031 0.518200 0.181587
H4    H     H_    0.047144 0.746969 0.481799 0.181588
H5    H     H_    0.547141 0.753031 0.481808 0.181587
H6    H     H_    0.452859 0.246969 0.518192 0.181588
H7    H     H_    0.452856 0.753031 0.518200 0.181587
H8    H     H_    0.547144 0.246969 0.481799 0.181588
H9    H     H_    0.773949 0.500000 0.470987 0.206809
H10   H     H_    0.226051 0.500000 0.529012 0.206810
H11   H     H_    0.273949 1.000000 0.470987 0.206809
H12   H     H_    0.726051 0.000000 0.529012 0.206809
H13   H     H_    0.798157 0.132567 0.820711 0.149135
H14   H     H_    0.201848 0.867435 0.179280 0.149134
H15   H     H_    0.201852 0.132558 0.179279 0.149135
H16   H     H_    0.798152 0.867437 0.820718 0.149135
H17   H     H_    0.298156 0.632566 0.820712 0.149135
H18   H     H_    0.701854 0.367439 0.179273 0.149135
H19   H     H_    0.701852 0.632558 0.179279 0.149135
H20   H     H_    0.298152 0.367436 0.820718 0.149135
O1    O     O_R   0.746490 0.236330 0.638080 -0.588564
O2    O     O_R   0.253510 0.763670 0.361920 -0.588563
O3    O     O_R   0.253510 0.236330 0.361920 -0.588564
O4    O     O_R   0.746490 0.763670 0.638080 -0.588564
O5    O     O_R   0.246490 0.736330 0.638080 -0.588564
O6    O     O_R   0.753510 0.263670 0.361920 -0.588562
O7    O     O_R   0.753510 0.736330 0.361920 -0.588563
O8    O     O_R   0.246490 0.263670 0.638080 -0.588563
O9    O     O_R   0.674170 0.186160 0.516270 -0.608518
O10   O     O_R   0.325830 0.813840 0.483730 -0.608518
O11   O     O_R   0.325830 0.186160 0.483730 -0.608518
O12   O     O_R   0.674170 0.813840 0.516270 -0.608518
O13   O     O_R   0.174170 0.686160 0.516270 -0.608518
O14   O     O_R   0.825830 0.313840 0.483730 -0.608518
O15   O     O_R   0.825830 0.686160 0.483730 -0.608518
O16   O     O_R   0.174170 0.313840 0.516270 -0.608518
O17   O     O_R   0.739960 0.127620 0.525000 -0.629262
O18   O     O_R   0.260040 0.872380 0.475000 -0.629262
O19   O     O_R   0.260040 0.127620 0.475000 -0.629261
O20   O     O_R   0.739960 0.872380 0.525000 -0.629262
O21   O     O_R   0.239960 0.627620 0.525000 -0.629262
O22   O     O_R   0.760040 0.372380 0.475000 -0.629262
O23   O     O_R   0.760040 0.627620 0.475000 -0.629261
O24   O     O_R   0.239960 0.372380 0.525000 -0.629262
O25   O     O_R   0.680700 0.294870 0.629350 -0.627576
O26   O     O_R   0.319300 0.705130 0.370650 -0.627577
O27   O     O_R   0.319300 0.294870 0.370650 -0.627580
O28   O     O_R   0.680700 0.705130 0.629350 -0.627572
O29   O     O_R   0.180700 0.794870 0.629350 -0.627577
O30   O     O_R   0.819300 0.205130 0.370650 -0.627577
O31   O     O_R   0.819300 0.794870 0.370650 -0.627579
O32   O     O_R   0.180700 0.205130 0.629350 -0.627572
O33   O     O_R   0.062020 0.072840 0.007170 -0.616260
O34   O     O_R   0.937980 0.927160 0.992830 -0.616262
O35   O     O_R   0.937980 0.072840 0.992830 -0.616264
O36   O     O_R   0.062020 0.927160 0.007170 -0.616258
O37   O     O_R   0.562020 0.572840 0.007170 -0.616260
O38   O     O_R   0.437980 0.427160 0.992830 -0.616262
O39   O     O_R   0.437980 0.572840 0.992830 -0.616263
O40   O     O_R   0.562020 0.427160 0.007170 -0.616257
O41   O     O_R   0.947860 0.073950 0.109290 -0.611765
O42   O     O_R   0.052140 0.926050 0.890710 -0.611759
O43   O     O_R   0.052140 0.073950 0.890710 -0.611764
O44   O     O_R   0.947860 0.926050 0.109290 -0.611761
O45   O     O_R   0.447860 0.573950 0.109290 -0.611763
O46   O     O_R   0.552140 0.426050 0.890710 -0.611758
O47   O     O_R   0.552140 0.573950 0.890710 -0.611763
O48   O     O_R   0.447860 0.426050 0.109290 -0.611758
Zn1   Zn    Zn3+2 0.792340 0.208750 0.507670 1.035834
Zn2   Zn    Zn3+2 0.207660 0.791250 0.492330 1.035835
Zn3   Zn    Zn3+2 0.207660 0.208750 0.492330 1.035838
Zn4   Zn    Zn3+2 0.792340 0.791250 0.507670 1.035837
Zn5   Zn    Zn3+2 0.292340 0.708750 0.507670 1.035835
Zn6   Zn    Zn3+2 0.707660 0.291250 0.492330 1.035837
Zn7   Zn    Zn3+2 0.707660 0.708750 0.492330 1.035838
Zn8   Zn    Zn3+2 0.292340 0.291250 0.507670 1.035837
Zn9   Zn    Zn3+2 0.505960 0.500000 0.080520 1.002758
Zn10  Zn    Zn3+2 0.494040 0.500000 0.919480 1.002749
Zn11  Zn    Zn3+2 0.005960 0.000000 0.080520 1.002754
Zn12  Zn    Zn3+2 0.994040 0.000000 0.919480 1.002748
Br1   Br    Br    0.153644 0.308011 0.367511 -0.494170
Br2   Br    Br    0.846356 0.691989 0.632489 -0.494171
Br3   Br    Br    0.846353 0.308012 0.632492 -0.494174
Br4   Br    Br    0.153647 0.691987 0.367508 -0.494175
Br5   Br    Br    0.653644 0.808011 0.367511 -0.494171
Br6   Br    Br    0.346356 0.191989 0.632489 -0.494171
Br7   Br    Br    0.346353 0.808012 0.632492 -0.494174
Br8   Br    Br    0.653647 0.191988 0.367508 -0.494173
C189  C     C_1   0.599245 0.331603 0.768274 0.308404
N1    N     N_1   0.576380 0.346903 0.728582 -0.170006
C190  C     C_1   0.400755 0.668395 0.231727 0.308406
N2    N     N_1   0.423620 0.653096 0.271419 -0.170006
C191  C     C_1   0.400747 0.331620 0.231736 0.308423
N3    N     N_1   0.423607 0.346927 0.271435 -0.169997
C192  C     C_1   0.599238 0.668413 0.768283 0.308387
N4    N     N_1   0.576367 0.653125 0.728595 -0.170012
C193  C     C_1   0.099245 0.831604 0.768274 0.308405
N5    N     N_1   0.076380 0.846904 0.728581 -0.170007
C194  C     C_1   0.900755 0.168394 0.231727 0.308408
N6    N     N_1   0.923620 0.153095 0.271419 -0.170007
C195  C     C_1   0.900750 0.831615 0.231731 0.308416
N7    N     N_1   0.923613 0.846917 0.271427 -0.170003
C196  C     C_1   0.099238 0.168413 0.768283 0.308387
N8    N     N_1   0.076367 0.153125 0.728596 -0.170013
C197  C     C_1   0.558692 0.302218 0.095166 0.204522
N9    N     N_1   0.513984 0.288451 0.131976 -0.207605
C198  C     C_1   0.441305 0.697824 0.904856 0.204515
N10   N     N_1   0.486005 0.711639 0.868077 -0.207628
C199  C     C_1   0.441308 0.302194 0.904845 0.204516
N11   N     N_1   0.486011 0.288400 0.868052 -0.207621
C200  C     C_1   0.558694 0.697803 0.095157 0.204521
N12   N     N_1   0.513991 0.711597 0.131952 -0.207615
C201  C     C_1   0.058692 0.802202 0.095158 0.204518
N13   N     N_1   0.013986 0.788420 0.131958 -0.207612
C202  C     C_1   0.941306 0.197826 0.904857 0.204513
N14   N     N_1   0.986005 0.211643 0.868079 -0.207628
C203  C     C_1   0.941308 0.802195 0.904845 0.204518
N15   N     N_1   0.986011 0.788400 0.868052 -0.207619
C204  C     C_1   0.058694 0.197802 0.095157 0.204522
N16   N     N_1   0.013991 0.211597 0.131952 -0.207614
C205  C     C_1   0.618937 0.308754 0.189691 0.202566
N17   N     N_1   0.596969 0.309133 0.266800 -0.168301
C206  C     C_1   0.381071 0.691253 0.810307 0.202569
N18   N     N_1   0.403043 0.690881 0.733198 -0.168299
C207  C     C_1   0.381068 0.308753 0.810306 0.202566
N19   N     N_1   0.403038 0.309132 0.733197 -0.168300
C208  C     C_1   0.618935 0.691240 0.189693 0.202564
N20   N     N_1   0.596966 0.690860 0.266802 -0.168300
C209  C     C_1   0.118933 0.808747 0.189693 0.202568
N21   N     N_1   0.096963 0.809124 0.266802 -0.168300
C210  C     C_1   0.881072 0.191253 0.810306 0.202568
N22   N     N_1   0.903044 0.190881 0.733198 -0.168299
C211  C     C_1   0.881068 0.808754 0.810306 0.202565
N23   N     N_1   0.903038 0.809133 0.733197 -0.168299
C212  C     C_1   0.118936 0.191240 0.189692 0.202564
N24   N     N_1   0.096966 0.190859 0.266802 -0.168300
C213  C     C_1   0.736127 0.128789 0.745773 0.195330
N25   N     N_1   0.734306 0.081584 0.702527 -0.180446
C214  C     C_1   0.263876 0.871210 0.254221 0.195329
N26   N     N_1   0.265699 0.918415 0.297466 -0.180448
C215  C     C_1   0.263878 0.128787 0.254224 0.195330
N27   N     N_1   0.265699 0.081583 0.297471 -0.180447
C216  C     C_1   0.736125 0.871211 0.745776 0.195331
N28   N     N_1   0.734304 0.918416 0.702530 -0.180448
C217  C     C_1   0.236126 0.628789 0.745774 0.195330
N29   N     N_1   0.234305 0.581584 0.702527 -0.180447
C218  C     C_1   0.763878 0.371211 0.254220 0.195330
N30   N     N_1   0.765700 0.418415 0.297466 -0.180448
C219  C     C_1   0.763878 0.628788 0.254224 0.195330
N31   N     N_1   0.765698 0.581584 0.297471 -0.180447
C220  C     C_1   0.236125 0.371211 0.745776 0.195331
N32   N     N_1   0.234304 0.418416 0.702530 -0.180447

loop_
_geom_bond_atom_site_label_1
_geom_bond_atom_site_label_2
_ccdc_geom_bond_type
C154  H3    S    
O3    Zn3   S    
O27   Zn8   S    
C4    O28   A    
C9    C169  A    
C196  N8    T    
C34   C42   A    
C134  O44   A    
C139  O39   A    
C219  N31   T    
C181  C187  A    
C201  N13   T    
C126  H14   S    
C6    O30   A    
C27   C99   A    
C85   C182  S    
C170  C178  A    
C175  C183  A    
C42   C109  A    
C24   C96   A    
C149  H8    S    
C111  C207  S    
C92   O24   A    
C62   C70   A    
C65   C193  S    
C135  O35   A    
C3    O27   A    
O39   Zn10  S    
O26   Zn5   S    
C1    O25   A    
C147  C155  A    
C143  C151  A    
C90   C177  S    
C11   C167  A    
C82   C98   A    
O36   Zn11  S    
C136  O42   A    
C73   C81   A    
C161  C163  A    
C162  C164  A    
C2    O2    A    
C212  N24   T    
C84   C100  A    
C92   O16   A    
C121  C129  A    
C37   C114  A    
C27   C35   A    
C10   C171  A    
C217  N29   T    
C21   C29   A    
C81   C121  A    
C23   C31   A    
C24   C32   A    
C128  H16   S    
C138  O38   A    
O44   Zn11  S    
O1    Zn1   S    
C202  N14   T    
C146  C154  A    
C5    O5    A    
C120  C128  A    
C105  C201  S    
C137  O47   A    
C63   C71   A    
C36   C44   A    
O2    Zn2   S    
C12   C174  A    
C176  C184  A    
C120  C216  S    
O46   Zn10  S    
C48   C96   A    
O37   Zn9   S    
O11   Zn8   S    
C8    O8    A    
C17   Br5   S    
O47   Zn10  S    
C67   C195  S    
C148  C162  A    
C183  C188  A    
C101  C197  S    
C108  C116  A    
C21   C93   A    
C78   C94   A    
C9    C165  A    
C23   C95   A    
O32   Zn3   S    
C49   C97   A    
C21   C42   A    
C22   C41   A    
O28   Zn7   S    
C51   C107  A    
C211  N23   T    
C68   C196  S    
C91   O23   A    
O29   Zn2   S    
C24   C43   A    
C114  C210  S    
C185  H9    S    
C122  C218  S    
C82   C122  A    
C161  C165  A    
C17   C175  A    
C18   C176  A    
C29   C125  A    
C69   C77   A    
C31   C127  A    
C131  H19   S    
C174  C182  A    
C71   C79   A    
C115  C211  S    
C179  C186  A    
C30   C38   A    
C11   C176  A    
C17   C144  A    
C151  H6    S    
C105  C113  A    
C18   C143  A    
C78   C118  A    
C149  C151  A    
C89   O13   A    
C32   C128  A    
C188  H12   S    
C66   C74   A    
C8    C76   S    
C49   C57   A    
C124  C132  A    
C86   O10   A    
C52   C60   A    
C59   C67   A    
C53   C61   A    
C141  C159  A    
C20   C174  A    
C55   C63   A    
C86   C181  S    
C56   C64   A    
O34   Zn12  S    
C35   C43   A    
C121  C217  S    
C156  H1    S    
C112  C208  S    
C45   C53   A    
C189  N1    T    
C22   C94   A    
C171  C179  A    
C169  C177  A    
C8    O32   A    
C3    O3    A    
C50   C98   A    
C1    O1    A    
C104  C112  A    
O40   Zn9   S    
C145  C163  A    
C146  C164  A    
C14   C147  A    
C52   C100  A    
C218  N30   T    
O5    Zn5   S    
C16   C145  A    
C178  C186  A    
C197  N9    T    
C130  H18   S    
C13   Br1   S    
C25   C38   A    
C137  O37   A    
C54   C139  S    
C46   C94   A    
C27   C40   A    
C10   C166  A    
C91   C180  S    
C195  N7    T    
C182  C188  A    
C89   C178  S    
C60   C68   A    
O16   Zn3   S    
C118  C214  S    
C123  C219  S    
C25   C97   A    
C39   C116  A    
O12   Zn7   S    
C67   C75   A    
C62   C190  S    
O13   Zn2   S    
O23   Zn7   S    
C22   C30   A    
C140  O40   A    
C61   C189  S    
C20   C141  A    
C15   C146  A    
O20   Zn4   S    
O21   Zn5   S    
C58   C135  S    
C68   C76   A    
C59   C134  S    
C184  C187  A    
C124  C220  S    
O41   Zn11  S    
O42   Zn12  S    
C72   C80   A    
C56   C137  S    
C88   O20   A    
O43   Zn12  S    
C5    C73   S    
C150  H7    S    
O14   Zn1   S    
C173  C181  A    
C13   C171  A    
C85   O17   A    
C192  N4    T    
O10   Zn5   S    
C90   O22   A    
O38   Zn10  S    
C116  C212  S    
C117  C125  A    
C25   C33   A    
C18   Br6   S    
C119  C127  A    
O48   Zn9   S    
O22   Zn6   S    
C113  C209  S    
C76   C84   A    
C30   C126  A    
C158  C168  A    
C125  H13   S    
C5    O29   A    
C164  C165  A    
C74   C82   A    
C40   C115  A    
C101  C109  A    
C177  C185  A    
O30   Zn1   S    
C103  C111  A    
C215  N27   T    
C134  O34   A    
C162  C166  A    
C2    O26   A    
C79   C119  A    
C190  N2    T    
C153  C155  A    
O24   Zn8   S    
C133  O43   A    
C154  C156  A    
C172  C180  A    
C45   C93   A    
C208  N20   T    
C157  C159  A    
C83   C99   A    
C158  C160  A    
C135  O41   A    
C138  O48   A    
C16   Br4   S    
C6    C74   S    
C47   C103  A    
C204  N16   T    
C50   C58   A    
O7    Zn7   S    
O31   Zn4   S    
C92   C179  S    
O35   Zn12  S    
O8    Zn8   S    
C147  C161  A    
C198  N10   T    
C38   C113  A    
C49   C105  A    
C54   C62   A    
C28   C39   A    
O4    Zn4   S    
C1    C69   S    
C23   C44   A    
C88   O12   A    
C187  H11   S    
C3    C71   S    
C200  N12   T    
C19   C173  A    
C79   C95   A    
C193  N5    T    
C155  H2    S    
C129  H17   S    
C194  N6    T    
C6    O6    A    
C46   C54   A    
C45   C101  A    
C19   C142  A    
C87   O19   A    
C157  C167  A    
C102  C110  A    
C140  O46   A    
C91   O15   A    
C35   C131  A    
C4    C72   S    
C33   C129  A    
C103  C199  S    
C123  C131  A    
O6    Zn6   S    
C57   C65   A    
C119  C215  S    
C14   Br2   S    
C26   C37   A    
C10   C170  A    
C33   C41   A    
C142  C150  A    
C36   C132  A    
C214  N26   T    
C75   C83   A    
C207  N19   T    
C77   C93   A    
C110  C206  S    
C213  N25   T    
C210  N22   T    
C44   C111  A    
C16   C170  A    
C28   C36   A    
C144  C152  A    
C203  N15   T    
C29   C37   A    
C50   C106  A    
C186  H10   S    
C9    C172  A    
C148  C156  A    
C83   C123  A    
C2    C70   S    
C127  H15   S    
C60   C133  S    
C7    O7    A    
O25   Zn6   S    
C206  N18   T    
C80   C120  A    
C70   C78   A    
C53   C140  S    
C199  N11   T    
C216  N28   T    
C20   Br8   S    
C141  C149  A    
C205  N17   T    
C107  C203  S    
C46   C102  A    
C55   C138  S    
C152  H5    S    
C106  C114  A    
C66   C194  S    
C139  O45   A    
C90   O14   A    
C77   C117  A    
O15   Zn4   S    
C48   C104  A    
C65   C73   A    
C159  C168  A    
C15   C169  A    
C160  C167  A    
C85   O9    A    
C133  O33   A    
C58   C66   A    
C19   Br7   S    
C220  N32   T    
C108  C204  S    
C57   C136  S    
C87   O11   A    
C80   C96   A    
O19   Zn3   S    
C145  C153  A    
C28   C100  A    
C32   C40   A    
C52   C108  A    
C15   Br3   S    
C163  C166  A    
C26   C34   A    
C143  C157  A    
C51   C99   A    
C11   C173  A    
C136  O36   A    
C14   C172  A    
C87   C184  S    
C88   C183  S    
C7    C75   S    
O45   Zn9   S    
C191  N3    T    
C106  C202  S    
O18   Zn2   S    
O33   Zn11  S    
C117  C213  S    
C107  C115  A    
C26   C98   A    
C12   C175  A    
C7    O31   A    
C132  H20   S    
C41   C110  A    
C86   O18   A    
C150  C152  A    
C51   C59   A    
C43   C112  A    
C144  C158  A    
C63   C191  S    
C47   C55   A    
C61   C69   A    
C48   C56   A    
O9    Zn6   S    
C142  C160  A    
C12   C168  A    
C102  C198  S    
C84   C124  A    
C4    O4    A    
O17   Zn1   S    
C64   C192  S    
C81   C97   A    
C104  C200  S    
C31   C39   A    
C64   C72   A    
C209  N21   T    
C180  C185  A    
C34   C130  A    
C109  C205  S    
C47   C95   A    
C118  C126  A    
C13   C148  A    
C89   O21   A    
C122  C130  A    
C153  H4    S    
