data_mof_unit_26545.cif
_audit_creation_date              2013-03-05T16:08:04-0500
_audit_creation_method            fapswitch 2.2
_symmetry_space_group_name_H-M    P1
_symmetry_Int_Tables_number       1
_space_group_crystal_system       triclinic
_cell_length_a                    23.430025
_cell_length_b                    11.567242
_cell_length_c                    10.754796
_cell_angle_alpha                 90.103474
_cell_angle_beta                  89.598166
_cell_angle_gamma                 89.917925
_cell_volume                      2914.69360425

loop_
_atom_site_label
_atom_site_type_symbol
_atom_site_description
_atom_site_fract_x
_atom_site_fract_y
_atom_site_fract_z
_atom_type_partial_charge
O1    O     O_R   0.500000 0.334450 0.602530 -0.611003
O2    O     O_R   0.500000 0.665550 0.397470 -0.614788
O3    O     O_R   0.500000 0.665550 0.602530 -0.616881
O4    O     O_R   0.500000 0.334450 0.397470 -0.623268
C1    C     C_R   0.499943 0.281120 0.499904 0.877652
C2    C     C_R   0.500227 0.718879 0.500093 0.876838
O5    O     O_R   0.416150 0.500000 0.602560 -0.575771
O6    O     O_R   0.583850 0.500000 0.397440 -0.571257
O7    O     O_R   0.583850 0.500000 0.602560 -0.574740
O8    O     O_R   0.416150 0.500000 0.397440 -0.571973
C3    C     C_R   0.388855 0.503563 0.500302 0.980984
C4    C     C_R   0.611290 0.495445 0.499265 0.976022
Zn1   Zn    Zn3+2 0.500000 0.500000 0.636920 1.008971
Zn2   Zn    Zn3+2 0.500000 0.500000 0.363080 1.011655
C5    C     C_R   0.877331 0.590663 0.481428 0.686909
C6    C     C_R   0.123576 0.420755 0.451796 0.686742
C7    C     C_R   0.885250 0.386329 0.454293 0.604226
C8    C     C_R   0.115838 0.622819 0.494441 0.598365
N1    N     N_R   0.853445 0.483549 0.473425 -0.296137
N2    N     N_R   0.147464 0.524773 0.479975 -0.294681
C9    C     C_R   0.944435 0.394700 0.435587 -0.187737
C10   C     C_R   0.056674 0.620345 0.474807 -0.184931
C11   C     C_R   0.936804 0.603830 0.472225 -0.200738
C12   C     C_R   0.064255 0.411423 0.437059 -0.211026
C13   C     C_R   0.970559 0.503946 0.451126 -0.146773
C14   C     C_R   0.030529 0.512221 0.452253 -0.144236
C15   C     C_R   0.978280 0.296947 0.405358 0.475520
C16   C     C_R   0.022875 0.721820 0.480914 0.454434
C17   C     C_R   0.963223 0.713280 0.483801 0.434650
C18   C     C_R   0.037877 0.304730 0.408373 0.455015
O9    O     O_2   0.843154 0.683302 0.499149 -0.514518
O10   O     O_2   0.157574 0.327071 0.440013 -0.512077
O11   O     O_2   0.859511 0.282101 0.457392 -0.556175
O12   O     O_2   0.141737 0.721013 0.531438 -0.552472
C19   C     C_R   0.240164 0.571185 0.389590 0.416361
C20   C     C_R   0.761292 0.455857 0.374093 0.416949
C21   C     C_R   0.234226 0.491456 0.599225 0.403842
C22   C     C_R   0.765910 0.487760 0.598109 0.405098
C23   C     C_R   0.299847 0.571079 0.396753 0.360942
C24   C     C_R   0.701550 0.451058 0.382090 0.358015
C25   C     C_R   0.293602 0.478554 0.601353 0.330474
C26   C     C_R   0.706480 0.499321 0.603895 0.328030
C27   C     C_R   0.326707 0.518461 0.500080 -0.430600
C28   C     C_R   0.673787 0.481056 0.495699 -0.432494
C29   C     C_R   0.207961 0.531340 0.490858 -0.042624
C30   C     C_R   0.792868 0.473645 0.482426 -0.043934
C31   C     C_1   0.499925 0.161035 0.499731 -0.190102
C32   C     C_1   0.500092 0.838967 0.500206 -0.191584
C33   C     C_1   0.499928 0.059145 0.499809 -0.003344
C34   C     C_1   0.499985 0.940854 0.500051 -0.002845
N3    N     N_1   0.500000 0.500000 0.180630 -0.064639
N4    N     N_1   0.500000 0.500000 0.819370 -0.068540
C35   C     C_1   0.500011 0.499997 0.069699 0.067985
C36   C     C_1   0.500010 0.499998 0.930304 0.061512
O13   O     O_3   0.954163 0.190793 0.378140 -0.540104
C37   C     C_3   0.937167 0.190564 0.252300 -0.284536
H1    H     H_    0.897821 0.242211 0.239664 0.182699
H2    H     H_    0.927603 0.100360 0.224206 0.170437
H3    H     H_    0.970809 0.224003 0.188297 0.121147
O14   O     O_3   0.047144 0.830356 0.491639 -0.520152
C38   C     C_3   0.065030 0.867296 0.372373 -0.197060
H4    H     H_    0.102305 0.816908 0.338556 0.154412
H5    H     H_    0.078316 0.958962 0.378775 0.229140
H6    H     H_    0.030437 0.861490 0.302353 0.089409
O15   O     O_3   0.931436 0.810959 0.512561 -0.533552
C39   C     C_3   0.917956 0.871611 0.402676 -0.117963
H7    H     H_    0.915412 0.815891 0.318054 0.095301
H8    H     H_    0.949157 0.942222 0.387808 0.198480
H9    H     H_    0.875540 0.912875 0.415371 0.208065
O16   O     O_3   0.069642 0.204404 0.394426 -0.537027
C40   C     C_3   0.086508 0.191134 0.268707 -0.226789
H10   H     H_    0.090512 0.274095 0.216516 0.137875
H11   H     H_    0.056516 0.132459 0.220469 0.145278
H12   H     H_    0.129019 0.148800 0.266169 0.200583
O17   O     O_3   0.212722 0.592975 0.278269 -0.572789
C41   C     C_3   0.212266 0.712538 0.252815 -0.256854
H13   H     H_    0.249646 0.735719 0.194216 0.201129
H14   H     H_    0.210593 0.767802 0.337783 0.162848
H15   H     H_    0.173699 0.732254 0.197528 0.160991
O18   O     O_3   0.789180 0.463389 0.260115 -0.569836
C42   C     C_3   0.788480 0.356277 0.197349 -0.238292
H16   H     H_    0.750499 0.350397 0.136758 0.205288
H17   H     H_    0.790794 0.280483 0.260884 0.158944
H18   H     H_    0.826262 0.352402 0.134818 0.154223
O19   O     O_3   0.201150 0.450910 0.696665 -0.571318
C43   C     C_3   0.197474 0.538218 0.787945 -0.214544
H19   H     H_    0.177218 0.617842 0.750511 0.175449
H20   H     H_    0.240118 0.558698 0.827163 0.190526
H21   H     H_    0.170165 0.506638 0.865363 0.190061
O20   O     O_3   0.798333 0.505178 0.703347 -0.564180
C44   C     C_3   0.803177 0.398970 0.766404 -0.235582
H22   H     H_    0.824956 0.332789 0.707595 0.175527
H23   H     H_    0.760745 0.366785 0.797974 0.179743
H24   H     H_    0.829603 0.412335 0.850388 0.184228
O21   O     O_3   0.331288 0.614070 0.297737 -0.545723
C45   C     C_3   0.351934 0.724869 0.329983 -0.258684
H25   H     H_    0.374296 0.761980 0.248082 0.190142
H26   H     H_    0.383065 0.720791 0.407133 0.149239
H27   H     H_    0.316790 0.785027 0.356293 0.124921
O22   O     O_3   0.670841 0.426829 0.275748 -0.547591
C46   C     C_3   0.652494 0.310430 0.280955 -0.262499
H28   H     H_    0.630124 0.289574 0.193188 0.188375
H29   H     H_    0.621976 0.295366 0.358764 0.159197
H30   H     H_    0.688945 0.249423 0.289790 0.124380
O23   O     O_3   0.319015 0.428363 0.703708 -0.564850
C47   C     C_3   0.320739 0.307636 0.685354 -0.167485
H31   H     H_    0.346145 0.284332 0.601066 0.123193
H32   H     H_    0.277029 0.270629 0.679181 0.193342
H33   H     H_    0.341920 0.267481 0.766489 0.175268
O24   O     O_3   0.680620 0.524936 0.716669 -0.565890
C48   C     C_3   0.680654 0.646008 0.732795 -0.148536
H34   H     H_    0.657470 0.690380 0.656403 0.127149
H35   H     H_    0.724848 0.680315 0.739974 0.195410
H36   H     H_    0.658098 0.666794 0.821085 0.174132

loop_
_geom_bond_atom_site_label_1
_geom_bond_atom_site_label_2
_geom_bond_distance
_ccdc_geom_bond_type
C39   H8    1.107998 S    
O13   C37   1.413423 S    
C46   H28   1.109220 S    
O21   C45   1.413999 S    
C41   H15   1.108865 S    
O3    C2    1.263588 A    
C42   H16   1.108741 S    
N1    C30   1.426724 S    
C31   C33   1.178582 T    
C35   C36   1.499166 S    
O5    C3    1.276765 A    
C1    C31   1.389047 S    
C19   O17   1.386258 S    
C2    C32   1.389079 S    
O1    C1    1.263454 A    
C11   C17   1.415706 A    
C21   O19   1.382088 S    
C16   C17   1.401425 A    
C41   H14   1.114700 S    
C22   C26   1.399606 A    
C43   H20   1.112898 S    
C39   H9    1.109336 S    
C47   H31   1.113479 S    
C45   H27   1.112082 S    
C37   H1    1.107120 S    
C38   H5    1.107663 S    
O7    Zn1   1.996511 S    
O24   C48   1.410858 S    
C42   H17   1.114015 S    
C5    N1    1.363115 A    
C48   H34   1.113768 S    
C45   H26   1.109620 S    
C20   C30   1.399562 A    
O16   C40   1.414011 S    
N2    C29   1.425213 S    
O3    Zn1   1.951003 S    
C6    N2    1.362270 A    
C32   C34   1.178562 T    
C39   H7    1.116242 S    
C9    C15   1.416165 A    
C6    C12   1.404300 A    
C10   C16   1.416164 A    
C15   C18   1.399986 A    
C21   C25   1.399316 A    
C25   C27   1.411383 A    
O2    C2    1.263459 A    
C26   C28   1.413338 A    
C18   O16   1.385100 S    
N4    C36   1.193070 T    
C16   O14   1.383924 S    
C20   C24   1.402967 A    
C41   H13   1.108896 S    
C48   H35   1.112577 S    
O8    Zn2   1.996513 S    
C44   H22   1.113138 S    
C40   H11   1.108510 S    
C43   H19   1.112843 S    
O4    C1    1.263577 A    
C23   C27   1.418645 A    
C13   C14   1.408610 A    
O19   C43   1.409275 S    
C7    C9    1.403341 A    
O14   C38   1.413656 S    
N3    C35   1.193043 T    
C38   H6    1.112235 S    
C19   C23   1.401045 A    
O17   C41   1.410367 S    
C44   H23   1.113133 S    
Zn1   N4    1.962211 S    
Zn2   N3    1.962213 S    
C24   C28   1.422369 A    
O6    C4    1.274893 A    
C45   H25   1.109128 S    
C7    O11   1.349184 S    
C3    C27   1.466054 S    
C8    O12   1.349215 S    
C23   O21   1.384171 S    
C25   O23   1.383420 S    
C17   O15   1.385653 S    
C33   C34   1.368307 S    
C46   H30   1.111780 S    
C20   O18   1.387973 S    
O1    Zn1   1.949693 S    
C21   C29   1.400365 A    
C19   C29   1.399699 A    
C42   H18   1.108757 S    
C9    C13   1.415049 A    
O6    Zn2   2.001605 S    
C8    C10   1.403980 A    
C12   C14   1.416123 A    
O18   C42   1.410044 S    
C43   H21   1.109231 S    
C24   O22   1.383914 S    
C40   H12   1.109423 S    
C5    O9    1.349250 S    
C6    O10   1.349274 S    
O23   C47   1.410488 S    
C22   O20   1.382150 S    
C15   O13   1.384101 S    
C37   H3    1.113078 S    
C26   O24   1.383410 S    
C40   H10   1.116341 S    
C4    C28   1.473718 S    
C44   H24   1.109370 S    
O20   C44   1.409179 S    
C47   H32   1.112923 S    
C5    C11   1.404790 A    
O22   C46   1.415050 S    
C7    N1    1.362686 A    
C37   H2    1.109368 S    
C48   H36   1.109285 S    
C8    N2    1.361945 A    
C11   C13   1.416268 A    
O4    Zn2   1.951004 S    
C38   H4    1.108167 S    
O2    Zn2   1.949691 S    
O7    C4    1.280601 A    
C12   C18   1.415541 A    
C22   C30   1.400517 A    
O8    C3    1.274498 A    
O5    Zn1   2.001607 S    
C46   H29   1.111044 S    
O15   C39   1.412862 S    
C10   C14   1.414760 A    
C47   H33   1.109195 S    
