data_mof_unit_68157.cif
_audit_creation_date              2012-12-11T16:25:33-0500
_audit_creation_method            fapswitch 2.2
_symmetry_space_group_name_H-M    P1
_symmetry_Int_Tables_number       1
_space_group_crystal_system       triclinic
_cell_length_a                    20.322677
_cell_length_b                    7.376649
_cell_length_c                    13.712202
_cell_angle_alpha                 89.998235
_cell_angle_beta                  103.077646
_cell_angle_gamma                 90.006026
_cell_volume                      2002.32638341

loop_
_atom_site_label
_atom_site_type_symbol
_atom_type_description
_atom_site_fract_x
_atom_site_fract_y
_atom_site_fract_z
_atom_type_partial_charge
O1    O     O_R   0.449520 0.506760 0.599710 -0.546262
O2    O     O_R   0.550480 0.006760 0.400290 -0.546395
O3    O     O_R   0.587930 0.180200 0.595790 -0.539746
O4    O     O_R   0.412070 0.680200 0.404210 -0.539639
C1    C     C_R   0.615424 0.341747 0.616866 0.645497
C2    C     C_R   0.384570 0.841740 0.383153 0.645397
O5    O     O_R   0.452350 0.177380 0.611700 -0.513756
O6    O     O_R   0.547650 0.677380 0.388300 -0.513317
O7    O     O_R   0.413930 0.001760 0.416320 -0.518867
O8    O     O_R   0.586070 0.501760 0.583680 -0.518846
C3    C     C_R   0.434288 0.344971 0.634226 0.696679
C4    C     C_R   0.565710 0.844978 0.365769 0.696852
O9    O     O_3   0.487550 0.337460 0.435880 -0.365489
O10   O     O_3   0.512450 0.837460 0.564120 -0.365664
V1    V     V_3+5 0.502310 0.064670 0.511900 1.586500
V2    V     V_3+5 0.497690 0.564670 0.488100 1.587219
C5    C     C_R   0.599664 0.765223 0.110553 -0.017585
C6    C     C_R   0.400328 0.265753 0.889465 -0.016761
C7    C     C_R   0.599777 0.846180 0.281744 -0.101165
C8    C     C_R   0.400207 0.346214 0.718230 -0.101096
C9    C     C_R   0.916370 0.951888 0.300504 0.104663
C10   C     C_R   0.083621 0.451903 0.699494 0.104644
C11   C     C_R   0.882158 0.939880 0.376133 -0.111529
C12   C     C_R   0.117828 0.439908 0.623860 -0.111553
C13   C     C_R   0.815630 0.883248 0.357478 0.157178
C14   C     C_R   0.184359 0.383335 0.642514 0.157161
C15   C     C_R   0.778838 0.853784 0.256178 0.060804
C16   C     C_R   0.221156 0.353934 0.743815 0.060843
C17   C     C_R   0.816236 0.843615 0.178615 0.055882
C18   C     C_R   0.183763 0.343731 0.821386 0.055842
C19   C     C_R   0.706716 0.839647 0.229662 0.120904
C20   C     C_R   0.293276 0.339874 0.770325 0.120695
C21   C     C_R   0.672314 0.781163 0.131723 0.040544
C22   C     C_R   0.327683 0.281513 0.868283 0.040505
C23   C     C_R   0.711195 0.750486 0.058918 -0.054793
C24   C     C_R   0.288818 0.250743 0.941079 -0.054551
C25   C     C_R   0.779621 0.807382 0.078250 -0.012027
C26   C     C_R   0.220385 0.307511 0.921753 -0.011918
C27   C     C_R   0.666829 0.898519 0.295770 -0.085332
C28   C     C_R   0.333170 0.398689 0.704203 -0.085267
C29   C     C_R   0.568017 0.767067 0.191417 -0.019750
C30   C     C_R   0.431930 0.267101 0.808569 -0.019035
C31   C     C_R   0.888169 0.878627 0.205213 -0.068351
C32   C     C_R   0.111829 0.378674 0.794789 -0.068359
H1    H     H_    0.686928 0.984059 0.358735 0.130848
H2    H     H_    0.313082 0.484194 0.641220 0.130843
H3    H     H_    0.907740 0.979611 0.451156 0.168402
H4    H     H_    0.092242 0.479606 0.548834 0.168417
H5    H     H_    0.091383 0.788532 0.467699 0.154843
H6    H     H_    0.908604 0.288453 0.532331 0.154833
C33   C     C_R   0.236736 0.803416 0.043946 -0.109925
C34   C     C_R   0.763279 0.303287 0.956097 -0.109853
C35   C     C_R   0.292664 0.726240 0.014987 0.292438
C36   C     C_R   0.707348 0.226129 0.985078 0.292566
C37   C     C_R   0.341311 0.638450 0.085185 -0.155342
C38   C     C_R   0.658637 0.138542 0.914880 -0.154669
C39   C     C_R   0.341222 0.646562 0.186117 0.116506
C40   C     C_R   0.658718 0.146641 0.813949 0.115587
C41   C     C_R   0.299590 0.773566 0.219057 0.055835
C42   C     C_R   0.700395 0.273527 0.780983 0.056435
C43   C     C_R   0.238294 0.818278 0.149539 -0.052804
C44   C     C_R   0.761704 0.318193 0.850497 -0.052842
C45   C     C_R   0.312055 0.833632 0.320791 -0.116363
C46   C     C_R   0.687936 0.333624 0.679245 -0.116402
C47   C     C_R   0.253358 0.850962 0.362315 -0.003861
C48   C     C_R   0.746633 0.350925 0.637716 -0.003960
C49   C     C_R   0.187834 0.831077 0.295224 0.108911
C50   C     C_R   0.812156 0.331021 0.704804 0.108894
C51   C     C_R   0.180528 0.848523 0.189131 -0.074549
C52   C     C_R   0.819466 0.348472 0.810894 -0.074663
C53   C     C_R   0.255747 0.868570 0.467805 -0.075790
C54   C     C_R   0.744247 0.368529 0.532225 -0.075818
C55   C     C_R   0.194983 0.864368 0.501474 0.263133
C56   C     C_R   0.805012 0.364315 0.498558 0.263147
C57   C     C_R   0.135175 0.816049 0.437205 -0.175361
C58   C     C_R   0.864814 0.315978 0.562825 -0.175356
C59   C     C_R   0.132180 0.784479 0.336948 -0.073101
C60   C     C_R   0.867805 0.284407 0.663079 -0.073103
H7    H     H_    0.378208 0.560394 0.059634 0.146852
H8    H     H_    0.621682 0.060666 0.940428 0.146565
O11   O     O_R   0.913760 0.203480 0.916370 -0.505534
O12   O     O_R   0.086240 0.703480 0.083630 -0.505506
O13   O     O_R   0.047590 0.535230 0.888250 -0.499910
O14   O     O_R   0.952410 0.035230 0.111750 -0.499888
C61   C     C_R   0.066486 0.370855 0.865742 0.704871
C62   C     C_R   0.933518 0.870841 0.134265 0.704863
O15   O     O_R   0.912020 0.532880 0.904260 -0.532038
O16   O     O_R   0.087980 0.032880 0.095740 -0.532057
O17   O     O_R   0.949590 0.708460 0.099750 -0.548587
O18   O     O_R   0.050410 0.208460 0.900250 -0.548592
C63   C     C_R   0.887766 0.363450 0.879603 0.634990
C64   C     C_R   0.112231 0.863462 0.120405 0.634989
O19   O     O_3   0.012370 0.375360 0.064120 -0.344495
O20   O     O_3   0.987630 0.875360 0.935880 -0.344503
V3    V     V_3+5 0.997700 0.648160 0.988110 1.663274
V4    V     V_3+5 0.002300 0.148160 0.011890 1.663255
C65   C     C_2   0.501529 0.685566 0.183388 0.546421
H9    H     H_    0.460842 0.768408 0.197536 0.010514
O21   O     O_2   0.494586 0.523065 0.169705 -0.510399
C66   C     C_2   0.498275 0.184794 0.816582 0.546907
H10   H     H_    0.538956 0.266735 0.801658 0.010291
O22   O     O_2   0.505076 0.022491 0.831125 -0.510975
C67   C     C_2   0.180876 0.870625 0.963148 0.450615
H11   H     H_    0.156627 0.997639 0.970700 0.056421
O23   O     O_2   0.161046 0.782861 0.886737 -0.489062
C68   C     C_2   0.819146 0.370522 0.036882 0.450617
H12   H     H_    0.843388 0.497560 0.029322 0.056411
O24   O     O_2   0.838984 0.282769 0.113294 -0.489059
I1    I     I_    0.314688 0.757669 0.871932 -0.250736
I2    I     I_    0.685349 0.257541 0.128142 -0.251075
I3    I     I_    0.361848 0.392988 0.259777 -0.299720
I4    I     I_    0.637933 0.893085 0.740349 -0.300111
C69   C     C_2   0.319126 0.874177 0.545790 0.462426
H13   H     H_    0.355923 0.766656 0.551125 0.041146
O25   O     O_2   0.329609 0.995750 0.607579 -0.490275
C70   C     C_2   0.680871 0.374137 0.454236 0.462459
H14   H     H_    0.644071 0.266601 0.448891 0.041207
O26   O     O_2   0.670395 0.495726 0.392456 -0.490181
I5    I     I_    0.187062 0.896203 0.651781 -0.288963
I6    I     I_    0.812945 0.396163 0.348259 -0.288984
C71   C     C_2   0.077489 0.661187 0.288014 0.457008
H15   H     H_    0.026073 0.684928 0.294710 0.034430
O27   O     O_2   0.090861 0.520875 0.249510 -0.466638
C72   C     C_2   0.922483 0.161104 0.712012 0.457085
H16   H     H_    0.973902 0.184845 0.705322 0.034426
O28   O     O_2   0.909097 0.020788 0.750510 -0.466645
C73   C     C_2   0.684013 0.648429 0.964081 0.294840
H17   H     H_    0.707490 0.655284 0.901384 0.124859
O29   O     O_2   0.637075 0.542475 0.955635 -0.526198
C74   C     C_2   0.316035 0.148563 0.035850 0.294429
H18   H     H_    0.292550 0.155182 0.098547 0.124930
O30   O     O_2   0.363014 0.042777 0.044215 -0.526876
C75   C     C_2   0.554653 0.778005 0.007459 0.565717
H19   H     H_    0.574629 0.808931 0.943606 0.107754
O31   O     O_2   0.493489 0.758452 0.991476 -0.497612
C76   C     C_2   0.445404 0.279332 0.992500 0.564095
H20   H     H_    0.425453 0.308873 0.056548 0.108373
O32   O     O_2   0.506668 0.262470 0.008171 -0.497361
I7    I     I_    0.006647 0.108780 0.336800 -0.333203
I8    I     I_    0.993343 0.608743 0.663200 -0.333263
I9    I     I_    0.785432 0.837506 0.496049 -0.357011
I10   I     I_    0.214554 0.337574 0.503947 -0.357003
I11   I     I_    0.818189 0.864784 0.946573 -0.329608
I12   I     I_    0.181829 0.364765 0.053445 -0.329606

loop_
_geom_bond_atom_site_label_1
_geom_bond_atom_site_label_2
_ccdc_geom_bond_type
C48   C50   A    
C45   C47   A    
O4    V2    S    
C55   I5    S    
O15   C63   A    
C15   C17   A    
C52   C63   S    
C49   C59   A    
O2    C4    A    
C2    O7    A    
O16   V4    S    
C65   H9    S    
C28   H2    S    
C53   C69   S    
C56   C58   A    
C40   I4    S    
C23   C25   A    
C12   C14   A    
C24   C74   S    
C6    C30   A    
C8    C28   A    
C39   C41   A    
C68   H12   S    
C40   C42   A    
C10   I8    S    
O12   C64   A    
C70   H14   S    
C44   C52   A    
C42   C44   A    
O14   V4    S    
C57   C59   A    
C30   C66   S    
C9    C31   A    
C10   C32   A    
O16   C64   A    
C48   C54   A    
C16   C18   A    
C47   C49   A    
O15   V3    S    
H5    C57   S    
C6    C76   S    
C51   C64   S    
C60   C72   S    
C22   C24   A    
C27   H1    S    
O5    V1    S    
C34   C68   S    
O6    V2    S    
C17   C31   A    
C75   O31   D    
C55   C57   A    
C18   C32   A    
C5    C21   A    
C14   C16   A    
C65   O21   D    
C34   C36   A    
O5    C3    A    
C35   C37   A    
C50   C60   A    
C36   C38   A    
C3    C8    S    
C41   C43   A    
C11   H3    S    
C19   C21   A    
C15   C19   A    
C12   H4    S    
C16   C20   A    
C76   O32   D    
C53   C55   A    
O11   V4    S    
C47   C53   A    
C1    C46   S    
C49   C51   A    
C36   I2    S    
C46   C48   A    
C2    C45   S    
O17   V3    S    
C74   O30   D    
C73   O29   D    
H6    C58   S    
C37   H7    S    
O6    C4    A    
O13   V3    S    
C66   O22   D    
C67   O23   D    
O1    V2    S    
C23   C73   S    
O2    V1    S    
C6    C22   A    
C71   H15   S    
C7    C27   A    
C70   O26   D    
C54   C56   A    
O13   C61   A    
O19   V4    S    
C9    C11   A    
C5    C75   S    
C75   H19   S    
C29   C65   S    
O4    C2    A    
C9    I7    S    
C32   C61   S    
O3    V1    S    
C72   O28   D    
C69   H13   S    
C35   I1    S    
O12   V3    S    
C25   I11   S    
C31   C62   S    
C26   I12   S    
C13   I9    S    
C58   C60   A    
C76   H20   S    
O3    C1    A    
C62   O17   A    
C8    C30   A    
C61   O18   A    
O18   V4    S    
C13   C15   A    
C56   I6    S    
C54   C70   S    
C41   C45   A    
C38   H8    S    
C42   C46   A    
C43   C51   A    
C37   C39   A    
C74   H18   S    
O7    V1    S    
C1    O8    A    
O8    V2    S    
C33   C43   A    
C39   I3    S    
C68   O24   D    
C4    C7    S    
C24   C26   A    
C66   H10   S    
C21   C23   A    
C38   C40   A    
C10   C12   A    
C20   C28   A    
O20   V3    S    
C5    C29   A    
C71   O27   D    
C59   C71   S    
O11   C63   A    
C7    C29   A    
C11   C13   A    
C50   C52   A    
O9    V2    S    
C17   C25   A    
C67   H11   S    
C19   C27   A    
O10   V1    S    
O14   C62   A    
C34   C44   A    
O1    C3    A    
C18   C26   A    
C33   C35   A    
C14   I10   S    
C33   C67   S    
C73   H17   S    
C20   C22   A    
C72   H16   S    
C69   O25   D    
