data_mof_unit_42953.cif
_audit_creation_date              2012-12-11T15:15:48-0500
_audit_creation_method            fapswitch 2.2
_symmetry_space_group_name_H-M    P1
_symmetry_Int_Tables_number       1
_space_group_crystal_system       triclinic
_cell_length_a                    20.625281
_cell_length_b                    22.821462
_cell_length_c                    6.930589
_cell_angle_alpha                 90.00033
_cell_angle_beta                  86.940309
_cell_angle_gamma                 89.999496
_cell_volume                      3257.57137469

loop_
_atom_site_label
_atom_site_type_symbol
_atom_type_description
_atom_site_fract_x
_atom_site_fract_y
_atom_site_fract_z
_atom_type_partial_charge
O1    O     O_R   0.387100 0.552640 0.378490 -0.535336
O2    O     O_R   0.612900 0.052640 0.621510 -0.535339
O3    O     O_R   0.249610 0.559600 0.072250 -0.536771
O4    O     O_R   0.750390 0.059600 0.927750 -0.536782
O5    O     O_R   0.249120 0.447360 0.902040 -0.549871
O6    O     O_R   0.750880 0.947360 0.097960 -0.549860
C1    C     C_R   0.226235 0.572720 0.244458 0.728954
C2    C     C_R   0.773765 0.072719 0.755542 0.729000
O7    O     O_R   0.386610 0.559560 0.048860 -0.535913
O8    O     O_R   0.613390 0.059560 0.951140 -0.535911
O9    O     O_R   0.387100 0.447320 0.878470 -0.543151
O10   O     O_R   0.612900 0.947320 0.121530 -0.543143
C3    C     C_R   0.407676 0.574731 0.214273 0.711963
C4    C     C_R   0.592323 0.074731 0.785728 0.711969
O11   O     O_R   0.249120 0.552680 0.402050 -0.540474
O12   O     O_R   0.750880 0.052680 0.597950 -0.540471
O13   O     O_3   0.318110 0.463180 0.223790 -0.371836
O14   O     O_3   0.681890 0.963180 0.776210 -0.371831
V1    V     V_3+5 0.318110 0.506830 0.948930 1.473685
V2    V     V_3+5 0.681890 0.006830 0.051070 1.473698
O15   O     O_R   0.386610 0.440400 0.548840 -0.536876
O16   O     O_R   0.613390 0.940400 0.451160 -0.536879
C5    C     C_R   0.407062 0.424403 0.715103 0.782703
C6    C     C_R   0.592939 0.924403 0.284895 0.782693
O17   O     O_R   0.249610 0.440440 0.572240 -0.517822
O18   O     O_R   0.750390 0.940440 0.427760 -0.517825
C7    C     C_R   0.226347 0.426960 0.744239 0.699943
C8    C     C_R   0.773653 0.926959 0.255761 0.699895
V3    V     V_3+5 0.318110 0.493170 0.448930 1.497586
V4    V     V_3+5 0.681890 0.993170 0.551070 1.497580
O19   O     O_3   0.318110 0.536820 0.723940 -0.369696
O20   O     O_3   0.681890 0.036820 0.276060 -0.369690
C9    C     C_R   0.173496 0.382621 0.762052 -0.151706
C10   C     C_R   0.826509 0.882623 0.237954 -0.151715
C11   C     C_R   0.156334 0.347932 0.602696 0.468759
C12   C     C_R   0.843674 0.847938 0.397316 0.468731
C13   C     C_R   0.105155 0.307272 0.627474 -0.233172
C14   C     C_R   0.894862 0.807286 0.372552 -0.233146
C15   C     C_R   0.073021 0.298771 0.808844 -0.042329
C16   C     C_R   0.927004 0.798787 0.191190 -0.042288
C17   C     C_R   0.091327 0.332199 0.966183 -0.139299
C18   C     C_R   0.908695 0.832211 0.033844 -0.139344
C19   C     C_R   0.140558 0.373866 0.942814 -0.200085
C20   C     C_R   0.859454 0.873871 0.057200 -0.200094
C21   C     C_R   0.879489 0.201854 0.874933 0.456774
C22   C     C_R   0.120572 0.701912 0.125244 0.456616
C23   C     C_R   0.831550 0.158180 0.885596 -0.309685
C24   C     C_R   0.168504 0.658230 0.114541 -0.309727
C25   C     C_R   0.873206 0.117365 0.579151 0.356142
C26   C     C_R   0.126760 0.617331 0.420763 0.356282
C27   C     C_R   0.920158 0.161892 0.563746 0.321491
C28   C     C_R   0.079826 0.661873 0.436238 0.321604
C29   C     C_R   0.924212 0.203760 0.714382 -0.046859
C30   C     C_R   0.075817 0.703785 0.285719 -0.046830
C31   C     C_2   0.020592 0.254178 0.834989 0.415135
C32   C     C_2   0.979442 0.754200 0.165066 0.415173
C33   C     C_2   0.974745 0.249957 0.704179 -0.147468
C34   C     C_2   0.025276 0.749976 0.295913 -0.147326
C35   C     C_R   0.827346 0.116078 0.739278 -0.261858
C36   C     C_R   0.172660 0.616082 0.260731 -0.261806
H1    H     H_    0.796489 0.157809 0.007747 0.155470
H2    H     H_    0.203594 0.657887 0.992464 0.155369
H3    H     H_    0.976045 0.279127 0.580080 0.088512
H4    H     H_    0.023969 0.779148 0.420007 0.088353
H5    H     H_    0.066780 0.326712 0.107164 0.142848
H6    H     H_    0.933248 0.826729 0.892870 0.142799
H7    H     H_    0.152569 0.399636 0.067097 0.187993
H8    H     H_    0.847441 0.899640 0.932914 0.187987
H9    H     H_    0.090638 0.281879 0.505175 0.105595
H10   H     H_    0.909379 0.781896 0.494856 0.105595
C37   C     C_R   0.575133 0.361765 0.742936 -0.259760
C38   C     C_R   0.424870 0.861766 0.257001 -0.259764
H11   H     H_    0.666821 0.280394 0.735857 0.124178
H12   H     H_    0.333181 0.780399 0.264036 0.124178
H13   H     H_    0.624389 0.378440 0.741318 0.127180
H14   H     H_    0.375615 0.878443 0.258588 0.127176
C39   C     C_R   0.459670 0.379948 0.721635 -0.182801
C40   C     C_R   0.540331 0.879949 0.278358 -0.182798
C41   C     C_R   0.475442 0.094046 0.824747 -0.223416
C42   C     C_R   0.524559 0.594042 0.175302 -0.223411
C43   C     C_R   0.423356 0.131156 0.868339 -0.119581
C44   C     C_R   0.576648 0.631150 0.131735 -0.119576
C45   C     C_R   0.431839 0.191800 0.871352 0.422648
C46   C     C_R   0.568168 0.691795 0.128707 0.422650
C47   C     C_R   0.491789 0.216935 0.799964 0.010281
C48   C     C_R   0.508214 0.716933 0.200051 0.010276
C49   C     C_R   0.546600 0.178570 0.776929 0.015231
C50   C     C_R   0.453401 0.678571 0.223058 0.015235
C51   C     C_R   0.500318 0.278771 0.764668 -0.006221
C52   C     C_R   0.499684 0.778771 0.235330 -0.006219
C53   C     C_R   0.564381 0.301340 0.753702 0.049717
C54   C     C_R   0.435622 0.801342 0.246253 0.049722
C55   C     C_R   0.617744 0.263289 0.748633 -0.140199
C56   C     C_R   0.382258 0.763293 0.251295 -0.140206
C57   C     C_R   0.608998 0.202856 0.751306 -0.166657
C58   C     C_R   0.391002 0.702859 0.248637 -0.166664
C59   C     C_R   0.447890 0.317819 0.728635 0.321486
C60   C     C_R   0.552110 0.817818 0.271383 0.321486
C61   C     C_R   0.523249 0.401222 0.734814 0.306049
C62   C     C_R   0.476753 0.901223 0.265139 0.306053
C63   C     C_R   0.537765 0.116779 0.788887 -0.083902
C64   C     C_R   0.462235 0.616779 0.211120 -0.083902
H15   H     H_    0.467964 0.047093 0.834158 0.147364
H16   H     H_    0.532037 0.547089 0.165908 0.147363
H17   H     H_    0.376987 0.112388 0.915892 0.146952
H18   H     H_    0.623020 0.612379 0.084214 0.146963
H19   H     H_    0.651754 0.175281 0.738937 0.098555
H20   H     H_    0.348245 0.675285 0.260982 0.098549
O21   O     O_3   0.186750 0.357205 0.421649 -0.557980
C65   C     C_3   0.212393 0.304346 0.343836 -0.248623
H21   H     H_    0.174289 0.279050 0.273113 0.138197
H22   H     H_    0.235522 0.276882 0.453846 0.137492
H23   H     H_    0.250527 0.315262 0.230540 0.173024
O22   O     O_3   0.813250 0.857208 0.578356 -0.557982
C66   C     C_3   0.787624 0.804346 0.656179 -0.248614
H24   H     H_    0.825734 0.779064 0.726928 0.138221
H25   H     H_    0.764510 0.776870 0.546170 0.137485
H26   H     H_    0.749480 0.815256 0.769456 0.173025
O23   O     O_3   0.962665 0.160845 0.402260 -0.583887
H27   H     H_    0.996407 0.191276 0.411511 0.297671
O24   O     O_3   0.037293 0.660792 0.597659 -0.583925
H28   H     H_    0.003679 0.691350 0.588746 0.297703
O25   O     O_3   0.533771 0.461080 0.731906 -0.645032
H29   H     H_    0.580720 0.468907 0.743046 0.290488
O26   O     O_3   0.466231 0.961082 0.268023 -0.645034
H30   H     H_    0.419284 0.968909 0.256853 0.290480
O27   O     O_3   0.392331 0.292704 0.657709 -0.539858
C67   C     C_3   0.334071 0.315628 0.742123 -0.178290
H31   H     H_    0.313878 0.347044 0.640388 0.133064
H32   H     H_    0.339089 0.335428 0.887489 0.100386
H33   H     H_    0.298315 0.279487 0.760333 0.175118
O28   O     O_3   0.607664 0.792705 0.342348 -0.539856
C68   C     C_3   0.665929 0.815626 0.257959 -0.178268
H34   H     H_    0.686118 0.847043 0.359700 0.133093
H35   H     H_    0.660920 0.835423 0.112587 0.100360
H36   H     H_    0.701685 0.779483 0.239773 0.175129
O29   O     O_3   0.384148 0.223506 0.970897 -0.640193
H37   H     H_    0.405020 0.257393 0.032047 0.284510
O30   O     O_3   0.615867 0.723496 0.029189 -0.640188
H38   H     H_    0.595001 0.757382 0.968011 0.284510
O31   O     O_3   0.875139 0.075041 0.436636 -0.600532
H39   H     H_    0.861918 0.037134 0.496040 0.290290
O32   O     O_3   0.124780 0.574957 0.563126 -0.600507
H40   H     H_    0.138051 0.537074 0.503650 0.290282
O33   O     O_3   0.882587 0.244037 0.017342 -0.611127
H41   H     H_    0.848520 0.236127 0.120478 0.292581
O34   O     O_3   0.117509 0.744132 0.982945 -0.611234
H42   H     H_    0.151600 0.736247 0.879857 0.292495
O35   O     O_3   0.019093 0.215835 0.989820 -0.600545
H43   H     H_    0.059015 0.221618 0.060999 0.282904
O36   O     O_3   0.980965 0.715865 0.010214 -0.600622
H44   H     H_    0.941054 0.721650 0.938982 0.282895

loop_
_geom_bond_atom_site_label_1
_geom_bond_atom_site_label_2
_ccdc_geom_bond_type
V4    O20   S    
C50   C58   A    
C13   H9    S    
O13   V3    S    
H12   C56   S    
O34   H42   S    
O10   V2    S    
H11   C55   S    
C38   H14   S    
V1    O19   S    
C67   H31   S    
C14   H10   S    
O22   C66   S    
O25   H29   S    
C15   C17   A    
C7    C9    S    
O9    V1    S    
C27   O23   S    
C42   H16   S    
C21   O33   S    
C11   C13   A    
C46   C48   A    
O3    C1    A    
C2    C35   S    
C30   C34   S    
C38   C54   A    
C48   C50   A    
O12   V4    S    
C66   H24   S    
O7    C3    A    
C65   H21   S    
O13   V1    S    
C49   C63   A    
C24   H2    S    
O7    V1    S    
C15   C31   S    
C31   O35   S    
O8    V2    S    
O28   C68   S    
C66   H25   S    
C49   C57   A    
C40   C60   A    
C68   H36   S    
C26   C28   A    
O36   H44   S    
O3    V1    S    
O14   V4    S    
C51   C53   A    
C10   C12   A    
C11   O21   S    
O4    C2    A    
C24   C36   A    
C47   C49   A    
C58   H20   S    
C12   O22   S    
C55   C57   A    
O5    C7    A    
C34   H4    S    
C17   C19   A    
C41   H15   S    
O31   H39   S    
C18   C20   A    
O1    V3    S    
C43   C45   A    
C28   C30   A    
O11   V3    S    
C43   H17   S    
C21   C23   A    
O17   V3    S    
C13   C15   A    
C22   C24   A    
C37   H13   S    
C23   C35   A    
C62   O26   S    
C9    C19   A    
C10   C20   A    
C46   O30   S    
C42   C44   A    
C48   C52   A    
C41   C43   A    
C29   C33   S    
C4    C63   S    
C17   H5    S    
C1    O11   A    
C25   C27   A    
O15   V3    S    
C51   C59   A    
C27   C29   A    
C19   H7    S    
C23   H1    S    
C53   C55   A    
C28   O24   S    
C52   C54   A    
C22   O34   S    
O23   H27   S    
C66   H26   S    
C22   C30   A    
C54   C56   A    
C16   C32   S    
C5    C39   S    
C32   O36   S    
C56   C58   A    
C65   H23   S    
O24   H28   S    
C57   H19   S    
C6    C40   S    
C45   C47   A    
O18   V4    S    
C44   C46   A    
C31   C33   D    
C40   C62   A    
C68   H34   S    
O16   C6    A    
C20   H8    S    
O1    C3    A    
C60   O28   S    
O27   C67   S    
C67   H33   S    
C1    C36   S    
C45   O29   S    
C26   O32   S    
C61   O25   S    
V2    O20   S    
C59   O27   S    
C47   C51   A    
O16   V4    S    
C8    C10   S    
O33   H41   S    
C33   H3    S    
C16   C18   A    
C67   H32   S    
C38   C62   A    
C50   C64   A    
O30   H38   S    
O5    V1    S    
C25   O31   S    
O17   C7    A    
O6    V2    S    
O29   H37   S    
O10   C6    A    
O18   C8    A    
C25   C35   A    
O2    V4    S    
C26   C36   A    
O15   C5    A    
V3    O19   S    
O21   C65   S    
C12   C14   A    
C14   C16   A    
O26   H30   S    
C37   C61   A    
O9    C5    A    
C9    C11   A    
C32   C34   D    
C39   C61   A    
O14   V2    S    
C44   H18   S    
O2    C4    A    
C65   H22   S    
C21   C29   A    
O4    V2    S    
O6    C8    A    
C37   C53   A    
C2    O12   A    
C42   C64   A    
C18   H6    S    
C68   H35   S    
C41   C63   A    
C39   C59   A    
C3    C64   S    
O35   H43   S    
C52   C60   A    
O32   H40   S    
O8    C4    A    
