data_mof_unit_64861.cif
_audit_creation_date              2012-12-10T17:20:53-0500
_audit_creation_method            fapswitch 2.2
_symmetry_space_group_name_H-M    P1
_symmetry_Int_Tables_number       1
_space_group_crystal_system       triclinic
_cell_length_a                    14.318505
_cell_length_b                    10.800471
_cell_length_c                    9.651011
_cell_angle_alpha                 89.371228
_cell_angle_beta                  90.222749
_cell_angle_gamma                 92.901361
_cell_volume                      1490.48481699

loop_
_atom_site_label
_atom_site_type_symbol
_atom_type_description
_atom_site_fract_x
_atom_site_fract_y
_atom_site_fract_z
_atom_type_partial_charge
C1    C     C_R   0.509669 0.263033 0.501482 0.849934
C2    C     C_1   0.770985 0.498810 0.500911 -0.139089
C3    C     C_R   0.513984 0.105981 0.765181 0.220502
C4    C     C_R   0.462432 0.052148 0.874761 -0.102740
C5    C     C_R   0.407613 0.943713 0.854132 -0.126594
C6    C     C_R   0.413092 0.881584 0.729171 -0.113367
C7    C     C_R   0.464717 0.935655 0.617899 0.035283
C8    C     C_R   0.500932 0.058640 0.629476 -0.001138
C9    C     C_R   0.520604 0.127745 0.505758 -0.226557
C10   C     C_R   0.527224 0.064827 0.379269 0.253721
C11   C     C_R   0.498782 0.939852 0.371695 0.262539
C12   C     C_R   0.331306 0.499493 0.499849 0.796206
C13   C     C_R   0.478443 0.871676 0.494204 -0.219174
C14   C     C_R   0.663794 0.587291 0.137872 0.232555
C15   C     C_R   0.745707 0.565917 0.066129 -0.219971
C16   C     C_R   0.743571 0.571167 0.922788 -0.215119
C17   C     C_R   0.659376 0.595753 0.858230 0.230305
C18   C     C_R   0.575069 0.555927 0.925136 0.137633
C19   C     C_R   0.576042 0.554607 0.074099 0.132379
C20   C     C_R   0.430729 0.440335 0.071915 0.265342
C21   C     C_R   0.430200 0.443385 0.925197 -0.070701
C22   C     C_R   0.489583 0.736614 0.498435 0.856763
C23   C     C_R   0.668630 0.499156 0.500312 0.837864
C24   C     C_1   0.228912 0.499466 0.499529 -0.153229
C25   C     C_1   0.143410 0.499374 0.499649 0.018394
C26   C     C_1   0.042677 0.499220 0.500070 0.030025
C27   C     C_1   0.957171 0.499064 0.500493 0.030159
C28   C     C_1   0.856459 0.498873 0.500885 0.020487
Cu1   Cu    Cu3+1 0.499990 0.499990 0.640660 0.978270
Cu2   Cu    Cu3+1 0.500010 0.500010 0.359340 1.040959
H1    H     H_    0.809003 0.587977 0.868147 0.181153
H2    H     H_    0.374365 0.394277 0.869452 0.157222
H3    H     H_    0.467569 0.091690 0.976967 0.217007
H4    H     H_    0.365487 0.903368 0.937359 0.194139
H5    H     H_    0.374054 0.793714 0.718319 0.150333
H6    H     H_    0.813000 0.577690 0.117310 0.181914
N1    N     N_R   0.500820 0.501210 0.147910 -0.188073
N2    N     N_R   0.500850 0.501290 0.852040 -0.194927
O1    O     O_R   0.499990 0.319640 0.618810 -0.573765
O2    O     O_R   0.500000 0.319660 0.381240 -0.518181
O3    O     O_R   0.376050 0.499990 0.618810 -0.581781
O4    O     O_R   0.376060 0.500010 0.381240 -0.533093
O5    O     O_R   0.500000 0.680340 0.618760 -0.563947
O6    O     O_R   0.500010 0.680360 0.381190 -0.518657
O7    O     O_R   0.623940 0.499990 0.618760 -0.555469
O8    O     O_R   0.623950 0.500010 0.381190 -0.558656
Br1   Br    Br    0.587992 0.142198 0.219414 -0.412243
I1    I     I_    0.675008 0.770729 0.756382 -0.261133
I2    I     I_    0.634324 0.219052 0.821748 -0.238313
Br2   Br    Br    0.468674 0.873342 0.191164 -0.478164
I3    I     I_    0.326042 0.317733 0.159693 -0.315943
I4    I     I_    0.690785 0.749573 0.258028 -0.231064

loop_
_geom_bond_atom_site_label_1
_geom_bond_atom_site_label_2
_ccdc_geom_bond_type
Cu1   N2    S    
C12   O4    A    
C12   O3    A    
C23   O7    A    
C20   I3    S    
C9    C10   A    
C12   C24   S    
C22   O5    A    
C17   I1    S    
C5    H4    S    
Cu1   O1    S    
C17   C18   A    
C3    I2    S    
Cu2   O2    S    
C7    C8    A    
C11   Br2   S    
Cu1   O5    S    
C16   H1    S    
C20   N1    A    
C11   C13   A    
Cu2   O6    S    
C26   C27   T    
Cu1   Cu2   S    
C4    C5    A    
C13   C22   S    
C3    C8    A    
C6    C7    A    
C18   N2    A    
C5    C6    A    
C21   H2    S    
C22   O6    A    
C10   Br1   S    
C16   C17   A    
C10   C11   A    
C1    O1    A    
C3    C4    A    
C15   H6    S    
C7    C13   A    
C1    C9    S    
C24   C25   T    
C20   C21   A    
C18   C19   A    
C6    H5    S    
C2    C23   S    
C23   O8    A    
C4    H3    S    
Cu2   O4    S    
C2    C28   T    
C19   N1    A    
C1    O2    A    
Cu1   O3    S    
C25   C26   S    
C14   C15   A    
C14   C19   A    
Cu2   O8    S    
C14   I4    S    
C21   N2    A    
C15   C16   A    
Cu2   N1    S    
Cu1   O7    S    
C8    C9    A    
C27   C28   S    
