data_mof_unit_64871.cif
_audit_creation_date              2013-03-05T16:07:23-0500
_audit_creation_method            fapswitch 2.2
_symmetry_space_group_name_H-M    P1
_symmetry_Int_Tables_number       1
_space_group_crystal_system       triclinic
_cell_length_a                    15.824607
_cell_length_b                    11.572678
_cell_length_c                    10.783758
_cell_angle_alpha                 89.996995
_cell_angle_beta                  89.933746
_cell_angle_gamma                 90.004466
_cell_volume                      1974.86150133

loop_
_atom_site_label
_atom_site_type_symbol
_atom_site_description
_atom_site_fract_x
_atom_site_fract_y
_atom_site_fract_z
_atom_type_partial_charge
O1    O     O_R   0.500000 0.334450 0.602530 -0.607028
O2    O     O_R   0.500000 0.334450 0.397470 -0.607109
C1    C     C_R   0.499999 0.281176 0.500002 0.899119
O3    O     O_R   0.377140 0.500000 0.602580 -0.589219
O4    O     O_R   0.377140 0.500000 0.397420 -0.591505
O5    O     O_R   0.622860 0.500000 0.602580 -0.594402
O6    O     O_R   0.622860 0.500000 0.397420 -0.588008
C2    C     C_R   0.337949 0.500004 0.500072 0.889663
C3    C     C_R   0.662060 0.500022 0.499921 0.890785
Zn1   Zn    Zn3+2 0.500000 0.500000 0.636920 1.072099
Zn2   Zn    Zn3+2 0.500000 0.500000 0.363080 1.073476
C4    C     C_1   0.499998 0.059154 0.500002 0.060101
O7    O     O_R   0.500000 0.665550 0.602530 -0.599768
O8    O     O_R   0.500000 0.665550 0.397470 -0.600181
C5    C     C_1   0.499998 0.161049 0.500004 -0.123850
N1    N     N_1   0.500000 0.500010 0.180630 -0.058781
N2    N     N_1   0.500000 0.500010 0.819370 -0.059047
C6    C     C_1   0.500000 0.500013 0.069775 0.131799
C7    C     C_1   0.500000 0.500013 0.930226 0.130952
C8    C     C_R   0.500000 0.718821 0.499998 0.925129
C9    C     C_3   0.050216 0.452019 0.625977 0.529471
C10   C     C_3   0.051613 0.439830 0.381271 0.439308
C11   C     C_3   0.948004 0.457838 0.628712 0.434392
C12   C     C_3   0.950068 0.434107 0.385491 0.498192
C13   C     C_1   0.499998 0.940837 0.499996 0.067583
C14   C     C_1   0.499999 0.838944 0.499995 -0.105550
C15   C     C_1   0.750250 0.504441 0.499636 -0.015309
C16   C     C_1   0.249749 0.504368 0.500221 -0.008249
C17   C     C_3   0.083213 0.513926 0.499326 -0.417049
C18   C     C_3   0.916809 0.514080 0.499283 -0.374115
C19   C     C_3   0.948049 0.647060 0.484550 0.183232
C20   C     C_3   0.051890 0.647529 0.490357 0.192168
C21   C     C_1   0.825107 0.509335 0.499157 0.251700
C22   C     C_1   0.174901 0.509249 0.500094 0.261233
N3    N     N_R   0.089419 0.711610 0.597471 0.258706
O9    O     O_R   0.050654 0.732190 0.701108 -0.219714
O10   O     O_R   0.166932 0.748974 0.588713 -0.276551
N4    N     N_R   0.086205 0.710544 0.381202 0.274545
O11   O     O_R   0.063251 0.817984 0.367451 -0.210646
O12   O     O_R   0.159144 0.683093 0.333796 -0.292981
N5    N     N_R   0.913502 0.726118 0.580727 0.274114
O13   O     O_R   0.840694 0.705968 0.632618 -0.296823
O14   O     O_R   0.936024 0.834358 0.574667 -0.210530
N6    N     N_R   0.910627 0.693385 0.367293 0.260424
O15   O     O_R   0.833333 0.732398 0.369148 -0.273457
O16   O     O_R   0.949092 0.695770 0.261154 -0.214343
O17   O     O_3   0.918262 0.342693 0.641153 -0.651175
H1    H     H_    0.855967 0.339283 0.632877 0.384543
O18   O     O_3   0.924783 0.319646 0.413907 -0.685388
H2    H     H_    0.937466 0.267748 0.343006 0.419585
O19   O     O_3   0.081009 0.336473 0.626233 -0.661489
H3    H     H_    0.042927 0.280540 0.585978 0.448648
O20   O     O_3   0.080208 0.323924 0.388932 -0.697035
H4    H     H_    0.142514 0.320977 0.397248 0.380391
N7    N     N_R   0.089539 0.485001 0.263857 0.257611
O21   O     O_R   0.166596 0.455895 0.234692 -0.309846
O22   O     O_R   0.049957 0.550505 0.185560 -0.193977
N8    N     N_R   0.086696 0.498742 0.742254 0.278306
O23   O     O_R   0.064209 0.448825 0.845527 -0.177279
O24   O     O_R   0.159699 0.550376 0.743304 -0.301225
N9    N     N_R   0.911237 0.459165 0.262446 0.243505
O25   O     O_R   0.934389 0.396457 0.167877 -0.242033
O26   O     O_R   0.838490 0.510654 0.252854 -0.300680
N10   N     N_R   0.910071 0.520540 0.736577 0.254001
O27   O     O_R   0.833527 0.495076 0.771924 -0.304465
O28   O     O_R   0.948713 0.599989 0.799617 -0.205975

loop_
_geom_bond_atom_site_label_1
_geom_bond_atom_site_label_2
_geom_bond_distance
_ccdc_geom_bond_type
O5    Zn1   1.978742 S    
O4    C2    1.268240 A    
O6    Zn2   1.979583 S    
N7    O21   1.303262 A    
C20   N3    1.496148 S    
O6    C3    1.268139 A    
C10   N7    1.494912 S    
C10   C17   1.614805 S    
C20   N4    1.486811 S    
C10   O20   1.418080 S    
Zn2   N1    1.967497 S    
C19   C20   1.644517 S    
C18   C21   1.452191 S    
C4    C5    1.179195 T    
C4    C13   1.369239 S    
O3    C2    1.268137 A    
N10   O27   1.303152 A    
O5    C3    1.268375 A    
C9    C11   1.619095 S    
O2    C1    1.265916 A    
C13   C14   1.179177 T    
C16   C22   1.185801 T    
C9    N8    1.483103 S    
O20   H4    0.990737 S    
C15   C21   1.185943 T    
N4    O12   1.301241 A    
O17   H1    0.990712 S    
N5    O14   1.303926 A    
N9    O25   1.303891 A    
C8    C14   1.390146 S    
N8    O24   1.300649 A    
C12   N9    1.491368 S    
O2    Zn2   1.951402 S    
C11   N10   1.496137 S    
N3    O10   1.303887 A    
N6    O16   1.296033 A    
O4    Zn2   1.978743 S    
C17   C20   1.626600 S    
C12   C18   1.624203 S    
N7    O22   1.296572 A    
C18   C19   1.624081 S    
C2    C16   1.396639 S    
Zn2   O8    1.951439 S    
C10   C12   1.608853 S    
C11   O17   1.419468 S    
C19   N6    1.496226 S    
Zn1   N2    1.967496 S    
O3    Zn1   1.979585 S    
O19   H3    0.985483 S    
C11   C18   1.617692 S    
O8    C8    1.265923 A    
C9    O19   1.423233 S    
N4    O11   1.303868 A    
N6    O15   1.303977 A    
C3    C15   1.396498 S    
N1    C6    1.195439 T    
O18   H2    0.992612 S    
N5    O13   1.301326 A    
C12   O18   1.417118 S    
N9    O26   1.300535 A    
C6    C7    1.504863 S    
C1    C5    1.390200 S    
C19   N5    1.486774 S    
O7    C8    1.265905 A    
N2    C7    1.195440 T    
N8    O23   1.303682 A    
C9    C17   1.627717 S    
C17   C22   1.451972 S    
O1    Zn1   1.951440 S    
N3    O9    1.296357 A    
O1    C1    1.265940 A    
Zn1   O7    1.951401 S    
N10   O28   1.297063 A    
