data_mof_unit_44305.cif
_audit_creation_date              2012-12-10T16:32:42-0500
_audit_creation_method            fapswitch 2.2
_symmetry_space_group_name_H-M    P1
_symmetry_Int_Tables_number       1
_space_group_crystal_system       triclinic
_cell_length_a                    16.944116
_cell_length_b                    16.932572
_cell_length_c                    16.955322
_cell_angle_alpha                 65.511896
_cell_angle_beta                  65.49365
_cell_angle_gamma                 65.528221
_cell_volume                      3851.89352662

loop_
_atom_site_label
_atom_site_type_symbol
_atom_type_description
_atom_site_fract_x
_atom_site_fract_y
_atom_site_fract_z
_atom_type_partial_charge
C1    C     C_R   0.590343 0.033809 0.591109 0.079360
C2    C     C_R   0.821544 0.564023 0.033951 0.934844
C3    C     C_R   0.435923 0.966141 0.178425 0.934722
C4    C     C_R   0.564077 0.033859 0.821575 0.934722
C5    C     C_R   0.564145 0.821516 0.033638 0.934573
C6    C     C_R   0.435855 0.178483 0.966362 0.934573
C7    C     C_R   0.033880 0.564066 0.821558 0.935010
C8    C     C_R   0.966120 0.435933 0.178442 0.935010
C9    C     C_R   0.821548 0.033551 0.564196 0.934478
C10   C     C_R   0.178452 0.966449 0.435804 0.934478
C11   C     C_R   0.543662 0.016751 0.544569 0.136673
C12   C     C_R   0.409657 0.966191 0.408891 0.079361
C13   C     C_R   0.456338 0.983249 0.455431 0.136673
C14   C     C_R   0.016873 0.543545 0.544584 0.139042
C15   C     C_R   0.983127 0.456454 0.455416 0.139042
C16   C     C_R   0.544518 0.543582 0.016903 0.138543
C17   C     C_R   0.455482 0.456418 0.983097 0.138543
C18   C     C_R   0.552719 0.059938 0.451687 -0.174036
C19   C     C_R   0.447281 0.940062 0.548313 -0.174037
C20   C     C_R   0.956328 0.490638 0.592256 -0.179750
C21   C     C_R   0.043672 0.509362 0.407744 -0.179750
C22   C     C_R   0.451656 0.552333 0.060233 -0.177492
C23   C     C_R   0.033974 0.590205 0.591102 0.079312
C24   C     C_R   0.548344 0.447666 0.939767 -0.177492
C25   C     C_R   0.509520 0.043554 0.407719 -0.178188
C26   C     C_R   0.490480 0.956446 0.592281 -0.178188
C27   C     C_R   0.407725 0.509195 0.043696 -0.181928
C28   C     C_R   0.592275 0.490805 0.956304 -0.181928
C29   C     C_R   0.939818 0.447548 0.548265 -0.175569
C30   C     C_R   0.060182 0.552452 0.451735 -0.175569
C31   C     C_R   0.549253 0.038395 0.680297 -0.277603
C32   C     C_R   0.450747 0.961605 0.319703 -0.277604
C33   C     C_R   0.038154 0.679655 0.549742 -0.282438
C34   C     C_R   0.966026 0.409795 0.408898 0.079312
C35   C     C_R   0.961846 0.320345 0.450258 -0.282438
C36   C     C_R   0.680190 0.549107 0.038663 -0.280336
C37   C     C_R   0.319810 0.450893 0.961337 -0.280336
C38   C     C_R   0.320216 0.962064 0.450214 -0.281401
C39   C     C_R   0.679784 0.037936 0.549786 -0.281401
C40   C     C_R   0.450349 0.320333 0.961804 -0.284251
C41   C     C_R   0.549650 0.679667 0.038196 -0.284251
C42   C     C_R   0.961535 0.450854 0.319697 -0.279105
C43   C     C_R   0.038465 0.549146 0.680303 -0.279105
C44   C     C_R   0.596302 0.049950 0.724939 -0.177969
C45   C     C_R   0.590995 0.590214 0.034077 0.079584
C46   C     C_R   0.403698 0.950049 0.275061 -0.177969
C47   C     C_R   0.049899 0.724703 0.596362 -0.178346
C48   C     C_R   0.950101 0.275297 0.403637 -0.178346
C49   C     C_R   0.724867 0.596199 0.050154 -0.178210
C50   C     C_R   0.275133 0.403801 0.949846 -0.178210
C51   C     C_R   0.275235 0.950253 0.403580 -0.178048
C52   C     C_R   0.724765 0.049747 0.596420 -0.178048
C53   C     C_R   0.403680 0.275308 0.950056 -0.178183
C54   C     C_R   0.596319 0.724692 0.049944 -0.178183
C55   C     C_R   0.949996 0.403745 0.275075 -0.177974
C56   C     C_R   0.409005 0.409786 0.965923 0.079584
C57   C     C_R   0.050004 0.596255 0.724925 -0.177974
C58   C     C_R   0.679377 0.065434 0.679384 0.561937
C59   C     C_R   0.320622 0.934566 0.320616 0.561937
C60   C     C_R   0.065522 0.679351 0.679343 0.562841
C61   C     C_R   0.934478 0.320649 0.320657 0.562841
C62   C     C_R   0.679317 0.679312 0.065609 0.563742
C63   C     C_R   0.320683 0.320688 0.934391 0.563742
C64   C     C_R   0.966382 0.178467 0.435846 0.934313
C65   C     C_R   0.033617 0.821532 0.564154 0.934312
C66   C     C_R   0.178456 0.435977 0.966049 0.934844
F1    F     F_    0.719637 0.086976 0.719439 -0.642922
F2    F     F_    0.280363 0.913024 0.280561 -0.642922
F3    F     F_    0.087007 0.719678 0.719396 -0.641901
F4    F     F_    0.912993 0.280322 0.280603 -0.641901
F5    F     F_    0.719429 0.719634 0.087049 -0.640799
F6    F     F_    0.280571 0.280366 0.912951 -0.640799
H1    H     H_    0.483478 0.920509 0.663420 0.138119
H2    H     H_    0.413188 0.591566 0.108046 0.142665
H3    H     H_    0.079693 0.516218 0.336632 0.135049
H4    H     H_    0.920307 0.483782 0.663367 0.135049
H5    H     H_    0.481963 0.030305 0.715737 0.182664
H6    H     H_    0.518037 0.969695 0.284263 0.182664
H7    H     H_    0.027011 0.715568 0.483746 0.183494
H8    H     H_    0.972989 0.284432 0.516254 0.183495
H9    H     H_    0.715620 0.481801 0.030555 0.181874
H10   H     H_    0.284380 0.518199 0.969445 0.181874
H11   H     H_    0.284275 0.973259 0.516202 0.183672
H12   H     H_    0.516522 0.079491 0.336580 0.138119
H13   H     H_    0.715725 0.026741 0.483798 0.183672
H14   H     H_    0.516354 0.284408 0.973000 0.182692
H15   H     H_    0.483645 0.715592 0.027000 0.182692
H16   H     H_    0.969700 0.518148 0.284240 0.182275
H17   H     H_    0.030300 0.481851 0.715760 0.182275
H18   H     H_    0.107963 0.591777 0.413310 0.142370
H19   H     H_    0.892037 0.408223 0.586690 0.142370
H20   H     H_    0.663406 0.484083 0.920278 0.135396
H21   H     H_    0.336594 0.515917 0.079722 0.135396
H22   H     H_    0.407763 0.892451 0.586787 0.144422
H23   H     H_    0.592237 0.107549 0.413213 0.144422
H24   H     H_    0.586812 0.408434 0.891954 0.142665
O1    O     O_R   0.982940 0.138950 0.510160 -0.650866
O2    O     O_R   0.982940 0.510160 0.138950 -0.652958
O3    O     O_R   0.861050 0.017060 0.489840 -0.650587
O4    O     O_R   0.138950 0.982940 0.510160 -0.650587
O5    O     O_R   0.867700 0.025880 0.612340 -0.558550
O6    O     O_R   0.132300 0.974120 0.387660 -0.558550
O7    O     O_R   0.025880 0.612340 0.867700 -0.558168
O8    O     O_R   0.974120 0.387660 0.132300 -0.558168
O9    O     O_R   0.612340 0.867700 0.025880 -0.557721
O10   O     O_R   0.387660 0.132300 0.974120 -0.557722
O11   O     O_R   0.387660 0.974120 0.132300 -0.558686
O12   O     O_R   0.017060 0.861050 0.489840 -0.650866
O13   O     O_R   0.612340 0.025880 0.867700 -0.558686
O14   O     O_R   0.132300 0.387660 0.974120 -0.557882
O15   O     O_R   0.867700 0.612340 0.025880 -0.557882
O16   O     O_R   0.974120 0.132300 0.387660 -0.558289
O17   O     O_R   0.025880 0.867700 0.612340 -0.558289
O18   O     O_R   0.138950 0.510160 0.982940 -0.653294
O19   O     O_R   0.861050 0.489840 0.017060 -0.653294
O20   O     O_R   0.510160 0.982940 0.138950 -0.651843
O21   O     O_R   0.489840 0.017060 0.861050 -0.651843
O22   O     O_R   0.489840 0.861050 0.017060 -0.652083
O23   O     O_R   0.510160 0.138950 0.982940 -0.652083
O24   O     O_R   0.017060 0.489840 0.861050 -0.652958
Zn1   Zn    Zn3+2 0.004880 0.004880 0.583590 1.042609
Zn2   Zn    Zn3+2 0.995120 0.995120 0.416410 1.042609
Zn3   Zn    Zn3+2 0.004880 0.583590 0.004880 1.039919
Zn4   Zn    Zn3+2 0.995120 0.416410 0.995120 1.039919
Zn5   Zn    Zn3+2 0.583590 0.004880 0.004880 1.041183
Zn6   Zn    Zn3+2 0.416410 0.995120 0.995120 1.041183

loop_
_geom_bond_atom_site_label_1
_geom_bond_atom_site_label_2
_ccdc_geom_bond_type
C61   F4    S    
C16   C28   A    
C4    O13   A    
C11   C18   A    
C50   C63   A    
C38   H11   S    
C40   C56   A    
C34   C42   A    
C30   H18   S    
O7    Zn3   S    
C5    O9    A    
C12   C13   S    
C18   C25   A    
C43   H17   S    
C34   C35   A    
C3    O20   A    
C24   H24   S    
C59   F2    S    
C48   C64   S    
C10   C51   S    
C35   H8    S    
C1    C31   A    
C26   H1    S    
C23   C43   A    
C20   H4    S    
O4    Zn1   S    
C40   H14   S    
C19   C26   A    
C8    O2    A    
O1    Zn1   S    
O14   Zn4   S    
C47   C60   A    
C37   C56   A    
C44   C58   A    
C23   C33   A    
C1    C11   S    
C25   H12   S    
C15   C29   A    
C49   C62   A    
O21   Zn6   S    
C15   C34   S    
C39   C52   A    
C9    O3    A    
C7    O7    A    
C12   C32   A    
C18   H23   S    
C13   C25   A    
C9    C52   S    
C32   C46   A    
C14   C30   A    
C35   C48   A    
C8    C55   S    
C31   H5    S    
C20   C29   A    
O2    Zn3   S    
C41   H15   S    
C2    O15   A    
C17   C24   A    
C31   C44   A    
C13   C19   A    
O15   Zn3   S    
C17   C27   A    
C14   C20   A    
C5    C54   S    
C10   O6    A    
C1    C39   A    
C33   H7    S    
C57   C60   A    
C38   C51   A    
C4    C44   S    
C11   C26   A    
C3    O11   A    
O5    Zn1   S    
C14   C23   S    
O16   Zn2   S    
C2    C49   S    
C42   C55   A    
C8    O8    A    
C2    O19   A    
C36   H9    S    
C6    O10   A    
O17   Zn1   S    
C36   C45   A    
C28   H20   S    
C65   O12   A    
C66   O14   A    
C10   O4    A    
C50   C66   S    
C17   C56   S    
C19   H22   S    
C52   C58   A    
O3    Zn2   S    
O18   Zn3   S    
O23   Zn5   S    
O13   Zn5   S    
C64   O1    A    
O20   Zn5   S    
C33   C47   A    
C37   H10   S    
C27   H21   S    
C51   C59   A    
C39   H13   S    
C6    C53   S    
C6    O23   A    
C29   H19   S    
O10   Zn6   S    
C16   C22   A    
O19   Zn4   S    
C66   O18   A    
C65   O17   A    
C7    O24   A    
C24   C28   A    
O11   Zn6   S    
O12   Zn2   S    
C16   C45   S    
O8    Zn4   S    
C22   H2    S    
C54   C62   A    
C21   C30   A    
C21   H3    S    
C3    C46   S    
O9    Zn5   S    
C5    O22   A    
C22   C27   A    
C37   C50   A    
C53   C63   A    
C48   C61   A    
C60   F3    S    
C55   C61   A    
C47   C65   S    
C62   F5    S    
C12   C38   A    
C4    O21   A    
C41   C54   A    
C64   O16   A    
C43   C57   A    
C32   H6    S    
C58   F1    S    
C15   C21   A    
C42   H16   S    
C63   F6    S    
C46   C59   A    
C9    O5    A    
C40   C53   A    
C41   C45   A    
O22   Zn6   S    
O6    Zn2   S    
C7    C57   S    
C36   C49   A    
O24   Zn4   S    
