data_mof_unit_48767.cif
_audit_creation_date              2013-03-05T16:33:14-0500
_audit_creation_method            fapswitch 2.2
_symmetry_space_group_name_H-M    P1
_symmetry_Int_Tables_number       1
_space_group_crystal_system       triclinic
_cell_length_a                    27.844266
_cell_length_b                    10.800288
_cell_length_c                    9.531083
_cell_angle_alpha                 89.940558
_cell_angle_beta                  89.987664
_cell_angle_gamma                 90.326562
_cell_volume                      2866.19717482

loop_
_atom_site_label
_atom_site_type_symbol
_atom_site_description
_atom_site_fract_x
_atom_site_fract_y
_atom_site_fract_z
_atom_type_partial_charge
O1    O     O_R   0.500000 0.319640 0.618810 -0.582598
O2    O     O_R   0.500010 0.319680 0.381230 -0.590295
C1    C     C_R   0.500911 0.262281 0.500018 0.805295
O3    O     O_R   0.430260 0.500000 0.618780 -0.583855
O4    O     O_R   0.430270 0.500040 0.381190 -0.581400
C2    C     C_R   0.407465 0.499438 0.499991 0.807771
Cu1   Cu    Cu3+1 0.500000 0.499980 0.640670 0.944155
Cu2   Cu    Cu3+1 0.500000 0.500020 0.359330 0.944588
O5    O     O_R   0.499990 0.680320 0.618770 -0.579200
O6    O     O_R   0.500000 0.680360 0.381190 -0.583950
O7    O     O_R   0.569730 0.499960 0.618810 -0.583649
O8    O     O_R   0.569740 0.500000 0.381220 -0.582711
C3    C     C_R   0.500960 0.737709 0.499882 0.807177
C4    C     C_R   0.592556 0.499772 0.500097 0.800012
C5    C     C_R   0.178367 0.380111 0.515458 0.532581
O9    O     O_2   0.204551 0.277392 0.536572 -0.558649
N1    N     N_R   0.202237 0.489726 0.496511 -0.462170
C6    C     C_R   0.178559 0.597936 0.475118 0.540512
C7    C     C_R   0.278783 0.495964 0.627253 0.024403
C8    C     C_R   0.328986 0.498732 0.627158 -0.257231
C9    C     C_R   0.329165 0.492893 0.372643 -0.212295
C10   C     C_R   0.279145 0.490031 0.372482 -0.115758
C11   C     C_R   0.253763 0.491460 0.499169 0.328202
C12   C     C_R   0.102187 0.488855 0.494792 -0.066361
C13   C     C_R   0.127277 0.375699 0.514086 -0.051069
C14   C     C_R   0.100176 0.264551 0.531744 0.102544
C15   C     C_R   0.128399 0.599678 0.473762 -0.002587
C16   C     C_R   0.354556 0.497272 0.499938 -0.053027
H1    H     H_    0.347900 0.491487 0.273074 0.163741
H2    H     H_    0.259963 0.486737 0.273708 0.150968
C17   C     C_R   0.645503 0.499747 0.500722 -0.038206
C18   C     C_R   0.973225 0.384282 0.512979 0.063851
C19   C     C_R   0.975562 0.610735 0.484510 0.011525
C20   C     C_R   0.949008 0.499553 0.499688 0.064759
C21   C     C_R   0.945101 0.275081 0.523012 -0.213616
C22   C     C_R   0.895510 0.279108 0.524976 -0.171730
C23   C     C_R   0.871482 0.391503 0.514147 -0.003527
C24   C     C_R   0.897776 0.503155 0.501208 -0.068819
C25   C     C_R   0.872763 0.617255 0.489473 -0.053422
C26   C     C_R   0.821650 0.613410 0.491892 0.516775
N2    N     N_R   0.797705 0.503111 0.503285 -0.463969
C27   C     C_R   0.821316 0.393651 0.514589 0.528827
C28   C     C_R   0.720882 0.491450 0.628746 -0.106157
C29   C     C_R   0.670805 0.490393 0.627992 -0.216639
C30   C     C_R   0.671329 0.509306 0.374378 -0.213272
C31   C     C_R   0.721395 0.510934 0.375471 -0.112166
C32   C     C_R   0.746246 0.502101 0.502574 0.375993
O10   O     O_2   0.796096 0.286882 0.525484 -0.549862
C33   C     C_R   0.024436 0.381403 0.514922 0.011879
C34   C     C_R   0.050951 0.492206 0.495730 0.066229
C35   C     C_R   0.026696 0.606859 0.477549 0.063517
C36   C     C_R   0.050017 0.270424 0.535317 -0.229135
H3    H     H_    0.652007 0.481702 0.726913 0.150055
H4    H     H_    0.740031 0.484160 0.727258 0.132513
H5    H     H_    0.875954 0.192495 0.534666 0.179940
H6    H     H_    0.959806 0.183379 0.527690 0.129016
H7    H     H_    0.031809 0.184564 0.556811 0.131856
O11   O     O_2   0.203713 0.703929 0.456155 -0.546880
C37   C     C_R   0.104282 0.710519 0.450600 -0.168699
H8    H     H_    0.347996 0.502198 0.726350 0.161367
H9    H     H_    0.123759 0.795994 0.431039 0.180637
C38   C     C_R   0.950145 0.723200 0.477468 -0.228710
C39   C     C_R   0.899947 0.728949 0.477325 0.102057
O12   O     O_2   0.795510 0.717632 0.484076 -0.557690
C40   C     C_R   0.054676 0.714195 0.451264 -0.214048
H10   H     H_    0.968683 0.810522 0.472534 0.129545
H11   H     H_    0.652991 0.515650 0.274755 0.147295
H12   H     H_    0.740950 0.518659 0.277599 0.129645
H13   H     H_    0.039769 0.803508 0.428086 0.131136
C41   C     C_R   0.507171 0.063522 0.625779 0.138730
C42   C     C_R   0.505917 0.129285 0.499735 -0.095946
C43   C     C_R   0.511728 0.064774 0.372852 -0.211113
H14   H     H_    0.513796 0.113127 0.273386 0.162830
C44   C     C_R   0.511722 0.935830 0.372755 -0.211446
H15   H     H_    0.513708 0.887849 0.273243 0.158614
C45   C     C_R   0.505952 0.870800 0.499541 -0.095986
C46   C     C_R   0.507163 0.936190 0.625654 0.119831
C47   C     C_3   0.474523 0.928795 0.749843 -0.457001
C48   C     C_3   0.474595 0.069355 0.750153 -0.479704
H16   H     H_    0.438915 0.887548 0.724066 0.204982
H17   H     H_    0.492573 0.888337 0.843099 0.192164
H18   H     H_    0.439013 0.109984 0.724852 0.199246
H19   H     H_    0.492824 0.109582 0.843459 0.194129
C49   C     C_R   0.517136 0.600047 0.073457 0.257484
N3    N     N_R   0.500300 0.500930 0.147930 -0.183733
C50   C     C_R   0.478177 0.407793 0.074582 -0.081502
H20   H     H_    0.461230 0.332056 0.130377 0.140554
C51   C     C_R   0.478113 0.407904 0.925621 -0.081043
H21   H     H_    0.460975 0.332548 0.869986 0.139267
N4    N     N_R   0.500310 0.500890 0.852020 -0.183545
C52   C     C_R   0.517149 0.599981 0.926063 0.255966
C53   C     C_3   0.566617 0.652957 0.919613 -0.497510
C54   C     C_3   0.566677 0.652859 0.078916 -0.504319
H22   H     H_    0.593054 0.587801 0.873993 0.213540
H23   H     H_    0.567169 0.747531 0.873553 0.195147
H24   H     H_    0.593046 0.587390 0.124058 0.212318
H25   H     H_    0.567436 0.747390 0.124784 0.191447
C55   C     C_1   0.253323 0.498582 0.759045 0.254660
N5    N     N_1   0.232853 0.500671 0.864706 -0.286950
C56   C     C_3   0.878322 0.857355 0.459734 -0.340779
C57   C     C_3   0.862139 0.878749 0.307555 -0.324208
C58   C     C_3   0.838931 0.005437 0.289861 -0.778992
H26   H     H_    0.807731 0.014783 0.361661 0.285827
H27   H     H_    0.865466 0.079938 0.312146 0.243814
H28   H     H_    0.826204 0.016254 0.180158 0.239552
H29   H     H_    0.893854 0.873340 0.236944 0.204884
H30   H     H_    0.836194 0.806275 0.273936 0.251694
H31   H     H_    0.849299 0.873979 0.536868 0.242383
H32   H     H_    0.905271 0.930397 0.485301 0.157000
C59   C     C_3   0.121761 0.135878 0.545604 -0.344538
C60   C     C_3   0.135941 0.108014 0.697979 -0.321391
C61   C     C_3   0.159674 0.981434 0.710307 -0.769791
H33   H     H_    0.134487 0.907391 0.675801 0.246862
H34   H     H_    0.192689 0.978258 0.644981 0.282969
H35   H     H_    0.169683 0.963967 0.821307 0.241810
H36   H     H_    0.160985 0.179799 0.738658 0.259456
H37   H     H_    0.103248 0.108876 0.764980 0.204403
H38   H     H_    0.095141 0.064352 0.512551 0.158751
H39   H     H_    0.151808 0.122296 0.471047 0.242170

loop_
_geom_bond_atom_site_label_1
_geom_bond_atom_site_label_2
_geom_bond_distance
_ccdc_geom_bond_type
C57   H30   1.109687 S    
C57   C58   1.525710 S    
N2    C27   1.360164 A    
C1    C42   1.443943 S    
C21   C22   1.381881 A    
C12   C15   1.412425 A    
C4    C17   1.474282 S    
C59   H38   1.113311 S    
C61   H34   1.110892 S    
Cu1   Cu2   2.681474 S    
C46   C47   1.493967 S    
Cu1   O7    1.952684 S    
N1    C11   1.434954 S    
C44   C45   1.405773 A    
C22   C23   1.393131 A    
C23   C24   1.412426 A    
C24   C25   1.423271 A    
O7    C4    1.297645 A    
C47   H16   1.112254 S    
C5    C13   1.423162 A    
C5    O9    1.345972 S    
C58   H28   1.110336 S    
C5    N1    1.366186 A    
Cu2   N3    2.014901 S    
C35   C40   1.415142 A    
C23   C27   1.397182 A    
O5    C3    1.291215 A    
C59   C60   1.535028 S    
C56   C57   1.536553 S    
C49   N3    1.364582 A    
C6    O11   1.350564 S    
C2    C16   1.473262 S    
C7    C8    1.398012 A    
C19   C38   1.410824 A    
C30   H11   1.080502 S    
C60   H36   1.110081 S    
C49   C52   1.404823 A    
C8    H8    1.084190 S    
C14   C59   1.522874 S    
C41   C48   1.494086 S    
C56   H32   1.112870 S    
O1    Cu1   1.959051 S    
C9    C10   1.392919 A    
C41   C46   1.375219 A    
O3    Cu1   1.953084 S    
C29   H3    1.081999 S    
C61   H33   1.110752 S    
C7    C55   1.442598 S    
C19   C20   1.413863 A    
C12   C34   1.427301 A    
C56   H31   1.107903 S    
C37   H9    1.083964 S    
C17   C29   1.406729 A    
C38   H10   1.073509 S    
C18   C21   1.415125 A    
C12   C13   1.422952 A    
C43   C44   1.392632 A    
C44   H15   1.082817 S    
C52   C53   1.489712 S    
C47   C48   1.518081 S    
C8    C16   1.406143 A    
C39   C56   1.524153 S    
C34   C35   1.424305 A    
C13   C14   1.424079 A    
N3    C50   1.369158 A    
Cu1   N4    2.014450 S    
C9    H1    1.082996 S    
C53   H23   1.111384 S    
O1    C1    1.291493 A    
C18   C20   1.424758 A    
C7    C11   1.406438 A    
C28   C29   1.394362 A    
C31   H12   1.082914 S    
C38   C39   1.399451 A    
C14   C36   1.398842 A    
C48   H18   1.112277 S    
C28   H4    1.082868 S    
C3    C45   1.443336 S    
Cu2   O8    1.953078 S    
C33   C36   1.411062 A    
C53   H22   1.110190 S    
N1    C6    1.360314 A    
N2    C32   1.432843 S    
C27   O10   1.350600 S    
C45   C46   1.395068 A    
C58   H27   1.110003 S    
C41   C42   1.395504 A    
O3    C2    1.298085 A    
C26   N2    1.366043 A    
C9    C16   1.405061 A    
C51   N4    1.368921 A    
C55   N5    1.157374 T    
C54   H24   1.108876 S    
C54   H25   1.111125 S    
C25   C26   1.423757 A    
C50   H20   1.081275 S    
C57   H29   1.112034 S    
Cu1   O5    1.958662 S    
C31   C32   1.398692 A    
C10   H2    1.083001 S    
C60   C61   1.526263 S    
C21   H6    1.074762 S    
C20   C24   1.427340 A    
O2    Cu2   1.958664 S    
C6    C15   1.396978 A    
O8    C4    1.299111 A    
C43   H14   1.083230 S    
O6    C3    1.290497 A    
C59   H39   1.108060 S    
O4    Cu2   1.952687 S    
C19   C35   1.426160 A    
C25   C39   1.425059 A    
C26   O12   1.345928 S    
C60   H37   1.111944 S    
O2    C1    1.290539 A    
C42   C43   1.406075 A    
C22   H5    1.083543 S    
C15   C37   1.393359 A    
C37   C40   1.382055 A    
C48   H19   1.111640 S    
C47   H17   1.111502 S    
N4    C52   1.363535 A    
O4    C2    1.298067 A    
C40   H13   1.075042 S    
C53   C54   1.518323 S    
C50   C51   1.419759 A    
C49   C54   1.490648 S    
C58   H26   1.110909 S    
C18   C33   1.426578 A    
C36   H7    1.073834 S    
C30   C31   1.394095 A    
C51   H21   1.080670 S    
Cu2   O6    1.959050 S    
C33   C34   1.414233 A    
C17   C30   1.405839 A    
C10   C11   1.399104 A    
C28   C32   1.398767 A    
C61   H35   1.110325 S    
