data_mof_unit_14927.cif
_audit_creation_date              2012-12-10T16:52:40-0500
_audit_creation_method            fapswitch 2.2
_symmetry_space_group_name_H-M    P1
_symmetry_Int_Tables_number       1
_space_group_crystal_system       triclinic
_cell_length_a                    7.8398
_cell_length_b                    8.568411
_cell_length_c                    13.766217
_cell_angle_alpha                 93.331623
_cell_angle_beta                  93.008867
_cell_angle_gamma                 94.262436
_cell_volume                      919.124033231

loop_
_atom_site_label
_atom_site_type_symbol
_atom_type_description
_atom_site_fract_x
_atom_site_fract_y
_atom_site_fract_z
_atom_type_partial_charge
C1    C     C_R   0.045200 0.794691 0.497537 0.955704
C2    C     C_R   0.936417 0.485408 0.317961 0.912022
C3    C     C_R   0.091903 0.519798 0.787687 -0.195656
C4    C     C_R   0.900286 0.451499 0.214124 -0.202082
C5    C     C_R   0.035485 0.623651 0.948642 -0.282026
C6    C     C_R   0.919856 0.284494 0.068214 -0.281848
C7    C     C_R   0.986204 0.598606 0.850028 0.631423
C8    C     C_R   0.986125 0.340152 0.160735 0.629112
C9    C     C_R   0.237182 0.455781 0.825263 -0.337950
C10   C     C_R   0.754165 0.509792 0.173898 -0.353760
C11   C     C_R   0.288643 0.478422 0.923832 0.097782
C12   C     C_R   0.954779 0.205300 0.502379 0.962384
C13   C     C_R   0.674385 0.441790 0.087257 0.105911
C14   C     C_R   0.189237 0.569618 0.985078 0.061747
C15   C     C_R   0.762767 0.332292 0.031871 0.069673
C16   C     C_R   0.443381 0.423168 0.960916 0.101681
C17   C     C_R   0.508656 0.478934 0.055294 0.094045
C18   C     C_R   0.403945 0.565594 0.115864 -0.149978
C19   C     C_R   0.534678 0.314110 0.906923 -0.175742
C20   C     C_R   0.246292 0.608792 0.081227 -0.169614
C21   C     C_R   0.691242 0.269021 0.942379 -0.173698
C22   C     C_2   0.068645 0.958461 0.496064 -0.357765
C23   C     C_2   0.931304 0.041522 0.503731 -0.361676
C24   C     C_R   0.062936 0.511598 0.682220 0.910731
F1    F     F_    0.128807 0.280858 0.199134 -0.664558
F2    F     F_    0.841977 0.659605 0.815114 -0.663616
H1    H     H_    0.170310 0.675990 0.129480 0.148141
H2    H     H_    0.484878 0.255877 0.838689 0.142887
H3    H     H_    0.197966 0.010086 0.488732 0.182976
H4    H     H_    0.801980 0.989899 0.511051 0.181243
H5    H     H_    0.756234 0.183738 0.899656 0.157284
H6    H     H_    0.701065 0.604383 0.214457 0.174531
H7    H     H_    0.315015 0.397501 0.774526 0.187227
H8    H     H_    0.487143 0.374263 0.427599 0.204572
H9    H     H_    0.512852 0.625777 0.572369 0.204828
H10   H     H_    0.956838 0.690002 0.995742 0.171170
H11   H     H_    0.987238 0.199351 0.026902 0.170130
H12   H     H_    0.437696 0.597749 0.191687 0.153450
N1    N     N_2   0.440860 0.456490 0.474790 -0.170071
N2    N     N_2   0.559140 0.543510 0.525210 -0.167753
O1    O     O_R   0.891570 0.738930 0.506190 -0.607419
O2    O     O_R   0.108430 0.261070 0.493810 -0.603048
O3    O     O_R   0.174650 0.711050 0.490030 -0.632210
O4    O     O_R   0.825350 0.288950 0.509970 -0.631883
O5    O     O_R   0.909850 0.521900 0.644940 -0.555203
O6    O     O_R   0.090150 0.478100 0.355060 -0.563905
O7    O     O_R   0.192930 0.494020 0.628780 -0.632767
O8    O     O_R   0.807070 0.505980 0.371220 -0.628625
Zn1   Zn    Zn3+2 0.810990 0.518620 0.510790 0.977851
Zn2   Zn    Zn3+2 0.189010 0.481380 0.489210 0.974350

loop_
_geom_bond_atom_site_label_1
_geom_bond_atom_site_label_2
_ccdc_geom_bond_type
O4    Zn1   S    
C2    C4    S    
C23   H4    S    
O3    Zn2   S    
C3    C9    A    
C22   H3    S    
O5    Zn1   S    
C9    C11   A    
C11   C16   A    
O6    Zn2   S    
C18   C20   A    
C13   C17   A    
C4    C8    A    
C2    O8    A    
H9    N2    S    
C5    C14   A    
C6    H11   S    
C1    C22   S    
C12   O4    A    
C2    O6    A    
C9    H7    S    
C19   H2    S    
C21   H5    S    
C12   C23   S    
C3    C24   S    
C7    F2    S    
O2    Zn2   S    
C16   C19   A    
C6    C8    A    
C24   O5    A    
O1    Zn1   S    
O8    Zn1   S    
C20   H1    S    
C17   C18   A    
O7    Zn2   S    
C3    C7    A    
C13   C15   A    
C18   H12   S    
C11   C14   A    
C8    F1    S    
N2    Zn1   S    
C5    H10   S    
C10   H6    S    
C15   C21   A    
N1    Zn2   S    
C14   C20   A    
C1    O1    A    
N1    N2    D    
C5    C7    A    
C22   C23   D    
C12   O2    A    
C19   C21   A    
C6    C15   A    
C24   O7    A    
C4    C10   A    
C1    O3    A    
H8    N1    S    
C16   C17   A    
C10   C13   A    
