data_mof_unit_8251.cif
_audit_creation_date              2012-12-10T18:11:45-0500
_audit_creation_method            fapswitch 2.2
_symmetry_space_group_name_H-M    P1
_symmetry_Int_Tables_number       1
_space_group_crystal_system       triclinic
_cell_length_a                    10.522548
_cell_length_b                    12.816171
_cell_length_c                    13.121819
_cell_angle_alpha                 81.612964
_cell_angle_beta                  93.472301
_cell_angle_gamma                 102.090848
_cell_volume                      1711.00756097

loop_
_atom_site_label
_atom_site_type_symbol
_atom_type_description
_atom_site_fract_x
_atom_site_fract_y
_atom_site_fract_z
_atom_type_partial_charge
C1    C     C_R   0.477874 0.439153 0.690947 0.875059
C2    C     C_R   0.527264 0.469850 0.964658 0.015864
C3    C     C_R   0.464895 0.480787 0.867267 -0.038497
C4    C     C_R   0.741242 0.500714 0.499683 0.940029
C5    C     C_R   0.523917 0.548503 0.028941 0.028303
C6    C     C_R   0.488365 0.647751 0.988629 0.118999
C7    C     C_R   0.432734 0.660165 0.889346 0.407770
C8    C     C_R   0.409971 0.572316 0.834109 -0.275372
C9    C     C_R   0.535106 0.523405 0.135078 -0.249336
C10   C     C_R   0.519334 0.703596 0.158284 -0.218340
C11   C     C_R   0.463392 0.402261 0.802460 -0.155701
C12   C     C_3   0.065919 0.590117 0.536290 0.146617
C13   C     C_R   0.336843 0.102607 0.325741 0.443816
C14   C     C_R   0.648740 0.800533 0.637489 0.292459
C15   C     C_R   0.651416 0.894554 0.679226 -0.235964
C16   C     C_R   0.516907 0.560649 0.309340 0.867545
C17   C     C_R   0.585737 0.970519 0.629147 -0.096027
C18   C     C_R   0.526627 0.959169 0.531084 -0.008635
C19   C     C_R   0.507707 0.855958 0.498292 0.089058
C20   C     C_R   0.476817 0.044008 0.469635 -0.182211
C21   C     C_R   0.399831 0.023296 0.379468 -0.109640
C22   C     C_R   0.384803 0.923409 0.345325 0.353951
C23   C     C_3   0.964311 0.502680 0.595512 0.358966
C24   C     C_R   0.426608 0.838406 0.408822 0.261875
C25   C     C_R   0.504626 0.151005 0.491908 0.511844
C26   C     C_R   0.341790 0.196631 0.368867 0.098272
C27   C     C_R   0.258644 0.498999 0.501468 0.926886
C28   C     C_3   0.935323 0.411688 0.466584 0.445288
C29   C     C_3   0.022924 0.412481 0.564073 0.028402
C30   C     C_3   0.123862 0.499386 0.503061 -0.175027
C31   C     C_3   0.036819 0.497345 0.404042 -0.327376
C32   C     C_3   0.977314 0.587128 0.438577 0.095394
C33   C     C_3   0.050007 0.314275 0.635283 -0.836156
C34   C     C_3   0.876009 0.500814 0.499105 -0.119929
C35   C     C_3   0.431334 0.200654 0.793082 -0.850963
C36   C     C_3   0.707248 0.387888 0.067091 -0.895792
C37   C     C_3   0.591192 0.182996 0.983492 -0.870378
C38   C     C_3   0.239767 0.263255 0.337722 -0.797844
C39   C     C_3   0.743723 0.731594 0.681940 -0.745399
C40   C     C_3   0.949085 0.685054 0.367461 -0.821902
C41   C     C_3   0.134135 0.691636 0.580392 -0.816021
C42   C     C_R   0.496832 0.727993 0.052701 -0.148040
C43   C     C_R   0.527558 0.598204 0.199778 -0.058380
C44   C     C_R   0.482044 0.298780 0.846639 0.142973
C45   C     C_R   0.552088 0.288928 0.941721 0.227931
C46   C     C_R   0.589489 0.380433 0.993768 0.150226
H1    H     H_    0.538203 0.441755 0.168233 0.190855
H2    H     H_    0.120953 0.340481 0.697245 0.221337
H3    H     H_    0.382064 0.132698 0.848596 0.242861
H4    H     H_    0.355574 0.214492 0.733091 0.251103
H5    H     H_    0.512712 0.176343 0.759008 0.242597
H6    H     H_    0.747496 0.471893 0.081266 0.251826
H7    H     H_    0.682633 0.336158 0.141624 0.246857
H8    H     H_    0.786799 0.361432 0.032337 0.255609
H9    H     H_    0.503231 0.118565 0.998097 0.251125
H10   H     H_    0.651709 0.160718 0.926946 0.244802
H11   H     H_    0.646931 0.184857 0.057710 0.248994
H12   H     H_    0.350772 0.576647 0.763795 0.154604
H13   H     H_    0.283100 0.346271 0.304355 0.263901
H14   H     H_    0.166879 0.229632 0.280351 0.217571
H15   H     H_    0.181853 0.261970 0.405716 0.242904
H16   H     H_    0.353357 0.849552 0.223210 0.329084
H17   H     H_    0.278200 0.154001 0.188700 0.326701
H18   H     H_    0.593215 0.246224 0.585046 0.374902
H19   H     H_    0.808378 0.769211 0.742455 0.192899
H20   H     H_    0.695688 0.651912 0.719479 0.273527
H21   H     H_    0.808691 0.724630 0.621124 0.246891
H22   H     H_    0.929104 0.279030 0.413459 0.331452
H23   H     H_    0.582317 0.036908 0.669836 0.190677
H24   H     H_    0.286795 0.732732 0.357265 0.329026
H25   H     H_    0.040385 0.731964 0.332043 0.255862
H26   H     H_    0.877852 0.658498 0.305812 0.233233
H27   H     H_    0.908392 0.736877 0.412149 0.250232
H28   H     H_    0.060431 0.733036 0.604229 0.238647
H29   H     H_    0.195706 0.669948 0.648502 0.220198
H30   H     H_    0.195040 0.747250 0.521486 0.253637
H31   H     H_    0.999364 0.506290 0.740140 0.340202
H32   H     H_    0.358412 0.750567 0.779397 0.333999
H33   H     H_    0.705877 0.910137 0.750085 0.160307
H34   H     H_    0.069255 0.493937 0.325847 0.169465
H35   H     H_    0.520392 0.764196 0.207747 0.176234
H36   H     H_    0.477544 0.806730 0.022913 0.194914
H37   H     H_    0.958168 0.267811 0.670197 0.271095
H38   H     H_    0.090736 0.262262 0.590868 0.241953
N1    N     N_R   0.432930 0.222190 0.444670 -0.172016
N2    N     N_R   0.566370 0.776980 0.554790 -0.101026
O1    O     O_R   0.467970 0.366730 0.627150 -0.639106
O2    O     O_3   0.265283 0.084983 0.235852 -0.682077
O3    O     O_3   0.610698 0.185843 0.553517 -0.747472
O4    O     O_3   0.863688 0.319032 0.430012 -0.696922
O5    O     O_3   0.376691 0.737381 0.386631 -0.722375
O6    O     O_3   0.921422 0.505635 0.693689 -0.764410
O7    O     O_3   0.391651 0.754406 0.851382 -0.783289
O8    O     O_R   0.510820 0.544830 0.662520 -0.622150
O9    O     O_R   0.664630 0.410960 0.482340 -0.565570
O10   O     O_R   0.707470 0.589060 0.517710 -0.624814
O11   O     O_R   0.489180 0.455170 0.337480 -0.631043
O12   O     O_R   0.532030 0.633270 0.372850 -0.542442
O13   O     O_R   0.292530 0.410940 0.482290 -0.633217
O14   O     O_R   0.335370 0.589040 0.517660 -0.557178
O15   O     O_3   0.323050 0.907542 0.250929 -0.696933
Zn1   Zn    Zn3+2 0.471390 0.381080 0.476380 0.950350
Zn2   Zn    Zn3+2 0.528610 0.618920 0.523620 0.975012

loop_
_geom_bond_atom_site_label_1
_geom_bond_atom_site_label_2
_ccdc_geom_bond_type
C1    O1    A    
H31   O6    S    
C17   H23   S    
C40   H25   S    
H17   O2    S    
C10   C42   A    
H24   O5    S    
C42   H36   S    
C19   N2    A    
C7    C8    A    
C45   C46   A    
C2    C46   A    
C12   C23   S    
C27   O13   A    
C29   C30   S    
C22   O15   S    
C23   C29   S    
C28   C29   S    
C30   C31   S    
C16   O11   A    
C20   C25   A    
H32   O7    S    
O12   Zn2   S    
C4    O9    A    
C29   C33   S    
C40   H27   S    
C18   C19   A    
C36   H7    S    
C8    H12   S    
C41   H28   S    
C4    O10   A    
C37   H10   S    
C15   H33   S    
C1    O8    A    
C1    C11   S    
C35   H3    S    
H22   O4    S    
C36   C46   S    
O11   Zn1   S    
C36   H6    S    
O9    Zn1   S    
C38   H15   S    
C14   C39   S    
C28   C34   S    
C21   C22   A    
C12   C32   S    
C27   C30   S    
C39   H19   S    
H18   O3    S    
N2    Zn2   S    
C7    O7    S    
C4    C34   S    
C27   O14   A    
C9    C43   A    
C31   H34   S    
C3    C11   A    
C14   N2    A    
C3    C8    A    
C26   C38   S    
O14   Zn2   S    
C32   C34   S    
C5    C9    A    
C12   C41   S    
C41   H29   S    
O1    Zn1   S    
C31   C32   S    
C23   C34   S    
C35   H4    S    
C25   N1    A    
C17   C18   A    
C13   C21   A    
C11   C44   A    
C35   C44   S    
C33   H37   S    
C16   C43   S    
C38   H14   S    
O8    Zn2   S    
C9    H1    S    
C35   H5    S    
C39   H20   S    
C22   C24   A    
C13   C26   A    
C2    C5    A    
C37   C45   S    
C24   O5    S    
C44   C45   A    
C15   C17   A    
C40   H26   S    
C12   C30   S    
C10   C43   A    
C23   O6    S    
C39   H21   S    
C28   C31   S    
C6    C7    A    
C10   H35   S    
C25   O3    S    
H16   O15   S    
C2    C3    A    
C41   H30   S    
C16   O12   A    
C5    C6    A    
C26   N1    A    
C13   O2    S    
C19   C24   A    
C18   C20   A    
C32   C40   S    
C33   H38   S    
C36   H8    S    
C38   H13   S    
C37   H9    S    
O13   Zn1   S    
C20   C21   A    
C6    C42   A    
O10   Zn2   S    
C33   H2    S    
C14   C15   A    
C28   O4    S    
C37   H11   S    
N1    Zn1   S    
