data_mof_unit_60976.cif
_audit_creation_date              2012-10-26T17:21:46-0400
_audit_creation_method            fapswitch 2.2
_symmetry_space_group_name_H-M    P1
_symmetry_Int_Tables_number       1
_space_group_crystal_system       triclinic
_cell_length_a                    21.781813
_cell_length_b                    21.782943
_cell_length_c                    38.837092
_cell_angle_alpha                 90.019881
_cell_angle_beta                  89.990419
_cell_angle_gamma                 89.975445
_cell_volume                      18427.1093068

loop_
_atom_site_label
_atom_site_type_symbol
_atom_type_description
_atom_site_fract_x
_atom_site_fract_y
_atom_site_fract_z
_atom_type_partial_charge
C1    C     C_R   0.500019 0.881332 0.999991 0.531378
C2    C     C_R   0.314106 0.499972 0.000013 -0.014962
C3    C     C_R   0.782140 0.459479 0.021916 -0.053073
C4    C     C_R   0.541545 0.217972 0.978680 -0.053278
C5    C     C_R   0.217896 0.459395 0.978105 -0.053035
C6    C     C_R   0.459252 0.782098 0.978222 -0.052799
C7    C     C_R   0.782119 0.540563 0.978095 -0.053135
C8    C     C_R   0.041015 0.282058 0.521655 -0.052781
C9    C     C_R   0.717957 0.041326 0.521478 -0.053073
C10   C     C_R   0.958963 0.717970 0.521642 -0.052757
C11   C     C_R   0.282028 0.958652 0.521438 -0.053162
C12   C     C_R   0.040963 0.717906 0.478319 -0.052736
C13   C     C_R   0.499982 0.314216 0.999957 -0.015043
C14   C     C_R   0.718024 0.958500 0.478638 -0.053158
C15   C     C_R   0.959032 0.282066 0.478337 -0.052693
C16   C     C_R   0.281981 0.041523 0.478657 -0.053059
C17   C     C_R   0.541699 0.717840 0.021202 -0.045318
C18   C     C_R   0.282081 0.541400 0.021378 -0.045079
C19   C     C_R   0.457277 0.282356 0.020518 -0.045466
C20   C     C_R   0.717905 0.458582 0.021349 -0.044781
C21   C     C_R   0.542435 0.282203 0.979265 -0.045591
C22   C     C_R   0.282134 0.458519 0.978661 -0.044707
C23   C     C_R   0.458369 0.717867 0.978788 -0.045296
C24   C     C_R   0.685894 0.500000 0.999994 -0.015037
C25   C     C_R   0.717881 0.541428 0.978643 -0.045130
C26   C     C_R   0.041818 0.217823 0.521121 -0.045057
C27   C     C_R   0.782191 0.042148 0.520922 -0.045356
C28   C     C_R   0.958147 0.782204 0.521098 -0.045053
C29   C     C_R   0.217794 0.957823 0.520879 -0.045352
C30   C     C_R   0.041785 0.782139 0.478862 -0.045065
C31   C     C_R   0.782260 0.957757 0.479162 -0.045267
C32   C     C_R   0.958194 0.217835 0.478892 -0.045028
C33   C     C_R   0.217745 0.042258 0.479180 -0.045288
C34   C     C_3   0.543562 0.891527 0.897744 -0.255784
C35   C     C_R   0.999998 0.185854 0.500011 -0.014674
C36   C     C_3   0.612762 0.889265 0.904283 -0.411515
C37   C     C_3   0.108146 0.544455 0.897790 -0.255445
C38   C     C_3   0.109819 0.613682 0.904304 -0.411196
C39   C     C_3   0.456843 0.108747 0.897885 -0.256146
C40   C     C_3   0.387687 0.111219 0.904563 -0.410984
C41   C     C_3   0.891878 0.455463 0.897795 -0.255442
C42   C     C_3   0.890224 0.386239 0.904293 -0.411156
C43   C     C_3   0.532033 0.111586 0.102348 -0.258664
C44   C     C_3   0.600456 0.121955 0.095932 -0.414641
C45   C     C_3   0.108147 0.455450 0.102188 -0.255549
C46   C     C_R   0.814181 0.999992 0.500019 -0.014852
C47   C     C_3   0.109821 0.386220 0.095677 -0.410910
C48   C     C_3   0.460256 0.889276 0.101916 -0.259970
C49   C     C_3   0.390477 0.890216 0.097674 -0.415329
C50   C     C_3   0.891874 0.544612 0.102227 -0.255449
C51   C     C_3   0.890208 0.613837 0.095730 -0.411341
C52   C     C_3   0.039678 0.389862 0.397812 -0.260513
C53   C     C_3   0.109376 0.389520 0.402431 -0.414785
C54   C     C_3   0.610899 0.037975 0.398188 -0.257241
C55   C     C_3   0.616254 0.107115 0.404216 -0.412982
C56   C     C_3   0.960336 0.610150 0.397869 -0.260421
C57   C     C_R   0.999973 0.814147 0.499983 -0.014673
C58   C     C_3   0.890635 0.610488 0.402490 -0.414924
C59   C     C_3   0.389785 0.962258 0.397565 -0.257466
C60   C     C_3   0.383841 0.893360 0.404256 -0.412787
C61   C     C_3   0.039577 0.610138 0.602181 -0.260469
C62   C     C_3   0.109277 0.610472 0.597553 -0.414995
C63   C     C_3   0.610378 0.961149 0.602154 -0.260725
C64   C     C_3   0.611123 0.891468 0.597471 -0.415093
C65   C     C_3   0.960367 0.389870 0.602137 -0.260449
C66   C     C_3   0.890667 0.389558 0.597523 -0.414994
C67   C     C_3   0.389543 0.038896 0.602118 -0.260738
C68   C     C_R   0.185815 0.999997 0.500006 -0.014863
C69   C     C_3   0.388779 0.108568 0.597419 -0.415059
C70   C     C_3   0.562219 0.900862 0.820864 -0.266595
C71   C     C_3   0.623600 0.924618 0.807138 -0.430365
C72   C     C_3   0.098742 0.562990 0.820910 -0.266618
C73   C     C_3   0.074497 0.624224 0.807238 -0.430371
C74   C     C_3   0.437780 0.099488 0.821026 -0.266693
C75   C     C_3   0.376318 0.075798 0.807385 -0.430196
C76   C     C_3   0.901288 0.436908 0.820908 -0.266632
C77   C     C_3   0.925548 0.375679 0.807209 -0.430390
C78   C     C_3   0.550550 0.104867 0.179394 -0.267635
C79   C     C_R   0.500067 0.814241 0.999981 -0.035284
C80   C     C_3   0.614995 0.091219 0.193077 -0.432691
C81   C     C_3   0.098756 0.436936 0.179070 -0.266865
C82   C     C_3   0.074519 0.375722 0.192750 -0.429919
C83   C     C_3   0.469707 0.885338 0.178607 -0.267104
C84   C     C_3   0.525063 0.842581 0.182284 -0.415416
C85   C     C_3   0.901286 0.563160 0.179112 -0.266926
C86   C     C_3   0.925534 0.624374 0.192805 -0.430169
C87   C     C_3   0.031681 0.387223 0.321018 -0.268029
C88   C     C_3   0.975250 0.346078 0.316948 -0.417717
C89   C     C_3   0.604549 0.054400 0.321024 -0.268201
C90   C     C_R   0.185733 0.499964 0.000014 -0.035380
C91   C     C_3   0.585087 0.116663 0.306434 -0.431071
C92   C     C_3   0.968365 0.612819 0.321078 -0.268223
C93   C     C_3   0.024799 0.653962 0.317024 -0.417503
C94   C     C_3   0.398673 0.942727 0.320686 -0.267071
C95   C     C_3   0.418553 0.879612 0.307462 -0.429696
C96   C     C_3   0.031577 0.612779 0.678976 -0.268138
C97   C     C_3   0.975121 0.653937 0.683057 -0.417859
C98   C     C_3   0.612935 0.969171 0.678947 -0.267888
C99   C     C_3   0.653812 0.025811 0.682973 -0.417593
C100  C     C_3   0.968379 0.387203 0.678928 -0.268146
C101  C     C_R   0.499825 0.185844 0.999920 -0.036734
C102  C     C_3   0.024829 0.346033 0.682973 -0.417839
C103  C     C_3   0.386883 0.031034 0.678912 -0.267891
C104  C     C_3   0.346017 0.974391 0.682945 -0.417568
C105  C     C_1   0.580986 0.814670 0.045403 0.214707
C106  C     C_1   0.185165 0.580144 0.045831 0.217378
C107  C     C_1   0.416238 0.185725 0.043890 0.216704
C108  C     C_1   0.814802 0.419878 0.045812 0.217357
C109  C     C_1   0.582261 0.185369 0.955335 0.218923
C110  C     C_1   0.185268 0.419753 0.954215 0.217426
C111  C     C_1   0.419363 0.814727 0.954462 0.217765
C112  C     C_R   0.118657 0.499988 0.000002 0.532294
C113  C     C_R   0.814268 0.500027 0.000008 -0.035388
C114  C     C_1   0.814766 0.580184 0.954211 0.217326
C115  C     C_1   0.081195 0.314643 0.545279 0.215588
C116  C     C_1   0.685375 0.081871 0.544929 0.215841
C117  C     C_1   0.918786 0.685417 0.545277 0.215596
C118  C     C_1   0.314592 0.918096 0.544869 0.215850
C119  C     C_1   0.081138 0.685287 0.454684 0.215597
C120  C     C_1   0.685514 0.917700 0.455319 0.217204
C121  C     C_1   0.918879 0.314651 0.454696 0.215615
C122  C     C_1   0.314497 0.082369 0.455377 0.217556
C123  C     C_1   0.586694 0.684819 0.041715 0.232806
C124  C     C_R   0.000028 0.314225 0.499993 -0.034969
C125  C     C_1   0.315028 0.586236 0.042032 0.234376
C126  C     C_1   0.411448 0.315542 0.040385 0.233462
C127  C     C_1   0.684947 0.413735 0.041978 0.234754
C128  C     C_1   0.588237 0.315211 0.959326 0.233525
C129  C     C_1   0.315138 0.413662 0.958026 0.235013
C130  C     C_1   0.413328 0.684887 0.958293 0.234192
C131  C     C_1   0.684893 0.586246 0.957997 0.234470
C132  C     C_1   0.086956 0.184796 0.541533 0.233283
C133  C     C_1   0.815211 0.087616 0.541103 0.232822
C134  C     C_1   0.912993 0.815255 0.541507 0.233278
C135  C     C_R   0.685808 0.999941 0.500038 -0.035850
C136  C     C_1   0.184763 0.912334 0.541027 0.232843
C137  C     C_1   0.086938 0.815122 0.458449 0.233387
C138  C     C_1   0.815358 0.912264 0.459012 0.233940
C139  C     C_1   0.913036 0.184827 0.458490 0.233387
C140  C     C_1   0.184652 0.087770 0.459064 0.234101
C141  C     C_R   0.999967 0.685774 0.499984 -0.034972
C142  C     C_R   0.314189 0.000058 0.500026 -0.035874
C143  C     C_R   0.381041 0.499992 0.000003 0.556810
C144  C     C_R   0.500063 0.381082 0.999991 0.556892
C145  C     C_R   0.618959 0.500000 0.999997 0.556757
C146  C     C_R   0.499993 0.618950 0.000004 0.556545
C147  C     C_R   0.881069 0.000019 0.500004 0.557808
C148  C     C_R   0.499961 0.118700 0.999997 0.531143
C149  C     C_R   0.999993 0.881056 0.499995 0.557930
C150  C     C_R   0.118930 0.999977 0.499999 0.557809
C151  C     C_R   0.999999 0.118944 0.500005 0.557931
C152  C     C_R   0.500007 0.000019 0.933747 0.536503
C153  C     C_R   0.000002 0.499991 0.933743 0.537004
C154  C     C_R   0.499988 0.999527 0.066252 0.535849
C155  C     C_R   0.000001 0.500009 0.066256 0.536988
C156  C     C_R   0.000004 0.500001 0.433754 0.536809
C157  C     C_R   0.500054 0.999984 0.433746 0.535279
C158  C     C_R   0.999995 0.500001 0.566246 0.536810
C159  C     C_R   0.881343 0.500010 0.000003 0.532318
C160  C     C_R   0.499992 0.000010 0.566244 0.536658
C161  C     C_R   0.524251 0.948781 0.877635 0.005283
C162  C     C_R   0.051084 0.524664 0.877654 0.005381
C163  C     C_R   0.475876 0.051447 0.877707 0.005013
C164  C     C_R   0.948937 0.475259 0.877655 0.005373
C165  C     C_R   0.519650 0.052414 0.122424 0.004977
C166  C     C_R   0.051088 0.475293 0.122336 0.005420
C167  C     C_R   0.482999 0.945046 0.122190 0.007382
C168  C     C_R   0.948937 0.524776 0.122355 0.005482
C169  C     C_R   0.018279 0.446315 0.377679 0.007496
C170  C     C_R   0.000011 0.381326 0.499997 0.531273
C171  C     C_R   0.553232 0.021008 0.377799 0.005280
C172  C     C_R   0.981748 0.553705 0.377707 0.007541
C173  C     C_R   0.448121 0.978306 0.377532 0.005175
C174  C     C_R   0.018215 0.553688 0.622318 0.007602
C175  C     C_R   0.553779 0.982186 0.622306 0.007482
C176  C     C_R   0.981745 0.446309 0.622296 0.007621
C177  C     C_R   0.446120 0.017917 0.622289 0.007474
C178  C     C_R   0.527743 0.950554 0.841060 0.019428
C179  C     C_R   0.049330 0.528133 0.841079 0.019468
C180  C     C_R   0.472289 0.049745 0.841136 0.019314
C181  C     C_R   0.618686 0.999984 0.500012 0.530557
C182  C     C_R   0.950694 0.471779 0.841079 0.019481
C183  C     C_R   0.524433 0.050575 0.158989 0.021210
C184  C     C_R   0.049338 0.471828 0.158912 0.019474
C185  C     C_R   0.486410 0.943604 0.158745 0.017027
C186  C     C_R   0.950696 0.528256 0.158931 0.019589
C187  C     C_R   0.016323 0.445685 0.341078 0.017923
C188  C     C_R   0.552355 0.023780 0.341181 0.020457
C189  C     C_R   0.983713 0.554349 0.341107 0.017948
C190  C     C_R   0.450133 0.974218 0.340971 0.019392
C191  C     C_R   0.016255 0.554321 0.658919 0.018106
C192  C     C_R   0.999989 0.618674 0.499997 0.531269
C193  C     C_R   0.554380 0.984180 0.658907 0.018062
C194  C     C_R   0.983706 0.445666 0.658896 0.018107
C195  C     C_R   0.445468 0.015999 0.658890 0.018029
C196  C     C_R   0.499973 0.000155 0.823033 0.036215
C197  C     C_R   0.000010 0.499957 0.823018 0.036311
C198  C     C_R   0.505980 0.996741 0.176910 0.033932
C199  C     C_R   0.000018 0.500043 0.176982 0.036338
C200  C     C_R   0.000019 0.500020 0.323043 0.030229
C201  C     C_R   0.501558 0.998581 0.323022 0.037040
C202  C     C_R   0.999983 0.499990 0.676957 0.030279
C203  C     C_R   0.381313 0.000015 0.499997 0.531025
C204  C     C_R   0.499913 0.000112 0.676956 0.030051
C205  C     C_R   0.500033 0.000075 0.895667 0.020928
C206  C     C_R   0.000008 0.499969 0.895656 0.021030
C207  C     C_R   0.500209 0.999202 0.104333 0.022409
C208  C     C_R   0.000010 0.500029 0.104344 0.021076
C209  C     C_R   0.000013 0.500008 0.395703 0.024358
C210  C     C_R   0.500431 0.999883 0.395657 0.021163
C211  C     C_R   0.999984 0.499999 0.604297 0.024344
C212  C     C_R   0.499964 0.000036 0.604292 0.024253
C213  C     C_R   0.499888 0.000152 0.715065 0.321799
C214  C     C_R   0.500005 0.685869 0.000009 -0.015308
C215  C     C_R   0.999991 0.499982 0.715059 0.321723
C216  C     C_R   0.502323 0.997625 0.284857 0.325203
C217  C     C_R   0.000019 0.500026 0.284942 0.321736
C218  C     C_R   0.000016 0.500041 0.215152 0.325433
C219  C     C_R   0.504807 0.996990 0.215060 0.323014
C220  C     C_R   0.000002 0.499964 0.784848 0.325371
C221  C     C_R   0.499909 0.000179 0.784861 0.325491
C222  C     C_R   0.540915 0.782077 0.021724 -0.053236
C223  C     C_R   0.217845 0.540518 0.021934 -0.053110
C224  C     C_R   0.457882 0.218122 0.021005 -0.053400
Cu1   Cu    Cu3+1 0.438290 0.000000 0.000000 0.964998
Cu2   Cu    Cu3+1 0.500000 0.500000 0.965880 1.040421
Cu3   Cu    Cu3+1 0.000000 0.000000 0.534120 1.033920
Cu4   Cu    Cu3+1 0.000000 0.000000 0.465880 1.036373
Cu5   Cu    Cu3+1 0.000000 0.438290 0.000000 0.963806
Cu6   Cu    Cu3+1 0.561710 0.000000 0.000000 0.967305
Cu7   Cu    Cu3+1 1.000000 0.561710 0.000000 0.963523
Cu8   Cu    Cu3+1 0.938290 0.500000 0.500000 0.967556
Cu9   Cu    Cu3+1 0.500000 0.938290 0.500000 0.968049
Cu10  Cu    Cu3+1 0.061710 0.500000 0.500000 0.967655
Cu11  Cu    Cu3+1 0.500000 0.061710 0.500000 0.968118
Cu12  Cu    Cu3+1 0.500000 0.500000 0.034120 1.038223
H1    H     H_    0.628647 0.932035 0.916956 0.185749
H2    H     H_    0.150733 0.528878 0.884797 0.140976
H3    H     H_    0.883537 0.464999 0.799342 0.175052
H4    H     H_    0.613818 0.056260 0.213754 0.180548
H5    H     H_    0.645245 0.074579 0.172041 0.158975
H6    H     H_    0.635155 0.133763 0.204047 0.138228
H7    H     H_    0.553716 0.147610 0.164314 0.144113
H8    H     H_    0.519815 0.117074 0.201088 0.170192
H9    H     H_    0.039318 0.382786 0.212956 0.179109
H10   H     H_    0.054149 0.348271 0.171542 0.158929
H11   H     H_    0.112888 0.349163 0.204268 0.140020
H12   H     H_    0.140178 0.426649 0.163815 0.143094
H13   H     H_    0.371737 0.068507 0.917255 0.186010
H14   H     H_    0.116499 0.465023 0.200646 0.174983
H15   H     H_    0.542851 0.828307 0.156753 0.157593
H16   H     H_    0.562823 0.865481 0.196444 0.189728
H17   H     H_    0.511347 0.800846 0.196768 0.143774
H18   H     H_    0.451503 0.896047 0.204605 0.160604
H19   H     H_    0.431551 0.860106 0.166242 0.141163
H20   H     H_    0.960741 0.617309 0.212998 0.179240
H21   H     H_    0.945900 0.651819 0.171601 0.158915
H22   H     H_    0.887172 0.650939 0.204344 0.139071
H23   H     H_    0.859863 0.573452 0.163869 0.142696
H24   H     H_    0.377203 0.150612 0.921747 0.152626
H25   H     H_    0.883542 0.535082 0.200683 0.174764
H26   H     H_    0.988199 0.303780 0.302730 0.142667
H27   H     H_    0.956243 0.332662 0.342342 0.158595
H28   H     H_    0.938676 0.369941 0.302308 0.190006
H29   H     H_    0.050341 0.397707 0.295096 0.159524
H30   H     H_    0.069043 0.360851 0.333418 0.141801
H31   H     H_    0.550550 0.111364 0.285727 0.180903
H32   H     H_    0.565568 0.146097 0.327058 0.159939
H33   H     H_    0.625675 0.140221 0.295271 0.137621
H34   H     H_    0.646192 0.062387 0.336509 0.143142
H35   H     H_    0.361573 0.117388 0.880365 0.146460
H36   H     H_    0.620726 0.024282 0.299903 0.171571
H37   H     H_    0.043797 0.667368 0.342423 0.158690
H38   H     H_    0.061378 0.630100 0.302370 0.190176
H39   H     H_    0.011859 0.696265 0.302828 0.142636
H40   H     H_    0.949711 0.602347 0.295152 0.159373
H41   H     H_    0.931001 0.639189 0.333494 0.141583
H42   H     H_    0.454126 0.883674 0.287212 0.179873
H43   H     H_    0.436986 0.851275 0.328854 0.159084
H44   H     H_    0.378412 0.855568 0.296121 0.139626
H45   H     H_    0.356335 0.935868 0.335754 0.143082
H46   H     H_    0.480544 0.111209 0.923098 0.157319
H47   H     H_    0.383574 0.971690 0.298834 0.174492
H48   H     H_    0.956107 0.667361 0.657668 0.158609
H49   H     H_    0.938560 0.630081 0.697702 0.190299
H50   H     H_    0.988043 0.696230 0.697275 0.141860
H51   H     H_    0.050246 0.602290 0.704894 0.159386
H52   H     H_    0.068921 0.639143 0.666569 0.141333
H53   H     H_    0.667150 0.044818 0.657569 0.158286
H54   H     H_    0.629776 0.062320 0.697590 0.190353
H55   H     H_    0.696169 0.013105 0.697191 0.141912
H56   H     H_    0.602567 0.950510 0.704881 0.159401
H57   H     H_    0.472755 0.151136 0.884846 0.140761
H58   H     H_    0.639477 0.931909 0.666547 0.141248
H59   H     H_    0.011901 0.303735 0.697171 0.141859
H60   H     H_    0.043836 0.332618 0.657572 0.158640
H61   H     H_    0.061396 0.369876 0.697622 0.190304
H62   H     H_    0.949720 0.397685 0.704857 0.159386
H63   H     H_    0.931026 0.360851 0.666518 0.141330
H64   H     H_    0.332720 0.955324 0.657544 0.158257
H65   H     H_    0.370044 0.937922 0.697579 0.190361
H66   H     H_    0.303637 0.987115 0.697149 0.141954
H67   H     H_    0.397213 0.049754 0.704843 0.159440
H68   H     H_    0.933225 0.370629 0.916829 0.185750
H69   H     H_    0.360347 0.068262 0.666496 0.141261
H70   H     H_    0.851094 0.375224 0.921549 0.152610
H71   H     H_    0.884118 0.360246 0.880044 0.146321
H72   H     H_    0.889164 0.478921 0.923074 0.157949
H73   H     H_    0.623465 0.849911 0.921435 0.152471
H74   H     H_    0.849288 0.471024 0.884813 0.141008
H75   H     H_    0.621149 0.081314 0.083179 0.183908
H76   H     H_    0.606551 0.162364 0.078841 0.153010
H77   H     H_    0.625309 0.130980 0.120265 0.149571
H78   H     H_    0.508846 0.111256 0.076980 0.158957
H79   H     H_    0.510972 0.151865 0.115205 0.142906
H80   H     H_    0.066815 0.370623 0.083149 0.185851
H81   H     H_    0.148940 0.375174 0.078409 0.152749
H82   H     H_    0.115956 0.360239 0.119919 0.146589
H83   H     H_    0.110849 0.478890 0.076913 0.157925
H84   H     H_    0.638758 0.883163 0.880034 0.146523
H85   H     H_    0.150737 0.470994 0.115169 0.140938
H86   H     H_    0.367103 0.889937 0.123040 0.145266
H87   H     H_    0.375530 0.931679 0.083422 0.188373
H88   H     H_    0.375706 0.849053 0.082980 0.152146
H89   H     H_    0.481622 0.886949 0.076056 0.158085
H90   H     H_    0.474210 0.845522 0.114050 0.146804
H91   H     H_    0.933206 0.629417 0.083185 0.185911
H92   H     H_    0.851076 0.624880 0.078482 0.152111
H93   H     H_    0.884100 0.639834 0.119980 0.146179
H94   H     H_    0.889161 0.521155 0.076948 0.157901
H95   H     H_    0.520046 0.888995 0.923009 0.157798
H96   H     H_    0.849287 0.529081 0.115218 0.140668
H97   H     H_    0.133180 0.389318 0.377189 0.145716
H98   H     H_    0.124701 0.430466 0.417036 0.188330
H99   H     H_    0.123225 0.347842 0.416945 0.152577
H100  H     H_    0.017883 0.387534 0.423559 0.158169
H101  H     H_    0.025176 0.346548 0.385377 0.146836
H102  H     H_    0.574212 0.125118 0.416800 0.185327
H103  H     H_    0.656067 0.116441 0.421291 0.152915
H104  H     H_    0.623453 0.132165 0.379755 0.148084
H105  H     H_    0.611698 0.015137 0.423660 0.158049
H106  H     H_    0.527688 0.849094 0.884723 0.141143
H107  H     H_    0.652837 0.019668 0.385667 0.141470
H108  H     H_    0.866844 0.610699 0.377248 0.145477
H109  H     H_    0.875303 0.569538 0.417075 0.188324
H110  H     H_    0.876778 0.652161 0.417024 0.152486
H111  H     H_    0.982114 0.612466 0.423617 0.158165
H112  H     H_    0.974846 0.653469 0.385457 0.146793
H113  H     H_    0.425729 0.875341 0.416973 0.185603
H114  H     H_    0.343976 0.884930 0.421444 0.152987
H115  H     H_    0.376315 0.867613 0.380051 0.147740
H116  H     H_    0.388418 0.985962 0.422796 0.157754
H117  H     H_    0.066815 0.629313 0.916843 0.185759
H118  H     H_    0.348316 0.980338 0.384475 0.141975
H119  H     H_    0.133077 0.610672 0.622791 0.145500
H120  H     H_    0.124636 0.569526 0.582946 0.188491
H121  H     H_    0.123096 0.652149 0.583037 0.152195
H122  H     H_    0.017785 0.612468 0.576437 0.158165
H123  H     H_    0.025041 0.653454 0.614618 0.146593
H124  H     H_    0.611466 0.867625 0.622694 0.145547
H125  H     H_    0.570267 0.875932 0.582864 0.188501
H126  H     H_    0.652884 0.877891 0.582934 0.152248
H127  H     H_    0.612598 0.983018 0.576429 0.158060
H128  H     H_    0.148940 0.624692 0.921563 0.152391
H129  H     H_    0.653606 0.975855 0.614597 0.146612
H130  H     H_    0.866869 0.389354 0.622766 0.145492
H131  H     H_    0.875320 0.430516 0.582941 0.188473
H132  H     H_    0.876835 0.347892 0.582988 0.152192
H133  H     H_    0.982156 0.387542 0.576388 0.158163
H134  H     H_    0.974891 0.346546 0.614550 0.146579
H135  H     H_    0.388393 0.132461 0.622636 0.145547
H136  H     H_    0.429649 0.124091 0.582818 0.188507
H137  H     H_    0.347033 0.122102 0.582868 0.152245
H138  H     H_    0.387365 0.016976 0.576398 0.158027
H139  H     H_    0.115949 0.639663 0.880062 0.146328
H140  H     H_    0.346303 0.024200 0.614553 0.146602
H141  H     H_    0.616779 0.959884 0.786956 0.178937
H142  H     H_    0.651256 0.944750 0.828332 0.158498
H143  H     H_    0.649830 0.886047 0.795578 0.139432
H144  H     H_    0.572232 0.859378 0.836108 0.143167
H145  H     H_    0.533957 0.883318 0.799313 0.175172
H146  H     H_    0.039292 0.617189 0.787042 0.179058
H147  H     H_    0.054130 0.651690 0.828452 0.158615
H148  H     H_    0.112861 0.650754 0.795711 0.139334
H149  H     H_    0.140165 0.573244 0.836157 0.143143
H150  H     H_    0.110852 0.521007 0.923063 0.157895
H151  H     H_    0.116486 0.534893 0.799330 0.175061
H152  H     H_    0.383019 0.040460 0.787212 0.178918
H153  H     H_    0.348699 0.055772 0.828623 0.158573
H154  H     H_    0.350114 0.114381 0.795838 0.139483
H155  H     H_    0.427875 0.140969 0.836313 0.143168
H156  H     H_    0.465963 0.117018 0.799441 0.175096
H157  H     H_    0.960753 0.382722 0.787010 0.179063
H158  H     H_    0.945918 0.348218 0.828409 0.158620
H159  H     H_    0.887191 0.349141 0.795678 0.139308
H160  H     H_    0.859870 0.426643 0.836160 0.143128
N1    N     N_R   0.531255 0.043698 0.767083 -0.247870
N2    N     N_R   0.462245 0.032440 0.266548 -0.245419
N3    N     N_R   0.043889 0.530867 0.267209 -0.244755
N4    N     N_R   0.543384 0.962184 0.267635 -0.249997
N5    N     N_R   0.956115 0.530840 0.732810 -0.244746
N6    N     N_R   0.530963 0.043860 0.732803 -0.244848
N7    N     N_R   0.043872 0.469114 0.732780 -0.244729
N8    N     N_R   0.468816 0.956464 0.732808 -0.244829
N9    N     N_1   0.612833 0.840593 0.064315 -0.285792
N10   N     N_1   0.159152 0.611635 0.064908 -0.281448
N11   N     N_1   0.383081 0.159982 0.062157 -0.281983
N12   N     N_R   0.956289 0.531106 0.767090 -0.247716
N13   N     N_1   0.840799 0.388407 0.064889 -0.281689
N14   N     N_1   0.614619 0.159425 0.936690 -0.281007
N15   N     N_1   0.159296 0.388250 0.935143 -0.281750
N16   N     N_1   0.387661 0.840694 0.935491 -0.281546
N17   N     N_1   0.840751 0.611671 0.935144 -0.281850
N18   N     N_1   0.113128 0.340561 0.564148 -0.284878
N19   N     N_1   0.659462 0.114096 0.563662 -0.284723
N20   N     N_1   0.886854 0.659526 0.564153 -0.284942
N21   N     N_1   0.340491 0.885863 0.563586 -0.284688
N22   N     N_1   0.113068 0.659343 0.435807 -0.285169
N23   N     N_R   0.468544 0.956652 0.767089 -0.247730
N24   N     N_1   0.659658 0.885251 0.436702 -0.280826
N25   N     N_1   0.886967 0.340569 0.435814 -0.285329
N26   N     N_1   0.340356 0.114861 0.436792 -0.280513
N27   N     N_1   0.622587 0.658510 0.058000 -0.279327
N28   N     N_1   0.341279 0.622005 0.058428 -0.277513
N29   N     N_1   0.374899 0.341990 0.056149 -0.277858
N30   N     N_1   0.658686 0.377956 0.058354 -0.277845
N31   N     N_1   0.624767 0.341520 0.943503 -0.277519
N32   N     N_1   0.341435 0.377874 0.941646 -0.276768
N33   N     N_1   0.377399 0.658608 0.942024 -0.276933
N34   N     N_R   0.043709 0.468831 0.767060 -0.247733
N35   N     N_1   0.658608 0.622002 0.941607 -0.276745
N36   N     N_1   0.122962 0.158480 0.557735 -0.279934
N37   N     N_1   0.841525 0.123880 0.557121 -0.280129
N38   N     N_1   0.876974 0.841591 0.557707 -0.279926
N39   N     N_1   0.158441 0.876052 0.557019 -0.280104
N40   N     N_1   0.122956 0.841403 0.442246 -0.279362
N41   N     N_1   0.841735 0.875978 0.443020 -0.278246
N42   N     N_1   0.877015 0.158528 0.442296 -0.279660
N43   N     N_1   0.158278 0.124070 0.443100 -0.277870
N44   N     N_R   0.463288 0.031913 0.232264 -0.239507
N45   N     N_R   0.956314 0.468927 0.232922 -0.247884
N46   N     N_R   0.544660 0.961968 0.233361 -0.253727
N47   N     N_R   0.043719 0.531148 0.232928 -0.247659
N48   N     N_R   0.956147 0.469194 0.267202 -0.244974
O1    O     O_R   0.447900 0.909920 0.999910 -0.500479
O2    O     O_R   0.590080 0.947900 0.499910 -0.500435
O3    O     O_R   0.052100 0.590080 0.499910 -0.500118
O4    O     O_R   0.409920 0.052100 0.499910 -0.500446
O5    O     O_R   0.947900 0.590080 0.500090 -0.500097
O6    O     O_R   0.590080 0.052100 0.500090 -0.500170
O7    O     O_R   0.052100 0.409920 0.500090 -0.500062
O8    O     O_R   0.409920 0.947900 0.500090 -0.500042
O9    O     O_R   0.447900 0.000090 0.949980 -0.506247
O10   O     O_R   0.999910 0.447900 0.949980 -0.506389
O11   O     O_R   0.552100 0.999910 0.949980 -0.506808
O12   O     O_R   0.090080 0.447900 0.999910 -0.500783
O13   O     O_R   0.000090 0.552100 0.949980 -0.506376
O14   O     O_R   0.447900 0.999910 0.050020 -0.509130
O15   O     O_R   0.999910 0.552100 0.050020 -0.506341
O16   O     O_R   0.552100 0.000090 0.050020 -0.503400
O17   O     O_R   0.000090 0.447900 0.050020 -0.506346
O18   O     O_R   0.947900 0.500090 0.449980 -0.507434
O19   O     O_R   0.499910 0.947900 0.449980 -0.505818
O20   O     O_R   0.052100 0.499910 0.449980 -0.507399
O21   O     O_R   0.500090 0.052100 0.449980 -0.505882
O22   O     O_R   0.947900 0.499910 0.550020 -0.507413
O23   O     O_R   0.552100 0.090080 0.999910 -0.500069
O24   O     O_R   0.499910 0.052100 0.550020 -0.507376
O25   O     O_R   0.052100 0.500090 0.550020 -0.507384
O26   O     O_R   0.500090 0.947900 0.550020 -0.507408
O27   O     O_R   0.409800 0.500090 0.028790 -0.499046
O28   O     O_R   0.499910 0.409800 0.028790 -0.499576
O29   O     O_R   0.590200 0.499910 0.028790 -0.499337
O30   O     O_R   0.500090 0.590200 0.028790 -0.499483
O31   O     O_R   0.409800 0.499910 0.971210 -0.499151
O32   O     O_R   0.499910 0.590200 0.971210 -0.499008
O33   O     O_R   0.590200 0.500090 0.971210 -0.498961
O34   O     O_R   0.909920 0.552100 0.999910 -0.500886
O35   O     O_R   0.500090 0.409800 0.971210 -0.499211
O36   O     O_R   0.909800 0.000090 0.528790 -0.499666
O37   O     O_R   0.999910 0.909800 0.528790 -0.499618
O38   O     O_R   0.090200 0.999910 0.528790 -0.499687
O39   O     O_R   0.000090 0.090200 0.528790 -0.499634
O40   O     O_R   0.909800 0.999910 0.471210 -0.499387
O41   O     O_R   0.999910 0.090200 0.471210 -0.499297
O42   O     O_R   0.090200 0.000090 0.471210 -0.499324
O43   O     O_R   0.000090 0.909800 0.471210 -0.499317
O44   O     O_R   0.447900 0.090080 0.000090 -0.500774
O45   O     O_R   0.090080 0.552100 0.000090 -0.500872
O46   O     O_R   0.552100 0.909920 0.000090 -0.500665
O47   O     O_R   0.909920 0.447900 0.000090 -0.500784
O48   O     O_R   0.947900 0.409920 0.499910 -0.500136

loop_
_geom_bond_atom_site_label_1
_geom_bond_atom_site_label_2
_ccdc_geom_bond_type
C63   H129  S    
C53   H97   S    
C101  C148  S    
C8    C26   A    
C44   H76   S    
C173  C210  A    
C1    O46   A    
C34   C161  S    
C160  O26   A    
C102  H61   S    
C15   C32   A    
Cu7   O45   S    
N4    N46   A    
C58   H110  S    
C139  N42   T    
Cu10  O3    S    
C70   H145  S    
C216  N2    A    
Cu9   O19   S    
C18   C125  S    
C99   H55   S    
C51   H92   S    
C105  C222  S    
C167  C185  A    
C158  C211  S    
C80   H5    S    
C181  O2    A    
C64   H124  S    
C16   C122  S    
C159  O47   A    
C71   H141  S    
C77   H159  S    
C103  H69   S    
C2    C22   A    
C154  O16   A    
C168  C208  A    
C92   H40   S    
C121  N25   T    
C81   H14   S    
C180  C196  A    
C174  C191  A    
C59   C60   S    
C161  C205  A    
C151  O41   A    
C199  C218  S    
C91   H31   S    
C131  N35   T    
C152  O9    A    
C45   C47   S    
C143  O31   A    
C165  C183  A    
C221  N1    A    
C169  C187  A    
C32   C139  S    
C97   H48   S    
Cu10  O25   S    
N45   N48   A    
C52   H100  S    
C89   H34   S    
C23   C130  S    
C74   H156  S    
C10   C141  A    
C158  O22   A    
C43   C44   S    
C94   C190  S    
C86   H21   S    
C37   C38   S    
C181  O6    A    
C49   H88   S    
C29   C68   A    
C149  O37   A    
C129  N32   T    
Cu3   Cu4   S    
Cu4   O42   S    
C13   C21   A    
C72   H149  S    
Cu11  O6    S    
C219  N44   A    
C76   C77   S    
C18   C223  A    
C136  N39   T    
C146  C214  S    
N1    N6    A    
C27   C46   A    
C53   H99   S    
C3    C113  A    
C1    C79   S    
C89   C188  S    
C186  C199  A    
C92   C189  S    
C96   C191  S    
C79   C222  A    
C34   H106  S    
C36   H1    S    
C138  N41   T    
C144  O35   A    
C177  C195  A    
C156  C209  S    
C9    C116  S    
N3    N47   A    
C216  N4    A    
C56   H111  S    
Cu3   O39   S    
C19   C224  A    
C78   H7    S    
C72   C73   S    
C87   C187  S    
C66   H131  S    
C215  N5    A    
C111  N16   T    
Cu1   O14   S    
Cu1   Cu6   S    
C42   H71   S    
C90   C223  A    
C164  C206  A    
Cu9   O2    S    
C154  O14   A    
C112  O12   A    
C76   H160  S    
Cu7   O34   S    
Cu10  O20   S    
C218  N47   A    
C87   H30   S    
C26   C35   A    
C98   C99   S    
C41   C164  S    
C73   H147  S    
C170  O48   A    
C45   H83   S    
C152  O11   A    
C1    O1    A    
C37   C162  S    
Cu5   O47   S    
N2    N44   A    
C4    C109  S    
C6    C111  S    
C14   C31   A    
Cu12  O30   S    
C97   H50   S    
C40   H24   S    
C88   H26   S    
C201  C216  S    
Cu2   O31   S    
C134  N38   T    
C76   H3    S    
C62   H120  S    
C24   C145  S    
C21   C128  S    
C14   C135  A    
C86   H20   S    
C96   H51   S    
Cu2   Cu12  S    
C213  N6    A    
C72   H151  S    
C13   C144  S    
Cu5   O10   S    
C92   C93   S    
C217  N3    A    
C83   C84   S    
C31   C46   A    
C57   C149  S    
C47   H81   S    
C147  O40   A    
C89   C91   S    
C197  C220  S    
C45   C166  S    
C153  O13   A    
C154  C207  S    
C61   H122  S    
C126  N29   T    
C84   H15   S    
Cu12  O28   S    
C141  C192  S    
Cu5   O17   S    
C69   H137  S    
C38   H128  S    
C217  N48   A    
C168  C186  A    
C15   C124  A    
C82   H10   S    
C83   H18   S    
C174  C211  A    
Cu1   O44   S    
C192  O3    A    
C145  O29   A    
C20   C127  S    
C172  C209  A    
C39   C40   S    
C102  H60   S    
C55   H104  S    
C178  C196  A    
C113  C159  S    
C100  H63   S    
C98   H56   S    
C69   H136  S    
C93   H37   S    
Cu11  O21   S    
C218  N45   A    
C175  C193  A    
C12   C119  S    
C65   H134  S    
C106  C223  S    
C48   H89   S    
C104  H64   S    
C75   H153  S    
C203  O4    A    
C64   H125  S    
C59   C173  S    
C85   H23   S    
C158  O25   A    
C165  C207  A    
C9    C135  A    
C101  C224  A    
C50   C168  S    
C54   H107  S    
Cu7   O15   S    
C135  C181  S    
C17   C214  A    
C122  N26   T    
C52   C53   S    
C88   H28   S    
C107  C224  S    
C54   C55   S    
C95   H44   S    
C43   H78   S    
C47   H80   S    
N8    N23   A    
C61   C174  S    
C3    C108  S    
C156  O18   A    
C67   H140  S    
C41   H72   S    
C213  N8    A    
Cu8   O22   S    
C34   H95   S    
C123  N27   T    
C60   H113  S    
C12   C141  A    
Cu5   O12   S    
C10   C117  S    
C192  O5    A    
C37   H2    S    
C48   C167  S    
C51   H91   S    
C38   H117  S    
C56   C58   S    
C34   C36   S    
C61   C62   S    
C160  O24   A    
C140  N43   T    
C68   C150  S    
C63   C64   S    
Cu3   O38   S    
C125  N28   T    
C77   H158  S    
C74   H155  S    
C84   H17   S    
C95   H42   S    
C81   C184  S    
C11   C118  S    
C162  C206  A    
C33   C68   A    
C94   H47   S    
C25   C131  S    
C87   C88   S    
C220  N12   A    
C104  H65   S    
C50   H96   S    
C89   H36   S    
C41   C42   S    
C198  C219  S    
C81   H12   S    
C44   H77   S    
Cu8   O5    S    
C133  N37   T    
Cu1   O1    S    
C37   H150  S    
C55   H102  S    
C109  N14   T    
C35   C151  S    
C171  C188  A    
C28   C134  S    
C177  C212  A    
C93   H39   S    
C84   H16   S    
C39   H46   S    
C63   H127  S    
C194  C202  A    
C30   C57   A    
Cu1   O9    S    
C173  C190  A    
C86   H22   S    
C49   H87   S    
C155  O17   A    
C58   H108  S    
C39   H57   S    
C54   H105  S    
Cu7   O13   S    
C70   C71   S    
C36   H73   S    
C202  C215  S    
C99   H54   S    
C105  N9    T    
C196  C221  S    
Cu2   O35   S    
C53   H98   S    
C30   C137  S    
C56   C172  S    
C200  C217  S    
C44   H75   S    
C166  C208  A    
C58   H109  S    
Cu6   O46   S    
C43   C165  S    
C156  O20   A    
C67   H138  S    
C41   H74   S    
C183  C198  A    
C13   C19   A    
C27   C133  S    
C60   H115  S    
C70   H144  S    
C56   H112  S    
C127  N30   T    
C171  C210  A    
Cu3   O36   S    
C8    C124  A    
Cu9   O26   S    
C66   H132  S    
C85   C86   S    
C137  N40   T    
C147  O36   A    
C83   H19   S    
C151  O39   A    
C157  O21   A    
C71   H142  S    
C46   C147  S    
C157  O19   A    
C4    C101  A    
C167  C207  A    
C50   C51   S    
C75   H154  S    
C166  C184  A    
C3    C20   A    
Cu6   O11   S    
C31   C138  S    
C87   H29   S    
C94   H45   S    
C48   C49   S    
C155  C208  S    
C14   C120  S    
C50   H94   S    
C65   C176  S    
C170  O7    A    
C145  O33   A    
C39   C163  S    
C112  O45   A    
Cu8   O48   S    
C9    C27   A    
C10   C28   A    
C110  N15   T    
C12   C30   A    
C108  N13   T    
C97   H49   S    
C52   C169  S    
Cu9   O8    S    
C91   H32   S    
C195  C204  A    
Cu2   O32   S    
C172  C189  A    
C19   C126  S    
C7    C25   A    
C176  C211  A    
C43   H79   S    
C62   H121  S    
C146  O32   A    
Cu5   Cu7   S    
C36   H84   S    
C7    C113  A    
C6    C79   A    
C215  N7    A    
C155  O15   A    
Cu4   O41   S    
C96   H52   S    
C80   H6    S    
C78   C80   S    
C94   C95   S    
C78   H8    S    
Cu6   O23   S    
N5    N12   A    
C164  C182  A    
C221  N23   A    
Cu2   O33   S    
C29   C136  S    
C98   C193  S    
C116  N19   T    
C5    C110  S    
C103  C104  S    
C176  C194  A    
C161  C178  A    
C7    C114  S    
C23   C214  A    
Cu11  O4    S    
C114  N17   T    
C40   H13   S    
Cu8   O18   S    
C2    C18   A    
C90   C112  S    
C203  O8    A    
C81   C82   S    
N7    N34   A    
C118  N21   T    
C42   H68   S    
C28   C57   A    
C66   H130  S    
C193  C204  A    
C82   H11   S    
C42   H70   S    
C150  O38   A    
C38   H139  S    
C45   H85   S    
C59   H116  S    
C33   C140  S    
C55   H103  S    
C188  C201  A    
C75   H152  S    
C143  O27   A    
C78   C183  S    
C92   H41   S    
C69   H135  S    
Cu11  O24   S    
C8    C115  S    
C220  N34   A    
C65   H133  S    
C17   C123  S    
C182  C197  A    
C5    C22   A    
C20   C24   A    
C48   H90   S    
C64   H126  S    
C17   C222  A    
C191  C202  A    
C185  C198  A    
C73   H148  S    
C5    C90   A    
C150  O42   A    
C103  H67   S    
C187  C200  A    
C157  C210  S    
C2    C143  S    
C98   H58   S    
C76   C182  S    
Cu12  O29   S    
Cu8   Cu10  S    
C219  N46   A    
C52   H101  S    
C160  C212  S    
C95   H43   S    
C74   C75   S    
C120  N24   T    
C62   H119  S    
C146  O30   A    
C32   C35   A    
C51   H93   S    
C152  C205  S    
C24   C25   A    
C128  N31   T    
C67   C177  S    
C103  C195  S    
C59   H118  S    
C70   C178  S    
C179  C197  A    
C204  C213  S    
C163  C205  A    
Cu4   O43   S    
C67   C69   S    
C60   H114  S    
C16   C142  A    
Cu10  O7    S    
C106  N10   T    
C16   C33   A    
C184  C199  A    
C169  C209  A    
C96   C97   S    
C47   H82   S    
C100  C102  S    
C124  C170  S    
C175  C212  A    
Cu9   Cu11  S    
C162  C179  A    
C189  C200  A    
C71   H143  S    
C61   H123  S    
C77   H157  S    
Cu12  O27   S    
C159  O34   A    
C26   C132  S    
Cu4   O40   S    
C132  N36   T    
C40   H35   S    
C85   C186  S    
C104  H66   S    
C15   C121  S    
C82   H9    S    
C54   C171  S    
C85   H25   S    
C91   H33   S    
C190  C201  A    
C63   C175  S    
C102  H59   S    
C148  O44   A    
C100  C194  S    
C107  N11   T    
C142  C203  S    
C80   H4    S    
C93   H38   S    
C22   C129  S    
C117  N20   T    
C4    C21   A    
C6    C23   A    
C119  N22   T    
C130  N33   T    
C11   C142  A    
C49   H86   S    
C115  N18   T    
C153  C206  S    
C149  O43   A    
Cu3   O37   S    
C74   C180  S    
C11   C29   A    
C65   C66   S    
C148  O23   A    
C163  C180  A    
C144  O28   A    
Cu6   O16   S    
C83   C185  S    
C153  O10   A    
C72   C179  S    
C99   H53   S    
C100  H62   S    
C73   H146  S    
C88   H27   S    
