data_mof_unit_38311.cif
_audit_creation_date              2012-12-11T14:57:59-0500
_audit_creation_method            fapswitch 2.2
_symmetry_space_group_name_H-M    P1
_symmetry_Int_Tables_number       1
_space_group_crystal_system       triclinic
_cell_length_a                    6.938806
_cell_length_b                    16.786297
_cell_length_c                    17.036308
_cell_angle_alpha                 100.511143
_cell_angle_beta                  90.37496
_cell_angle_gamma                 90.51346
_cell_volume                      1950.89153255

loop_
_atom_site_label
_atom_site_type_symbol
_atom_type_description
_atom_site_fract_x
_atom_site_fract_y
_atom_site_fract_z
_atom_type_partial_charge
O1    O     O_R   0.506180 0.438940 0.579430 -0.535752
O2    O     O_R   0.170520 0.406230 0.413590 -0.537635
O3    O     O_R   0.005180 0.561060 0.420570 -0.537667
C1    C     C_R   0.339110 0.383398 0.385003 0.695804
O4    O     O_R   0.176140 0.429310 0.578370 -0.550233
O5    O     O_R   0.010830 0.584300 0.586530 -0.535552
C2    C     C_R   0.343301 0.413278 0.604985 0.700138
O6    O     O_R   0.500520 0.415700 0.413470 -0.535365
O7    O     O_3   0.340830 0.550820 0.502480 -0.367415
V1    V     V_3+5 0.064040 0.490570 0.499540 1.414046
O8    O     O_R   0.681400 0.593770 0.586410 -0.537289
C3    C     C_R   0.851228 0.616398 0.614929 0.696108
O9    O     O_R   0.675790 0.570690 0.421630 -0.546860
C4    C     C_R   0.842658 0.586468 0.394794 0.696540
V2    V     V_3+5 0.564650 0.509430 0.500460 1.419064
O10   O     O_3   0.837730 0.449180 0.497520 -0.368612
C5    C     C_R   0.928628 0.860326 0.166355 -0.066363
C6    C     C_R   0.837861 0.639544 0.333442 -0.066338
C7    C     C_R   0.645435 0.698412 0.237622 -0.207631
C8    C     C_R   0.665902 0.643450 0.289486 -0.167459
C9    C     C_R   0.991426 0.691611 0.322972 -0.244928
C10   C     C_R   0.970644 0.748049 0.271281 0.162095
C11   C     C_R   0.795902 0.751790 0.228481 0.162063
C12   C     C_R   0.775095 0.808240 0.176809 -0.243987
C13   C     C_R   0.100618 0.856406 0.210285 -0.166977
C14   C     C_R   0.121114 0.801426 0.262133 -0.208196
H1    H     H_    0.642635 0.809730 0.143026 0.123579
H2    H     H_    0.222246 0.895399 0.203715 0.123307
H3    H     H_    0.510723 0.699701 0.205343 0.122091
H4    H     H_    0.255835 0.800133 0.294405 0.121608
H5    H     H_    0.544254 0.604469 0.296059 0.123286
H6    H     H_    0.123873 0.690128 0.356765 0.123092
H7    H     H_    0.086700 0.630080 0.969275 0.114509
C15   C     C_R   0.795753 0.909221 0.728510 -0.142076
C16   C     C_R   0.736388 0.923621 0.654123 -0.124582
C17   C     C_R   0.719650 0.859815 0.589748 -0.117705
C18   C     C_R   0.761857 0.781130 0.599315 -0.139082
C19   C     C_R   0.820530 0.764485 0.674380 0.071627
C20   C     C_R   0.838098 0.829894 0.740320 0.068974
C21   C     C_R   0.864970 0.684552 0.684082 -0.163888
C22   C     C_R   0.926625 0.670064 0.759854 -0.002701
C23   C     C_R   0.944368 0.735503 0.825678 0.067859
C24   C     C_R   0.900439 0.815431 0.815923 -0.166968
C25   C     C_R   0.967568 0.590677 0.771909 -0.143321
C26   C     C_R   0.025659 0.575668 0.846440 0.397510
C27   C     C_R   0.042889 0.640425 0.910858 -0.211607
C28   C     C_R   0.002211 0.719015 0.900800 -0.181808
H8    H     H_    0.809493 0.961043 0.776328 0.098284
H9    H     H_    0.704442 0.984724 0.646311 0.117347
H10   H     H_    0.674738 0.871370 0.531919 0.115810
H11   H     H_    0.748958 0.733830 0.547090 0.103151
H12   H     H_    0.953138 0.539062 0.723849 0.112833
H13   H     H_    0.015312 0.766450 0.952907 0.122018
H14   H     H_    0.564775 0.487532 0.150703 0.119595
C29   C     C_R   0.241089 0.217204 0.396674 -0.140456
C30   C     C_R   0.201404 0.137773 0.405357 -0.118123
C31   C     C_R   0.231391 0.074098 0.342201 -0.126758
C32   C     C_R   0.301371 0.089354 0.269863 -0.136183
C33   C     C_R   0.341235 0.169379 0.258774 0.073824
C34   C     C_R   0.310333 0.234737 0.323670 0.067312
C35   C     C_R   0.414062 0.184458 0.185001 -0.186587
C36   C     C_R   0.456248 0.265227 0.176506 0.066390
C37   C     C_R   0.425351 0.330584 0.241404 0.074007
C38   C     C_R   0.352530 0.315503 0.315178 -0.186437
C39   C     C_R   0.525428 0.282764 0.103493 -0.139453
C40   C     C_R   0.565043 0.362199 0.094800 -0.114698
C41   C     C_R   0.535065 0.425872 0.157958 -0.127957
C42   C     C_R   0.465164 0.410611 0.230307 -0.136436
H15   H     H_    0.217376 0.264420 0.447936 0.104928
H16   H     H_    0.148169 0.125547 0.461611 0.114800
H17   H     H_    0.201624 0.012440 0.349446 0.118336
H18   H     H_    0.326004 0.037638 0.223155 0.097291
H19   H     H_    0.549130 0.235551 0.052229 0.107593
H20   H     H_    0.618216 0.374430 0.038537 0.122459
H21   H     H_    0.440534 0.462324 0.277018 0.097481
C43   C     C_R   0.427481 0.139559 0.833549 -0.065518
C44   C     C_R   0.338056 0.359676 0.665884 -0.081675
C45   C     C_R   0.145659 0.299536 0.760674 -0.172906
C46   C     C_R   0.166189 0.354469 0.708763 -0.103510
C47   C     C_R   0.490959 0.308453 0.677013 -0.238339
C48   C     C_R   0.469805 0.251814 0.728530 0.163359
C49   C     C_R   0.295593 0.247174 0.770645 0.142785
C50   C     C_R   0.274689 0.190812 0.822433 -0.239303
C51   C     C_R   0.598672 0.144100 0.790029 -0.166246
C52   C     C_R   0.619341 0.199117 0.738183 -0.200696
H22   H     H_    0.142701 0.188711 0.855735 0.123341
H23   H     H_    0.719560 0.105572 0.796907 0.122296
H24   H     H_    0.011362 0.297543 0.792409 0.131790
H25   H     H_    0.753407 0.200921 0.706249 0.116110
H26   H     H_    0.044809 0.392632 0.701544 0.142793
H27   H     H_    0.623185 0.310786 0.643918 0.122331
O11   O     O_R   0.265840 0.084300 0.086750 -0.535071
O12   O     O_R   0.589750 0.070740 0.921690 -0.547262
O13   O     O_R   0.755020 0.915730 0.913400 -0.535681
C53   C     C_R   0.422537 0.086495 0.894917 0.696261
O14   O     O_R   0.595830 0.093740 0.086480 -0.537400
O15   O     O_R   0.761150 0.938890 0.079360 -0.537617
C54   C     C_R   0.427320 0.116576 0.115157 0.697236
O16   O     O_R   0.259710 0.061140 0.920790 -0.537442
O17   O     O_3   0.425260 0.949200 0.997610 -0.367330
V3    V     V_3+5 0.702060 0.009430 0.000450 1.415036
O18   O     O_R   0.090530 0.929220 0.078150 -0.546502
C55   C     C_R   0.923726 0.913447 0.105047 0.696891
O19   O     O_R   0.084440 0.906220 0.913360 -0.537925
C56   C     C_R   0.914514 0.883615 0.884969 0.695835
V4    V     V_3+5 0.201450 0.990520 0.999290 1.417555
O20   O     O_3   0.928380 0.050800 0.002390 -0.367797
O21   O     O_3   0.062927 0.496983 0.854491 -0.655012
H28   H     H_    0.102348 0.496488 0.910464 0.283938

loop_
_geom_bond_atom_site_label_1
_geom_bond_atom_site_label_2
_ccdc_geom_bond_type
V3    O20   S    
C29   C30   A    
O13   C56   A    
C6    C9    A    
C22   C23   A    
C4    C6    S    
O2    C1    A    
C7    C8    A    
C12   H1    S    
C1    O6    A    
C43   C51   A    
O19   V4    S    
C48   C49   A    
O11   C54   A    
C26   C27   A    
C30   C31   A    
C13   H2    S    
C36   C37   A    
C9    C10   A    
C17   C18   A    
C43   C53   S    
O5    C3    A    
C19   C20   A    
C18   H11   S    
C53   O16   A    
V4    O20   S    
V2    O10   S    
C40   H20   S    
C39   H19   S    
O21   H28   S    
C15   C16   A    
C24   C56   S    
C46   H26   S    
C37   C42   A    
O8    V2    S    
C16   C17   A    
O13   V3    S    
O14   C54   A    
C16   H9    S    
C11   C12   A    
C51   H23   S    
O1    V2    S    
O9    C4    A    
O7    V1    S    
C26   O21   S    
C2    C44   S    
C25   H12   S    
C40   C41   A    
C33   C34   A    
O12   C53   A    
C29   C34   A    
H7    C27   S    
C35   C36   A    
C43   C50   A    
O19   C56   A    
C44   C46   A    
C9    H6    S    
C33   C35   A    
C5    C12   A    
C41   C42   A    
C51   C52   A    
O12   V3    S    
O4    C2    A    
C52   H25   S    
C45   C46   A    
C20   C24   A    
H14   C41   S    
C32   C33   A    
C49   C50   A    
C15   C20   A    
C42   H21   S    
C3    C21   S    
C7    C11   A    
C18   C19   A    
C45   C49   A    
C5    C55   S    
C29   H15   S    
C31   H17   S    
O15   C55   A    
O3    C4    A    
O11   V4    S    
C21   C22   A    
C14   H4    S    
O6    V2    S    
C30   H16   S    
O9    V2    S    
C22   C25   A    
C15   H8    S    
C23   C24   A    
O2    V1    S    
C17   H10   S    
C25   C26   A    
C44   C47   A    
C45   H24   S    
O16   V4    S    
C27   C28   A    
C36   C39   A    
O1    C2    A    
C47   C48   A    
O5    V1    S    
O8    C3    A    
C1    C38   S    
O17   V4    S    
C28   H13   S    
C34   C38   A    
C5    C13   A    
C47   H27   S    
C13   C14   A    
O4    V1    S    
O3    V1    S    
V1    O10   S    
C19   C21   A    
C35   C54   S    
C32   H18   S    
C31   C32   A    
O17   V3    S    
O18   V4    S    
C6    C8    A    
C23   C28   A    
O7    V2    S    
O18   C55   A    
O15   V3    S    
C37   C38   A    
C50   H22   S    
C39   C40   A    
C10   C14   A    
C10   C11   A    
O14   V3    S    
C48   C52   A    
C8    H5    S    
C7    H3    S    
