data_mof_unit_15673.cif
_audit_creation_date              2013-03-05T16:14:17-0500
_audit_creation_method            fapswitch 2.2
_symmetry_space_group_name_H-M    P1
_symmetry_Int_Tables_number       1
_space_group_crystal_system       triclinic
_cell_length_a                    10.977929
_cell_length_b                    11.060959
_cell_length_c                    10.16468
_cell_angle_alpha                 92.42099
_cell_angle_beta                  90.894279
_cell_angle_gamma                 94.441105
_cell_volume                      1229.23561932

loop_
_atom_site_label
_atom_site_type_symbol
_atom_site_description
_atom_site_fract_x
_atom_site_fract_y
_atom_site_fract_z
_atom_type_partial_charge
O1    O     O_R   0.499990 0.316750 0.614620 -0.647950
O2    O     O_R   0.500010 0.683250 0.385380 -0.647951
O3    O     O_R   0.499990 0.316780 0.385290 -0.543497
O4    O     O_R   0.500010 0.683220 0.614710 -0.543457
C1    C     C_R   0.498152 0.260536 0.498711 0.897435
C2    C     C_R   0.501850 0.739464 0.501289 0.897437
O5    O     O_R   0.316760 0.500000 0.614660 -0.581847
O6    O     O_R   0.683240 0.500000 0.385340 -0.581838
O7    O     O_R   0.316760 0.500020 0.385330 -0.586483
O8    O     O_R   0.683240 0.499980 0.614670 -0.586492
C3    C     C_R   0.261022 0.505153 0.499046 0.880349
C4    C     C_R   0.738976 0.494841 0.500953 0.880339
Zn1   Zn    Zn3+2 0.500000 0.499980 0.653120 1.064518
Zn2   Zn    Zn3+2 0.500000 0.500020 0.346880 1.064511
C5    C     C_R   0.198478 0.687153 0.108143 -0.151747
C6    C     C_R   0.801496 0.312829 0.891851 -0.151751
H1    H     H_    0.228596 0.780599 0.090395 0.198200
H2    H     H_    0.771368 0.219385 0.909599 0.198204
C7    C     C_R   0.157986 0.657847 0.232296 0.051757
C8    C     C_R   0.841996 0.342133 0.767700 0.051771
C9    C     C_R   0.110592 0.538776 0.253074 0.053241
C10   C     C_R   0.889400 0.461201 0.746923 0.053243
C11   C     C_R   0.101895 0.451860 0.149396 -0.163113
C12   C     C_R   0.898096 0.548118 0.850600 -0.163140
H3    H     H_    0.061833 0.361616 0.167599 0.206200
H4    H     H_    0.938164 0.638360 0.832397 0.206193
C13   C     C_R   0.145858 0.478763 0.024576 0.265244
C14   C     C_R   0.854127 0.521219 0.975419 0.265236
C15   C     C_R   0.196629 0.599155 0.005207 -0.120596
C16   C     C_R   0.803348 0.400829 0.994787 -0.120580
C17   C     C_R   0.933121 0.488477 0.384441 -0.158077
C18   C     C_R   0.066874 0.511491 0.615557 -0.158085
H5    H     H_    0.884015 0.475714 0.293994 0.203953
H6    H     H_    0.115979 0.524244 0.706004 0.203959
C19   C     C_R   0.871978 0.489192 0.502894 -0.098861
C20   C     C_R   0.128018 0.510787 0.497104 -0.098858
C21   C     C_R   0.941203 0.493254 0.620078 0.021735
C22   C     C_R   0.058792 0.506720 0.379920 0.021747
C23   C     C_R   0.473170 0.056279 0.383680 0.288977
C24   C     C_R   0.526852 0.943723 0.616319 0.288984
C25   C     C_R   0.479593 0.931349 0.382075 -0.147565
C26   C     C_R   0.520424 0.068652 0.617925 -0.147572
C27   C     C_R   0.502950 0.872566 0.500120 -0.249792
C28   C     C_R   0.497064 0.127435 0.499880 -0.249786
C29   C     C_R   0.555160 0.592477 0.078344 -0.152305
C30   C     C_R   0.444840 0.407523 0.921656 -0.152320
H7    H     H_    0.597852 0.667055 0.137829 0.244899
H8    H     H_    0.402150 0.332944 0.862172 0.244905
C31   C     C_R   0.561209 0.591920 0.937528 0.310612
C32   C     C_R   0.438792 0.408079 0.062472 0.310579
N1    N     N_R   0.499970 0.499970 0.857200 -0.166941
N2    N     N_R   0.500030 0.500030 0.142800 -0.166942
C33   C     C_1   0.244134 0.642094 0.883553 0.243091
N3    N     N_1   0.282938 0.682682 0.788517 -0.112568
C34   C     C_1   0.755828 0.357895 0.116436 0.243070
N4    N     N_1   0.717008 0.317311 0.211467 -0.112599
N5    N     N_R   0.640661 0.686559 0.885289 0.247465
O9    O     O_R   0.687046 0.673997 0.769955 -0.329969
O10   O     O_R   0.686979 0.775541 0.963153 -0.275308
N6    N     N_R   0.359345 0.313440 0.114714 0.247460
O11   O     O_R   0.312950 0.326014 0.230041 -0.329949
O12   O     O_R   0.313031 0.224452 0.036855 -0.275307
C35   C     C_1   0.161312 0.752295 0.335277 0.209867
N7    N     N_1   0.164106 0.827844 0.417829 -0.144727
C36   C     C_1   0.838665 0.247683 0.664719 0.209870
N8    N     N_1   0.835869 0.172134 0.582168 -0.144745
N9    N     N_R   0.134920 0.383163 0.922849 0.197454
O13   O     O_R   0.204647 0.385531 0.821360 -0.428246
O14   O     O_R   0.067615 0.283329 0.940981 -0.341723
N10   N     N_R   0.865062 0.616820 0.077144 0.197456
O15   O     O_R   0.795356 0.614442 0.178647 -0.428250
O16   O     O_R   0.932352 0.716661 0.059004 -0.341705
N11   N     N_R   0.430233 0.107155 0.267110 0.240466
O17   O     O_R   0.508856 0.131691 0.175575 -0.345211
O18   O     O_R   0.316083 0.079925 0.233712 -0.303620
N12   N     N_R   0.569753 0.892842 0.732904 0.240482
O19   O     O_R   0.491074 0.868201 0.824359 -0.345234
O20   O     O_R   0.683869 0.920156 0.766411 -0.303644
C37   C     C_1   0.463488 0.869904 0.253558 0.378563
N13   N     N_1   0.450859 0.825818 0.148718 -0.153843
C38   C     C_1   0.536502 0.130092 0.746448 0.378548
N14   N     N_1   0.549110 0.174170 0.851296 -0.153826

loop_
_geom_bond_atom_site_label_1
_geom_bond_atom_site_label_2
_geom_bond_distance
_ccdc_geom_bond_type
C34   N4    1.155874 T    
C13   C15   1.425951 A    
C25   C27   1.417875 A    
N11   O17   1.301699 A    
C38   N14   1.154865 T    
C23   C25   1.388507 A    
C33   N3    1.155884 T    
O5    C3    1.321853 A    
O1    C1    1.307881 A    
C18   C20   1.387647 A    
C3    C20   1.466116 S    
C7    C9    1.403812 A    
C12   H4    1.083608 S    
N5    O10   1.302992 A    
C6    C16   1.397438 A    
C31   N5    1.434748 S    
N6    O12   1.302993 A    
O4    Zn1   2.080195 S    
Zn1   N1    2.074418 S    
C24   C27   1.401133 A    
Zn2   N2    2.074418 S    
C9    C22   1.463481 S    
C7    C35   1.445326 S    
C31   N1    1.399952 A    
C32   N2    1.399947 A    
C17   H5    1.057141 S    
N10   O15   1.294059 A    
C11   C13   1.399992 A    
C6    C8    1.387449 A    
C24   C26   1.388506 A    
N11   O18   1.302273 A    
O2    C2    1.307884 A    
C26   C38   1.448758 S    
C26   C28   1.417876 A    
C5    C15   1.397435 A    
C29   H7    1.074644 S    
C30   H8    1.074639 S    
N9    O13   1.294076 A    
C8    C36   1.445327 S    
N12   O19   1.301733 A    
O4    C2    1.332651 A    
C29   N2    1.346954 A    
C10   C21   1.463486 S    
C30   N1    1.346953 A    
C35   N7    1.157294 T    
N6    O11   1.291817 A    
N9    O14   1.301683 A    
C18   H6    1.057131 S    
C5    C7    1.387445 A    
O7    Zn2   2.055191 S    
C29   C31   1.433702 A    
O6    C4    1.321850 A    
C18   C21   1.380506 A    
C4    C19   1.466107 S    
O7    C3    1.317431 A    
O3    Zn2   2.080194 S    
O8    C4    1.317431 A    
C1    C28   1.471895 S    
C8    C10   1.403816 A    
C2    C27   1.471896 S    
C9    C11   1.393205 A    
C17   C19   1.387645 A    
O1    Zn1   2.047832 S    
C5    H1    1.083915 S    
O6    Zn2   2.043250 S    
C19   C21   1.400098 A    
C14   N10   1.444253 S    
C12   C14   1.399995 A    
N12   O20   1.302318 A    
O3    C1    1.332652 A    
O8    Zn1   2.055189 S    
C25   C37   1.448741 S    
C23   C28   1.401126 A    
C16   C34   1.434585 S    
C30   C32   1.433698 A    
C17   C22   1.380510 A    
C32   N6    1.434739 S    
C14   C16   1.425957 A    
N5    O9    1.291820 A    
C15   C33   1.434590 S    
C20   C22   1.400103 A    
C10   C12   1.393205 A    
C23   N11   1.422262 S    
O2    Zn2   2.047832 S    
C13   N9    1.444250 S    
C37   N13   1.154854 T    
C24   N12   1.422274 S    
O5    Zn1   2.043252 S    
C11   H3    1.083606 S    
C6    H2    1.083923 S    
C36   N8    1.157295 T    
N10   O16   1.301670 A    
