data_mof_unit_45992.cif
_audit_creation_date              2012-10-26T18:43:51-0400
_audit_creation_method            fapswitch 2.2
_symmetry_space_group_name_H-M    P1
_symmetry_Int_Tables_number       1
_space_group_crystal_system       triclinic
_cell_length_a                    9.555989
_cell_length_b                    10.857815
_cell_length_c                    17.223596
_cell_angle_alpha                 90.424906
_cell_angle_beta                  86.450292
_cell_angle_gamma                 90.214686
_cell_volume                      1783.58412314

loop_
_atom_site_label
_atom_site_type_symbol
_atom_type_description
_atom_site_fract_x
_atom_site_fract_y
_atom_site_fract_z
_atom_type_partial_charge
C1    C     C_R   0.500318 0.737257 0.499795 0.560987
C2    C     C_R   0.527275 0.474609 0.265920 0.005029
C3    C     C_R   0.379071 0.937569 0.501287 0.019637
C4    C     C_R   0.482267 0.500842 0.650180 0.556569
C5    C     C_R   0.502138 0.869891 0.498853 0.016473
C6    C     C_R   0.629936 0.935851 0.495282 -0.143563
C7    C     C_R   0.629761 0.065021 0.495162 -0.153612
C8    C     C_R   0.501760 0.130105 0.498534 0.012108
C9    C     C_R   0.378893 0.061562 0.501016 0.020079
C10   C     C_3   0.223017 0.069946 0.506152 -0.262030
C11   C     C_3   0.223171 0.928077 0.506509 -0.265855
C12   C     C_R   0.347384 0.474611 0.777539 -0.125561
C13   C     C_R   0.930255 0.410980 0.460396 0.145103
C14   C     C_R   0.921971 0.579417 0.546071 0.074897
C15   C     C_R   0.070652 0.579337 0.545639 -0.019446
C16   C     C_R   0.500050 0.262743 0.499590 0.551964
C17   C     C_R   0.077526 0.411155 0.460294 0.152236
C18   C     C_3   0.091802 0.386162 0.374986 -0.278893
C19   C     C_3   0.933148 0.384815 0.375308 -0.270691
C20   C     C_R   0.517926 0.495571 0.349992 0.541721
C21   C     C_R   0.474465 0.500177 0.735303 0.016438
C22   C     C_R   0.595969 0.522685 0.775060 -0.101548
C23   C     C_R   0.427798 0.385294 0.152089 0.000565
C24   C     C_R   0.591444 0.516307 0.855612 -0.052589
C25   C     C_R   0.466391 0.483990 0.897247 0.076915
C26   C     C_R   0.343447 0.467026 0.858371 -0.098324
C27   C     C_1   0.846789 0.666749 0.595874 0.217134
C28   C     C_2   0.661323 0.323734 0.985329 0.233060
C29   C     C_1   0.314450 0.318450 0.119042 0.187478
C30   C     C_R   0.418783 0.411281 0.231474 -0.131801
C31   C     C_R   0.647583 0.509212 0.220553 -0.128061
C32   C     C_R   0.657296 0.483846 0.141048 -0.138207
C33   C     C_R   0.547211 0.423306 0.106299 -0.016322
C34   C     C_2   0.461718 0.473861 0.981996 -0.099780
C35   C     C_2   0.554315 0.409156 0.021402 0.002609
Cu1   Cu    Cu3+1 0.359330 0.500020 0.500000 0.941717
Cu2   Cu    Cu3+1 0.640670 0.499980 0.500000 0.965299
H1    H     H_    0.694797 0.544620 0.744025 0.144789
H2    H     H_    0.139004 0.464946 0.341795 0.152548
H3    H     H_    0.328512 0.379293 0.266641 0.114399
H4    H     H_    0.139725 0.294864 0.361231 0.118783
H5    H     H_    0.891460 0.461754 0.341542 0.152611
H6    H     H_    0.889104 0.292490 0.362513 0.128688
H7    H     H_    0.733031 0.557086 0.246343 0.119361
H8    H     H_    0.245471 0.445271 0.890454 0.122663
H9    H     H_    0.252043 0.458055 0.748154 0.132400
H10   H     H_    0.379969 0.526092 0.014159 0.109550
H11   H     H_    0.685908 0.534757 0.885455 0.119600
H12   H     H_    0.749245 0.513848 0.106192 0.111135
H13   H     H_    0.748760 0.295879 0.018423 0.111522
H14   H     H_    0.729658 0.888472 0.492745 0.146674
H15   H     H_    0.729436 0.113119 0.492641 0.137586
H16   H     H_    0.181513 0.111709 0.561993 0.151979
H17   H     H_    0.181937 0.109739 0.452858 0.132906
H18   H     H_    0.181778 0.888088 0.562591 0.141443
H19   H     H_    0.182111 0.885886 0.453455 0.141996
H20   H     H_    0.124151 0.644712 0.581322 0.117564
N1    N     N_R   0.852130 0.499070 0.499500 -0.245002
N2    N     N_R   0.148040 0.499110 0.499500 -0.240604
N3    N     N_1   0.787390 0.737395 0.636220 -0.317122
N4    N     N_1   0.223652 0.264978 0.092561 -0.297792
O1    O     O_R   0.381190 0.680360 0.500000 -0.507024
O2    O     O_R   0.618770 0.680320 0.499990 -0.498121
O3    O     O_R   0.367430 0.500040 0.613600 -0.509709
O4    O     O_R   0.605020 0.500000 0.613590 -0.492283
O5    O     O_R   0.381230 0.319680 0.500010 -0.499463
O6    O     O_R   0.618810 0.319640 0.500000 -0.507303
O7    O     O_R   0.394980 0.500000 0.386410 -0.508505
O8    O     O_R   0.632570 0.499960 0.386400 -0.512659
O9    O     O_2   0.649898 0.278936 0.920803 -0.484344

loop_
_geom_bond_atom_site_label_1
_geom_bond_atom_site_label_2
_ccdc_geom_bond_type
C8    C9    A    
C18   H2    S    
Cu1   O7    S    
C6    C7    A    
C3    C9    A    
Cu2   O8    S    
C14   C27   S    
C9    C10   S    
C4    O3    A    
Cu1   O5    S    
C31   C32   A    
C19   H5    S    
C13   C17   A    
C25   C34   S    
C2    C30   A    
Cu1   N2    S    
C32   C33   A    
C17   C18   S    
C30   H3    S    
C7    C8    A    
C8    C16   S    
C16   O6    A    
C21   C22   A    
C1    O1    A    
C4    C21   S    
C15   H20   S    
C4    O4    A    
C15   N2    A    
C17   N2    A    
Cu1   O1    S    
Cu2   O6    S    
Cu2   O4    S    
Cu1   Cu2   S    
C33   C35   S    
C19   H6    S    
C7    H15   S    
C34   C35   D    
C29   N4    T    
C27   N3    T    
C5    C6    A    
C14   N1    A    
C22   C24   A    
C20   O8    A    
C3    C11   S    
C10   C11   S    
C13   C19   S    
C10   H17   S    
C2    C20   S    
C24   H11   S    
C23   C30   A    
C23   C29   S    
C1    C5    S    
C11   H18   S    
C16   O5    A    
C24   C25   A    
C23   C33   A    
C12   H9    S    
C18   C19   S    
C31   H7    S    
C18   H4    S    
C13   N1    A    
C10   H16   S    
C14   C15   A    
C1    O2    A    
C34   H10   S    
C26   H8    S    
Cu2   O2    S    
C25   C26   A    
Cu1   O3    S    
C32   H12   S    
C28   H13   S    
C12   C21   A    
C20   O7    A    
C28   O9    D    
C11   H19   S    
Cu2   N1    S    
C28   C35   S    
C12   C26   A    
C2    C31   A    
C3    C5    A    
C6    H14   S    
C22   H1    S    
