data_mof_unit_37657.cif
_audit_creation_date              2012-12-11T14:17:39-0500
_audit_creation_method            fapswitch 2.2
_symmetry_space_group_name_H-M    P1
_symmetry_Int_Tables_number       1
_space_group_crystal_system       triclinic
_cell_length_a                    6.974402
_cell_length_b                    13.640327
_cell_length_c                    20.480054
_cell_angle_alpha                 102.594465
_cell_angle_beta                  90.38056
_cell_angle_gamma                 90.901975
_cell_volume                      1901.11349897

loop_
_atom_site_label
_atom_site_type_symbol
_atom_type_description
_atom_site_fract_x
_atom_site_fract_y
_atom_site_fract_z
_atom_type_partial_charge
O1    O     O_R   0.506860 0.599390 0.449240 -0.543911
O2    O     O_R   0.180220 0.594600 0.586780 -0.544649
O3    O     O_R   0.004500 0.400610 0.550760 -0.547723
C1    C     C_R   0.349586 0.616047 0.613380 0.735992
O4    O     O_R   0.177490 0.611290 0.451970 -0.542824
O5    O     O_R   0.001750 0.417420 0.414990 -0.538102
C2    C     C_R   0.346538 0.637039 0.435291 0.693336
O6    O     O_R   0.509610 0.582580 0.585010 -0.545567
O7    O     O_3   0.337420 0.436370 0.488020 -0.370323
V1    V     V_3+5 0.064680 0.511800 0.502220 1.416443
O8    O     O_R   0.671710 0.405400 0.413220 -0.539626
C3    C     C_R   0.837972 0.385189 0.386321 0.768148
O9    O     O_R   0.674440 0.388710 0.548030 -0.530383
C4    C     C_R   0.842107 0.362955 0.565524 0.749951
V2    V     V_3+5 0.564010 0.488200 0.497780 1.441922
O10   O     O_3   0.841140 0.563630 0.511980 -0.380174
C5    C     C_R   0.785014 0.112977 0.613805 -0.247645
H1    H     H_    0.763187 0.988720 0.696281 0.121300
H2    H     H_    0.747143 0.036084 0.589803 0.128274
C6    C     C_R   0.845012 0.284855 0.604964 -0.125628
C7    C     C_R   0.901217 0.314517 0.928243 -0.168734
C8    C     C_R   0.915584 0.390159 0.892681 -0.122059
C9    C     C_R   0.899748 0.367624 0.823112 -0.159157
C10   C     C_R   0.867294 0.267672 0.786977 0.093371
C11   C     C_R   0.848397 0.190600 0.824062 0.066137
C12   C     C_R   0.851934 0.241674 0.715462 0.080797
C13   C     C_R   0.811189 0.140175 0.683335 0.084431
C14   C     C_R   0.793237 0.066327 0.720721 -0.178594
C15   C     C_R   0.813129 0.090776 0.789824 -0.196431
C16   C     C_R   0.872273 0.312797 0.674556 -0.291950
C17   C     C_R   0.801510 0.184534 0.574456 0.406770
C18   C     C_R   0.867239 0.214919 0.894834 -0.072168
H3    H     H_    0.903618 0.391067 0.695214 0.116816
H4    H     H_    0.918182 0.333612 0.982197 0.098289
H5    H     H_    0.912980 0.430337 0.799265 0.107915
H6    H     H_    0.941211 0.467068 0.919252 0.119287
H7    H     H_    0.798388 0.030521 0.816283 0.117937
C19   C     C_2   0.927019 0.234663 0.302295 -0.204396
C20   C     C_2   0.833898 0.321709 0.317957 -0.320501
H8    H     H_    0.013288 0.212249 0.340775 0.133703
H9    H     H_    0.730328 0.339868 0.282785 0.120255
C21   C     C_2   0.899898 0.160436 0.237205 0.208252
C22   C     C_2   0.873129 0.188804 0.178569 -0.302422
H10   H     H_    0.866232 0.267925 0.177666 0.078078
C23   C     C_2   0.204609 0.790668 0.781793 -0.137311
C24   C     C_2   0.362465 0.815381 0.820112 -0.304986
H11   H     H_    0.067590 0.821068 0.800502 0.131957
H12   H     H_    0.500061 0.785102 0.802638 0.128190
C25   C     C_2   0.203922 0.721952 0.714281 -0.130936
C26   C     C_2   0.361898 0.684546 0.680205 -0.311322
H13   H     H_    0.063352 0.702338 0.691638 0.134625
H14   H     H_    0.504426 0.703868 0.700689 0.124041
C27   C     C_R   0.327242 0.888646 0.393388 -0.151246
H15   H     H_    0.321062 0.835201 0.484119 0.103492
H16   H     H_    0.300340 0.013888 0.316671 0.118091
H17   H     H_    0.310712 0.966067 0.419748 0.120537
C28   C     C_R   0.355090 0.714981 0.397339 -0.028469
C29   C     C_R   0.372245 0.692259 0.075938 -0.178474
C30   C     C_R   0.378712 0.616013 0.110670 -0.116750
C31   C     C_R   0.374749 0.638197 0.180093 -0.133105
C32   C     C_R   0.362086 0.738530 0.217235 0.029213
C33   C     C_R   0.350900 0.817880 0.181475 -0.012177
C34   C     C_R   0.358192 0.761853 0.288755 0.072479
C35   C     C_R   0.338173 0.862889 0.323321 0.094566
C36   C     C_R   0.324280 0.938331 0.288377 -0.313957
C37   C     C_R   0.334212 0.918961 0.218393 0.367887
C38   C     C_R   0.369393 0.688295 0.327695 -0.201656
C39   C     C_R   0.334003 0.814783 0.430168 -0.174018
C40   C     C_R   0.358978 0.792465 0.109974 -0.073765
H18   H     H_    0.384727 0.609530 0.305949 0.089493
H19   H     H_    0.379179 0.672996 0.021780 0.099791
H20   H     H_    0.381056 0.574383 0.202933 0.100734
H21   H     H_    0.388676 0.538730 0.083500 0.113987
O11   O     O_R   0.203230 0.917310 0.915020 -0.540745
O12   O     O_R   0.535500 0.888690 0.048040 -0.550168
O13   O     O_R   0.711080 0.082610 0.085000 -0.554284
C41   C     C_R   0.367324 0.867448 0.068581 0.782429
O14   O     O_R   0.532630 0.905370 0.913230 -0.549934
O15   O     O_R   0.708190 0.099410 0.949230 -0.542363
C42   C     C_R   0.363808 0.884203 0.886651 0.736573
O16   O     O_R   0.206120 0.900510 0.050790 -0.520712
O17   O     O_3   0.375360 0.063570 0.011990 -0.383877
V3    V     V_3+5 0.648170 0.988200 0.997780 1.411452
O18   O     O_R   0.038240 0.111390 0.951940 -0.544412
C43   C     C_R   0.870484 0.137051 0.934520 0.671659
O19   O     O_R   0.041120 0.094710 0.086750 -0.524783
C44   C     C_R   0.874355 0.116199 0.113250 0.804071
V4    V     V_3+5 0.148810 0.011930 0.002180 1.454229
O20   O     O_3   0.871750 0.936430 0.988010 -0.375167
O21   O     O_3   0.754663 0.158278 0.507177 -0.557716
C45   C     C_3   0.906465 0.104170 0.471659 0.075177
H22   H     H_    0.976925 0.051973 0.499089 0.114531
H23   H     H_    0.016461 0.157923 0.460422 0.120799
C46   C     C_3   0.827371 0.041319 0.406284 -0.726753
H24   H     H_    0.749320 0.090090 0.378619 0.224179
H25   H     H_    0.946448 0.004011 0.375264 0.180963
H26   H     H_    0.726567 0.982823 0.416577 0.232287
N1    N     N_3   0.915308 0.055820 0.237082 -0.638336
H27   H     H_    0.799379 0.035241 0.263369 0.198435
H28   H     H_    0.035501 0.048504 0.265543 0.257424
O22   O     O_3   0.302474 0.997523 0.186566 -0.550016
C47   C     C_3   0.445839 0.072988 0.205792 0.099563
H29   H     H_    0.579295 0.044204 0.181235 0.158223
H30   H     H_    0.474401 0.094632 0.260430 0.099741
C48   C     C_3   0.389930 0.169352 0.185146 -0.647460
H31   H     H_    0.502902 0.227877 0.200607 0.151435
H32   H     H_    0.370003 0.156611 0.130452 0.243860
H33   H     H_    0.257505 0.199025 0.210632 0.214353

loop_
_geom_bond_atom_site_label_1
_geom_bond_atom_site_label_2
_ccdc_geom_bond_type
C19   H8    S    
O22   C47   S    
C40   C41   S    
C1    O6    A    
C20   H9    S    
C6    C16   A    
C23   C24   D    
C48   H32   S    
C12   C13   A    
C14   C15   A    
C10   C12   A    
C19   C21   S    
C21   N1    S    
O5    C3    A    
C19   C20   D    
C27   C35   A    
O14   C42   A    
C29   H19   S    
H15   C39   S    
C31   H20   S    
V2    O10   S    
N1    H27   S    
C47   C48   S    
C32   C34   A    
C27   C39   A    
O8    V2    S    
O14   V3    S    
C25   H13   S    
C26   H14   S    
C9    C10   A    
O1    V2    S    
C41   O16   A    
O7    V1    S    
C30   H21   S    
C32   C33   A    
C46   H25   S    
C11   C18   A    
C30   C31   A    
O11   C42   A    
O9    C4    A    
C37   O22   S    
C47   H29   S    
C28   C38   A    
O13   V3    S    
H16   C36   S    
C24   H12   S    
C23   H11   S    
C11   C15   A    
V3    O20   S    
C7    C18   A    
C34   C38   A    
C33   C37   A    
C5    C13   A    
C4    C6    S    
H1    C14   S    
C10   C11   A    
C45   H22   S    
O4    C2    A    
O19   C44   A    
C7    H4    S    
C46   H26   S    
C29   C30   A    
O17   V3    S    
C33   C40   A    
C1    C26   S    
C31   C32   A    
O2    C1    A    
C22   H10   S    
C45   H23   S    
C23   C25   S    
C17   O21   S    
C48   H33   S    
O18   C43   A    
C47   H30   S    
O12   C41   A    
O13   C44   A    
O3    C4    A    
C12   C16   A    
O6    V2    S    
N1    H28   S    
O9    V2    S    
C5    C17   A    
C21   C22   D    
C28   C39   A    
O2    V1    S    
O15   C43   A    
C27   H17   S    
C16   H3    S    
O1    C2    A    
O18   V4    S    
O5    V1    S    
O8    C3    A    
C29   C40   A    
C8    H6    S    
C48   H31   S    
C9    H5    S    
C38   H18   S    
C22   C44   S    
C35   C36   A    
C3    C20   S    
O7    V2    S    
O4    V1    S    
O3    V1    S    
V1    O10   S    
C45   C46   S    
O15   V3    S    
O12   V3    S    
O21   C45   S    
O17   V4    S    
C18   C43   S    
C5    H2    S    
O19   V4    S    
C36   C37   A    
C46   H24   S    
O16   V4    S    
C34   C35   A    
V4    O20   S    
C25   C26   D    
C15   H7    S    
C13   C14   A    
C8    C9    A    
C24   C42   S    
O11   V4    S    
C7    C8    A    
C2    C28   S    
C6    C17   A    
