data_mof_unit_13514.cif
_audit_creation_date              2013-03-05T16:42:12-0500
_audit_creation_method            fapswitch 2.2
_symmetry_space_group_name_H-M    P1
_symmetry_Int_Tables_number       1
_space_group_crystal_system       triclinic
_cell_length_a                    14.932254
_cell_length_b                    10.778676
_cell_length_c                    9.917932
_cell_angle_alpha                 90.247705
_cell_angle_beta                  88.623228
_cell_angle_gamma                 90.319749
_cell_volume                      1595.79074927

loop_
_atom_site_label
_atom_site_type_symbol
_atom_site_description
_atom_site_fract_x
_atom_site_fract_y
_atom_site_fract_z
_atom_type_partial_charge
O1    O     O_R   0.500010 0.316790 0.614690 -0.600936
O2    O     O_R   0.500000 0.316760 0.385350 -0.586743
C1    C     C_R   0.502999 0.260312 0.499223 0.966650
O3    O     O_R   0.367850 0.499990 0.614680 -0.609519
O4    O     O_R   0.367840 0.499950 0.385340 -0.605219
C2    C     C_R   0.327449 0.497659 0.501495 0.928751
Zn1   Zn    Zn3+2 0.500010 0.500020 0.653130 1.056139
Zn2   Zn    Zn3+2 0.499990 0.499980 0.346870 1.136304
O5    O     O_R   0.500000 0.683240 0.614650 -0.585398
O6    O     O_R   0.499990 0.683210 0.385310 -0.574079
O7    O     O_R   0.632160 0.500050 0.614660 -0.622900
O8    O     O_R   0.632150 0.500010 0.385320 -0.554885
C3    C     C_R   0.503185 0.739742 0.499346 0.978279
C4    C     C_R   0.672881 0.500969 0.498666 0.987983
C5    C     C_R   0.816371 0.605542 0.459744 0.265757
C6    C     C_R   0.768751 0.497867 0.494794 -0.256702
C7    C     C_R   0.811312 0.388159 0.531771 0.251497
C8    C     C_R   0.905258 0.382560 0.527560 -0.068709
C9    C     C_R   0.954029 0.490956 0.488360 -0.038944
C10   C     C_R   0.909731 0.600111 0.445884 -0.076423
C11   C     C_R   0.952560 0.273433 0.562384 0.315312
C12   C     C_R   0.045324 0.276904 0.569032 -0.226048
C13   C     C_R   0.093262 0.383934 0.534581 -0.018286
C14   C     C_R   0.047647 0.491202 0.493337 0.057305
C15   C     C_R   0.096158 0.599112 0.457063 0.078669
C16   C     C_R   0.052988 0.702194 0.406382 -0.178545
C17   C     C_R   0.960547 0.701645 0.393499 0.321830
C18   C     C_R   0.186882 0.384193 0.534876 0.413640
C19   C     C_R   0.232530 0.494474 0.504261 -0.145280
C20   C     C_R   0.188275 0.600853 0.466221 -0.189599
H1    H     H_    0.080001 0.193237 0.597265 0.211003
H2    H     H_    0.226148 0.684151 0.440931 0.199109
H3    H     H_    0.091955 0.780924 0.369889 0.196151
C21   C     C_R   0.519176 0.063009 0.615182 0.036112
C22   C     C_R   0.517557 0.129326 0.495832 -0.205540
C23   C     C_R   0.534093 0.064927 0.372961 0.222525
C24   C     C_R   0.531203 0.935495 0.371857 0.230277
C25   C     C_R   0.517191 0.871072 0.495590 -0.215747
C26   C     C_R   0.522706 0.937738 0.615443 -0.050802
C27   C     C_3   0.486338 0.930233 0.757959 0.408219
C28   C     C_3   0.479666 0.073411 0.754695 0.161912
H4    H     H_    0.524482 0.126489 0.822748 0.162591
C29   C     C_R   0.429254 0.545757 0.072884 0.140112
N1    N     N_R   0.499390 0.499140 0.142800 -0.161261
C30   C     C_R   0.576081 0.472549 0.066751 0.371511
C31   C     C_R   0.574268 0.467644 0.923836 -0.095550
H5    H     H_    0.634242 0.443298 0.866698 0.212236
N2    N     N_R   0.499390 0.499180 0.857150 -0.138013
C32   C     C_R   0.429676 0.546532 0.931639 0.201327
C33   C     C_3   0.332842 0.514301 0.923784 -0.549765
C34   C     C_3   0.330835 0.512845 0.078138 0.460830
H6    H     H_    0.293949 0.591104 0.879540 0.260484
H7    H     H_    0.321516 0.422655 0.875703 0.199698
N3    N     N_R   0.771373 0.723271 0.462139 0.217269
O9    O     O_R   0.703325 0.742778 0.386089 -0.311121
O10   O     O_R   0.796351 0.809768 0.545351 -0.271041
N4    N     N_R   0.540769 0.872634 0.244556 0.260307
O11   O     O_R   0.469497 0.845820 0.177258 -0.291461
O12   O     O_R   0.618347 0.871887 0.182069 -0.178309
N5    N     N_R   0.399347 0.865928 0.773204 0.222996
O13   O     O_R   0.369084 0.835818 0.892818 -0.334238
O14   O     O_R   0.346352 0.854223 0.671545 -0.427190
N6    N     N_R   0.554298 0.884476 0.850114 0.223832
O15   O     O_R   0.627615 0.947658 0.868473 -0.262601
O16   O     O_R   0.549572 0.771536 0.895168 -0.303627
O17   O     O_3   0.390610 0.116314 0.751164 -0.603430
C35   C     C_3   0.359108 0.141241 0.883513 0.177334
H8    H     H_    0.387221 0.231056 0.917999 0.171225
H9    H     H_    0.378053 0.067697 0.955863 0.214515
C36   C     C_3   0.257395 0.148108 0.884321 -0.602698
H10   H     H_    0.229203 0.062515 0.838733 0.274968
H11   H     H_    0.231151 0.156285 0.989523 0.248338
H12   H     H_    0.235551 0.229717 0.826081 0.261751
N7    N     N_R   0.661872 0.467095 0.126279 0.226256
O18   O     O_R   0.701259 0.571857 0.153603 -0.266692
O19   O     O_R   0.712033 0.370951 0.102111 -0.279136
N8    N     N_R   0.274248 0.611054 0.136754 0.221064
O20   O     O_R   0.188250 0.609216 0.118495 -0.324472
O21   O     O_R   0.309205 0.703470 0.202386 -0.357430
N9    N     N_R   0.758059 0.288071 0.585483 0.220406
O22   O     O_R   0.706214 0.225021 0.506866 -0.334984
O23   O     O_R   0.753655 0.269536 0.715015 -0.310128
N10   N     N_R   0.308706 0.390153 0.133347 0.161460
O24   O     O_R   0.225364 0.354962 0.143648 -0.394399
O25   O     O_R   0.371171 0.311332 0.161131 -0.441330
N11   N     N_R   0.909294 0.155650 0.582134 0.246668
O26   O     O_R   0.926621 0.090261 0.688268 -0.281033
O27   O     O_R   0.870729 0.101957 0.480992 -0.216266
O28   O     O_3   0.233591 0.276819 0.562974 -0.636135
C37   C     C_3   0.247921 0.209868 0.441329 0.083509
H13   H     H_    0.307777 0.247737 0.387338 0.212424
H14   H     H_    0.189402 0.213173 0.373447 0.191547
C38   C     C_3   0.264899 0.074062 0.471953 -0.679932
H15   H     H_    0.209371 0.035567 0.535756 0.267201
H16   H     H_    0.269711 0.020214 0.376343 0.229837
H17   H     H_    0.328841 0.064341 0.524680 0.289230
N12   N     N_R   0.921080 0.798095 0.315115 0.258264
O29   O     O_R   0.866115 0.768860 0.220039 -0.228321
O30   O     O_R   0.954254 0.909938 0.317899 -0.288574
N13   N     N_R   0.555384 0.128671 0.249786 0.259526
O31   O     O_R   0.504485 0.116186 0.145964 -0.359223
O32   O     O_R   0.633597 0.180705 0.234635 -0.233471

loop_
_geom_bond_atom_site_label_1
_geom_bond_atom_site_label_2
_geom_bond_distance
_ccdc_geom_bond_type
N6    O16   1.299533 A    
C27   C28   1.547557 S    
C38   H15   1.110542 S    
C27   N5    1.473789 S    
C8    C11   1.423469 A    
C28   H4    1.115713 S    
C9    C10   1.423239 A    
N12   O29   1.301470 A    
N4    O11   1.300273 A    
N8    O20   1.301177 A    
Zn1   O7    2.000823 S    
C16   C17   1.389271 A    
C19   C20   1.384908 A    
C27   N6    1.470539 S    
N7    O19   1.300112 A    
C18   C19   1.397822 A    
C21   C22   1.386201 A    
O4    C2    1.287715 A    
O7    C4    1.288293 A    
N11   O27   1.300706 A    
N4    O12   1.300621 A    
C5    C6    1.398513 A    
N5    O14   1.301851 A    
C8    C9    1.423874 A    
O5    C3    1.297695 A    
N3    O9    1.298543 A    
C17   N12   1.438154 S    
C22   C23   1.417037 A    
C6    C7    1.400018 A    
C33   H6    1.111705 S    
C13   C14   1.412214 A    
C18   O28   1.387335 S    
O17   C35   1.408946 S    
C38   H16   1.110702 S    
C11   C12   1.388607 A    
C21   C28   1.495124 S    
O3    Zn1   2.018929 S    
N12   O30   1.301208 A    
C33   C34   1.530598 S    
C31   N2    1.358254 A    
N8    O21   1.301289 A    
C5    C10   1.399069 A    
N3    O10   1.301425 A    
C33   H7    1.108933 S    
C12   H1    1.083591 S    
C35   H8    1.109006 S    
C5    N3    1.439024 S    
C14   C15   1.410216 A    
N9    O23   1.301030 A    
N7    O18   1.300782 A    
C26   C27   1.504307 S    
N11   O26   1.301252 A    
C29   C32   1.400780 A    
C15   C16   1.389642 A    
C30   C31   1.419081 A    
C7    N9    1.433525 S    
C21   C26   1.351601 A    
C30   N7    1.424990 S    
O1    C1    1.294551 A    
C29   N1    1.368911 A    
C34   N8    1.467507 S    
C24   C25   1.423147 A    
C16   H3    1.084774 S    
C37   H14   1.116661 S    
N10   O24   1.300770 A    
C1    C22   1.429824 S    
Zn2   O8    2.018928 S    
C36   H12   1.109257 S    
N13   O32   1.298495 A    
C7    C8    1.404069 A    
C23   N13   1.432383 S    
C13   C18   1.398020 A    
C3    C25   1.430293 S    
C36   H10   1.110866 S    
O3    C2    1.287183 A    
N2    C32   1.362220 A    
N10   O25   1.300380 A    
O8    C4    1.290905 A    
C38   H17   1.105289 S    
C4    C6    1.431731 S    
C34   N10   1.466482 S    
N1    C30   1.386626 A    
C37   C38   1.520177 S    
C15   C20   1.380715 A    
Zn1   O5    2.013027 S    
C31   H5    1.081183 S    
C23   C24   1.395528 A    
O1    Zn1   2.009818 S    
O2    Zn2   2.013027 S    
Zn2   N1    2.024168 S    
N9    O22   1.299109 A    
O6    C3    1.284153 A    
C11   N11   1.433324 S    
O4    Zn2   2.000823 S    
C28   O17   1.411631 S    
C10   C17   1.421319 A    
C35   C36   1.520850 S    
Zn1   N2    2.023315 S    
O2    C1    1.287008 A    
C20   H2    1.085499 S    
C29   C34   1.509630 S    
C37   H13   1.107713 S    
C25   C26   1.390233 A    
N13   O31   1.300511 A    
C9    C14   1.399977 A    
N6    O15   1.302185 A    
C2    C19   1.417190 S    
Zn2   O6    2.009820 S    
C32   C33   1.489006 S    
C12   C13   1.393729 A    
N5    O13   1.301079 A    
C36   H11   1.109026 S    
C35   H9    1.113767 S    
O28   C37   1.415603 S    
C24   N4    1.434765 S    
