data_mof_unit_16748.cif
_audit_creation_date              2012-12-10T18:23:51-0500
_audit_creation_method            fapswitch 2.2
_symmetry_space_group_name_H-M    P1
_symmetry_Int_Tables_number       1
_space_group_crystal_system       triclinic
_cell_length_a                    22.435258
_cell_length_b                    22.483188
_cell_length_c                    14.630762
_cell_angle_alpha                 89.956388
_cell_angle_beta                  89.93375
_cell_angle_gamma                 90.001899
_cell_volume                      7379.98517539

loop_
_atom_site_label
_atom_site_type_symbol
_atom_type_description
_atom_site_fract_x
_atom_site_fract_y
_atom_site_fract_z
_atom_type_partial_charge
C1    C     C_R   0.419823 0.919692 0.500067 0.818159
C2    C     C_R   0.580090 0.080383 0.499992 0.814057
C3    C     C_R   0.580237 0.919727 0.500052 0.816605
C4    C     C_R   0.419993 0.080449 0.500047 0.810906
C5    C     C_R   0.919790 0.419722 0.500074 0.818541
C6    C     C_R   0.080085 0.580392 0.499981 0.812642
C7    C     C_R   0.080252 0.419747 0.500040 0.815787
C8    C     C_R   0.919947 0.580406 0.500068 0.811415
C9    C     C_1   0.338724 0.163862 0.501008 0.183164
C10   C     C_1   0.662676 0.837315 0.501304 0.186807
C11   C     C_1   0.661944 0.163269 0.500315 0.163123
C12   C     C_1   0.337736 0.836999 0.500700 0.184843
C13   C     C_1   0.838386 0.663533 0.501515 0.182213
C14   C     C_1   0.162853 0.337505 0.500957 0.188177
C15   C     C_1   0.161872 0.663360 0.500151 0.179925
C16   C     C_1   0.837579 0.337143 0.500866 0.176139
C17   C     C_1   0.499726 0.000598 0.194324 0.434650
C18   C     C_1   0.499497 0.000326 0.805576 0.377718
C19   C     C_1   0.999621 0.500586 0.194319 0.432344
C20   C     C_1   0.999393 0.500024 0.805587 0.382711
C21   C     C_3   0.519464 0.053445 0.969487 0.334922
C22   C     C_3   0.477731 0.949348 0.030156 0.268596
C23   C     C_3   0.464251 0.046030 0.031619 0.259128
C24   C     C_3   0.533746 0.957330 0.969374 0.243386
C25   C     C_3   0.016243 0.553920 0.969086 0.339463
C26   C     C_3   0.980405 0.447935 0.030498 0.269386
C27   C     C_3   0.961518 0.543744 0.031345 0.251501
C28   C     C_3   0.035912 0.458822 0.969647 0.244082
C29   C     C_3   0.698038 0.725863 0.528214 -0.343235
C30   C     C_3   0.303900 0.275846 0.477772 -0.359851
C31   C     C_3   0.303939 0.723848 0.509187 -0.351471
C32   C     C_3   0.695323 0.276610 0.497793 -0.401782
C33   C     C_3   0.198163 0.225850 0.525656 -0.358124
C34   C     C_3   0.803346 0.775164 0.476744 -0.346714
C35   C     C_3   0.804123 0.223842 0.504020 -0.345605
C36   C     C_3   0.195591 0.776571 0.492150 -0.354458
C37   C     C_3   0.236866 0.208552 0.442082 0.378206
C38   C     C_3   0.765486 0.793468 0.560763 0.340590
C39   C     C_3   0.754131 0.217615 0.576500 0.382385
C40   C     C_3   0.247596 0.780615 0.422704 0.380325
C41   C     C_3   0.735896 0.707616 0.444240 0.376176
C42   C     C_3   0.265179 0.293200 0.561313 0.380883
C43   C     C_3   0.251926 0.719800 0.578626 0.379960
C44   C     C_3   0.745308 0.282832 0.425317 0.400422
C45   C     C_1   0.375927 0.125752 0.500383 -0.084828
C46   C     C_1   0.624950 0.874962 0.500411 -0.074079
C47   C     C_1   0.624472 0.125404 0.500052 -0.085821
C48   C     C_1   0.375305 0.874780 0.500351 -0.070586
C49   C     C_1   0.875722 0.625555 0.500558 -0.087193
C50   C     C_1   0.125047 0.375070 0.500303 -0.075432
C51   C     C_1   0.124428 0.625461 0.499980 -0.081102
C52   C     C_1   0.875195 0.374881 0.500411 -0.071340
C53   C     C_3   0.255338 0.227284 0.584892 0.388553
C54   C     C_3   0.745680 0.773185 0.418836 0.393850
C55   C     C_3   0.756794 0.215485 0.428138 0.371017
C56   C     C_3   0.240776 0.787035 0.570472 0.370280
C57   C     C_3   0.755766 0.727800 0.586200 0.359906
C58   C     C_3   0.246768 0.274411 0.418540 0.396495
C59   C     C_3   0.258765 0.713392 0.430864 0.370243
C60   C     C_3   0.742657 0.284973 0.573691 0.292965
C61   C     C_3   0.293116 0.209647 0.501646 -0.187644
C62   C     C_3   0.708663 0.791821 0.502310 -0.175450
C63   C     C_3   0.707722 0.208910 0.500660 -0.172621
C64   C     C_3   0.291864 0.791433 0.500887 -0.185332
C65   C     C_3   0.792694 0.709235 0.502489 -0.175174
C66   C     C_3   0.208910 0.292092 0.501653 -0.187885
C67   C     C_3   0.207670 0.708992 0.500430 -0.184873
C68   C     C_3   0.791725 0.291556 0.501148 -0.158599
C69   C     C_3   0.554824 0.009643 0.029921 0.293942
C70   C     C_3   0.442168 0.993746 0.970012 0.224671
C71   C     C_3   0.054049 0.512412 0.029768 0.294751
C72   C     C_3   0.942378 0.490124 0.970063 0.217084
C73   C     C_3   0.499377 0.001514 0.091915 -0.282097
C74   C     C_3   0.498584 0.001266 0.907803 -0.336647
C75   C     C_3   0.999135 0.501414 0.091897 -0.280840
C76   C     C_3   0.998306 0.500527 0.907836 -0.332833
Cu1   Cu    Cu3+1 0.500000 0.000000 0.590220 1.057338
Cu2   Cu    Cu3+1 0.500000 0.000000 0.409780 1.088123
Cu3   Cu    Cu3+1 1.000000 0.500000 0.590220 1.060528
Cu4   Cu    Cu3+1 0.000000 0.500000 0.409780 1.086535
H1    H     H_    0.654855 0.705938 0.549145 0.231096
H2    H     H_    0.347230 0.296062 0.458259 0.229311
H3    H     H_    0.348324 0.702516 0.516155 0.230805
H4    H     H_    0.650737 0.297949 0.495251 0.218062
H5    H     H_    0.154850 0.205600 0.545164 0.231541
H6    H     H_    0.846531 0.795061 0.455753 0.230048
H7    H     H_    0.848697 0.202481 0.506585 0.228651
H8    H     H_    0.151198 0.797893 0.485211 0.229956
N1    N     N_1   0.499980 0.000000 0.274190 -0.146626
N2    N     N_1   0.500020 0.000000 0.725810 -0.151820
N3    N     N_1   0.999980 0.500000 0.274190 -0.146921
N4    N     N_1   0.000020 0.500000 0.725810 -0.151415
O1    O     O_R   0.439540 0.939530 0.576170 -0.550265
O2    O     O_R   0.560460 0.060470 0.423830 -0.547353
O3    O     O_R   0.560460 0.939530 0.423830 -0.556112
O4    O     O_R   0.439540 0.060470 0.576170 -0.569166
O5    O     O_R   0.939540 0.439530 0.576170 -0.549848
O6    O     O_R   0.060460 0.560470 0.423830 -0.548394
O7    O     O_R   0.060460 0.439530 0.423830 -0.556726
O8    O     O_R   0.939540 0.560470 0.576170 -0.569631
O9    O     O_R   0.439530 0.939530 0.423800 -0.560146
O10   O     O_R   0.560470 0.060470 0.576200 -0.582415
O11   O     O_R   0.560470 0.939530 0.576200 -0.560568
O12   O     O_R   0.439530 0.060470 0.423800 -0.560253
O13   O     O_R   0.939530 0.439530 0.423800 -0.561020
O14   O     O_R   0.060470 0.560470 0.576200 -0.579109
O15   O     O_R   0.060470 0.439530 0.576200 -0.560730
O16   O     O_R   0.939530 0.560470 0.423800 -0.560619
S1    S     S_3+6 0.369464 0.980566 0.923255 0.008322
O17   O     O_2   0.350631 0.032597 0.865628 -0.281622
O18   O     O_2   0.370638 0.926013 0.864083 -0.266757
O19   O     O_3   0.320492 0.970748 0.008992 -0.519360
H9    H     H_    0.282000 0.962431 0.978482 0.390532
S2    S     S_3+6 0.627933 0.026891 0.070252 0.073730
O20   O     O_2   0.625927 0.085218 0.120258 -0.186942
O21   O     O_2   0.649526 0.979216 0.134140 -0.298344
O22   O     O_3   0.674411 0.032780 0.980522 -0.483424
H10   H     H_    0.713824 0.041895 0.007537 0.385901
S3    S     S_3+6 0.870732 0.472379 0.922944 0.014295
O23   O     O_2   0.848665 0.523157 0.865393 -0.274702
O24   O     O_2   0.875591 0.418117 0.863575 -0.262348
O25   O     O_3   0.822279 0.459224 0.008324 -0.519021
H11   H     H_    0.784483 0.448514 0.977531 0.398374
S4    S     S_3+6 0.126041 0.533927 0.069909 0.072677
O26   O     O_2   0.120703 0.592203 0.119483 -0.191250
O27   O     O_2   0.150297 0.487747 0.134138 -0.299152
O28   O     O_3   0.172115 0.542158 0.980120 -0.483393
H12   H     H_    0.210918 0.553677 0.007046 0.384524
S5    S     S_3+6 0.218429 0.151001 0.363298 0.091333
O29   O     O_2   0.266147 0.146788 0.291427 -0.249052
O30   O     O_2   0.213988 0.092899 0.413674 -0.226530
O31   O     O_3   0.152664 0.166667 0.313938 -0.471297
H13   H     H_    0.146595 0.134619 0.268466 0.384913
S6    S     S_3+6 0.784699 0.852380 0.636712 0.080037
O32   O     O_2   0.792013 0.908928 0.583097 -0.180574
O33   O     O_2   0.735869 0.860671 0.706001 -0.291609
O34   O     O_3   0.849254 0.836377 0.689691 -0.477574
H14   H     H_    0.837778 0.821381 0.750890 0.367426
S7    S     S_3+6 0.759684 0.172911 0.676798 0.081880
O35   O     O_2   0.701707 0.175057 0.728224 -0.270564
O36   O     O_2   0.773021 0.109828 0.649797 -0.220625
O37   O     O_3   0.814926 0.199018 0.743116 -0.480776
H15   H     H_    0.812995 0.174822 0.799646 0.381929
S8    S     S_3+6 0.245037 0.822477 0.319247 0.086256
O38   O     O_2   0.232628 0.886553 0.341343 -0.230623
O39   O     O_2   0.303906 0.817608 0.270722 -0.250158
O40   O     O_3   0.190531 0.795697 0.252168 -0.464098
H16   H     H_    0.193478 0.818939 0.194799 0.384566
S9    S     S_3+6 0.716545 0.649221 0.367457 0.089882
O41   O     O_2   0.763605 0.643975 0.294743 -0.254585
O42   O     O_2   0.712334 0.591737 0.419522 -0.225542
O43   O     O_3   0.650408 0.664550 0.319028 -0.470699
H17   H     H_    0.643948 0.632148 0.274292 0.385591
S10   S     S_3+6 0.283681 0.350768 0.639999 0.084729
O44   O     O_2   0.290326 0.408440 0.589031 -0.225442
O45   O     O_2   0.234915 0.356545 0.709929 -0.251865
O46   O     O_3   0.348224 0.333839 0.692107 -0.484895
H18   H     H_    0.354114 0.365768 0.737821 0.381616
S11   S     S_3+6 0.254405 0.677988 0.682134 0.083755
O47   O     O_2   0.195503 0.682944 0.730552 -0.250397
O48   O     O_2   0.266764 0.613889 0.660139 -0.230463
O49   O     O_3   0.308911 0.704761 0.749238 -0.488628
H19   H     H_    0.305873 0.681631 0.806701 0.378674
S12   S     S_3+6 0.739715 0.327627 0.325119 0.088466
O50   O     O_2   0.728078 0.390993 0.352412 -0.231469
O51   O     O_2   0.797057 0.324184 0.272195 -0.244005
O52   O     O_3   0.683201 0.302766 0.260239 -0.463914
H20   H     H_    0.684258 0.327842 0.204568 0.388395
S13   S     S_3+6 0.739197 0.804397 0.307321 0.059250
O53   O     O_2   0.677633 0.793174 0.270912 -0.252883
O54   O     O_2   0.750222 0.870245 0.312457 -0.244359
O55   O     O_3   0.789969 0.772674 0.238251 -0.503117
H21   H     H_    0.791316 0.798405 0.183338 0.363043
S14   S     S_3+6 0.261808 0.194598 0.695556 0.073631
O56   O     O_2   0.246992 0.129541 0.689593 -0.220471
O57   O     O_2   0.324559 0.201956 0.729563 -0.275110
O58   O     O_3   0.214192 0.228262 0.767661 -0.487707
H22   H     H_    0.222606 0.210489 0.828257 0.369220
S15   S     S_3+6 0.229111 0.837265 0.662988 0.096394
O59   O     O_2   0.282706 0.836765 0.724500 -0.220804
O60   O     O_2   0.219864 0.898878 0.625754 -0.222013
O61   O     O_3   0.168430 0.816110 0.722140 -0.485235
H23   H     H_    0.166230 0.843999 0.774410 0.385256
S16   S     S_3+6 0.765924 0.167933 0.331706 0.100519
O62   O     O_2   0.776897 0.105471 0.364183 -0.224623
O63   O     O_2   0.710390 0.169525 0.274430 -0.198765
O64   O     O_3   0.824424 0.191301 0.269430 -0.483965
H24   H     H_    0.824701 0.165372 0.214729 0.382306
S17   S     S_3+6 0.241332 0.306899 0.307747 0.058458
O65   O     O_2   0.180200 0.295981 0.269463 -0.251839
O66   O     O_2   0.252117 0.372703 0.315021 -0.249029
O67   O     O_3   0.292906 0.276125 0.239059 -0.501878
H25   H     H_    0.296009 0.303429 0.186144 0.362946
S18   S     S_3+6 0.762951 0.695434 0.697032 0.054602
O68   O     O_2   0.745703 0.630939 0.692592 -0.179910
O69   O     O_2   0.826585 0.700086 0.728343 -0.335940
O70   O     O_3   0.717694 0.730685 0.771082 -0.490798
H26   H     H_    0.744266 0.754976 0.810113 0.359103
S19   S     S_3+6 0.733377 0.332411 0.670323 0.117842
O71   O     O_2   0.789517 0.332089 0.726193 -0.177561
O72   O     O_2   0.720839 0.394731 0.638569 -0.214569
O73   O     O_3   0.676368 0.308117 0.734997 -0.445096
H27   H     H_    0.642820 0.302733 0.691828 0.338220
S20   S     S_3+6 0.270404 0.663077 0.338446 0.099658
O74   O     O_2   0.280362 0.601618 0.375849 -0.226457
O75   O     O_2   0.216476 0.663002 0.277621 -0.200613
O76   O     O_3   0.330581 0.684597 0.278405 -0.480991
H28   H     H_    0.332303 0.657077 0.225634 0.381940
O77   O     O_3   0.435543 0.094258 0.075496 -0.574363
C77   C     C_3   0.385514 0.113664 0.026014 0.129138
H29   H     H_    0.348028 0.082271 0.037169 0.232112
H30   H     H_    0.395427 0.117934 0.952016 0.152257
C78   C     C_3   0.366645 0.174751 0.061311 -0.328742
H31   H     H_    0.355731 0.171656 0.135309 0.281369
H32   H     H_    0.404124 0.206623 0.052692 0.232372
C79   C     C_3   0.312353 0.198066 0.009699 -0.811372
H33   H     H_    0.322609 0.202479 0.935702 0.278860
H34   H     H_    0.299871 0.242455 0.036638 0.257409
H35   H     H_    0.273924 0.167458 0.018741 0.275065
O78   O     O_3   0.569326 0.912771 0.928526 -0.578389
C80   C     C_3   0.597877 0.876946 0.994690 0.113447
H36   H     H_    0.578900 0.831505 0.990750 0.142935
H37   H     H_    0.592130 0.892597 0.066404 0.176921
C81   C     C_3   0.664164 0.872446 0.971219 -0.271133
H38   H     H_    0.669396 0.851391 0.902932 0.247107
H39   H     H_    0.683997 0.917572 0.967988 0.281560
C82   C     C_3   0.697918 0.835751 0.041912 -0.821299
H40   H     H_    0.695208 0.857407 0.109959 0.318259
H41   H     H_    0.745530 0.832586 0.021733 0.243167
H42   H     H_    0.679099 0.790139 0.046366 0.267005
O79   O     O_3   0.545866 0.107457 0.940962 -0.516979
C83   C     C_3   0.509558 0.138141 0.877636 0.075220
H43   H     H_    0.490253 0.177677 0.912277 0.175484
H44   H     H_    0.471896 0.111495 0.849951 0.120054
C84   C     C_3   0.548235 0.158801 0.797540 -0.282955
H45   H     H_    0.583396 0.189407 0.823021 0.272595
H46   H     H_    0.570338 0.119632 0.765889 0.249111
C85   C     C_3   0.511341 0.190699 0.724904 -0.836656
H47   H     H_    0.476942 0.160312 0.696644 0.270785
H48   H     H_    0.540936 0.205282 0.668250 0.251698
H49   H     H_    0.489216 0.230439 0.754624 0.277690
O80   O     O_3   0.455099 0.897114 0.071410 -0.571214
C86   C     C_3   0.447537 0.850888 0.007075 0.124194
H50   H     H_    0.481716 0.816381 0.020420 0.136099
H51   H     H_    0.452396 0.865218 0.934526 0.184961
C87   C     C_3   0.386386 0.822187 0.021221 -0.267447
H52   H     H_    0.383908 0.803001 0.091185 0.252303
H53   H     H_    0.350937 0.856330 0.014963 0.286452
C88   C     C_3   0.374952 0.773096 0.951413 -0.799903
H54   H     H_    0.375581 0.791627 0.881004 0.302955
H55   H     H_    0.330518 0.752946 0.964119 0.275125
H56   H     H_    0.409393 0.737812 0.957262 0.250582
O81   O     O_3   0.930779 0.590885 0.074793 -0.577370
C89   C     C_3   0.877613 0.604953 0.028954 0.120267
H57   H     H_    0.843851 0.569981 0.042615 0.233412
H58   H     H_    0.885056 0.610108 0.954407 0.158020
C90   C     C_3   0.853720 0.663919 0.065611 -0.339992
H59   H     H_    0.845682 0.660006 0.140363 0.285403
H60   H     H_    0.887350 0.699462 0.054046 0.228192
C91   C     C_3   0.795641 0.681307 0.018376 -0.779708
H61   H     H_    0.802953 0.686827 0.943726 0.274242
H62   H     H_    0.779324 0.724058 0.046726 0.255564
H63   H     H_    0.761064 0.646752 0.030038 0.283835
O82   O     O_3   0.074050 0.416183 0.929368 -0.577165
C92   C     C_3   0.104192 0.382094 0.996071 0.108697
H64   H     H_    0.087920 0.335631 0.991899 0.142159
H65   H     H_    0.097072 0.397438 0.067673 0.176802
C93   C     C_3   0.170794 0.381364 0.973768 -0.269311
H66   H     H_    0.177730 0.360674 0.905577 0.256341
H67   H     H_    0.188056 0.427535 0.970901 0.279879
C94   C     C_3   0.206038 0.346590 0.045069 -0.810529
H68   H     H_    0.201156 0.367663 0.113279 0.316133
H69   H     H_    0.253980 0.346623 0.026207 0.248466
H70   H     H_    0.190196 0.299828 0.048535 0.263952
O83   O     O_3   0.039386 0.608857 0.938240 -0.517668
C95   C     C_3   0.998189 0.638820 0.881496 0.076530
H71   H     H_    0.975736 0.673957 0.922343 0.173700
H72   H     H_    0.963166 0.609488 0.852020 0.123910
C96   C     C_3   0.031940 0.667835 0.802319 -0.300596
H73   H     H_    0.064353 0.700689 0.829682 0.267714
H74   H     H_    0.057111 0.633149 0.764294 0.248642
C97   C     C_3   0.989558 0.699149 0.736400 -0.800221
H75   H     H_    0.957982 0.666667 0.706008 0.271377
H76   H     H_    0.015572 0.720084 0.680336 0.266699
H77   H     H_    0.964013 0.734315 0.772605 0.276326
O84   O     O_3   0.960631 0.394664 0.072099 -0.571718
C98   C     C_3   0.955926 0.347815 0.008170 0.120930
H78   H     H_    0.991955 0.315353 0.022142 0.135634
H79   H     H_    0.960209 0.362100 0.935518 0.184963
C99   C     C_3   0.896476 0.315709 0.022113 -0.264301
H80   H     H_    0.894830 0.296729 0.092267 0.247404
H81   H     H_    0.859139 0.347709 0.015165 0.290183
C100  C     C_3   0.888164 0.265732 0.952737 -0.795618
H82   H     H_    0.887944 0.283962 0.882136 0.300039
H83   H     H_    0.844940 0.243082 0.965324 0.277063
H84   H     H_    0.924589 0.232540 0.959215 0.248782

loop_
_geom_bond_atom_site_label_1
_geom_bond_atom_site_label_2
_ccdc_geom_bond_type
C13   C49   T    
C94   H70   S    
S18   O69   D    
C9    C45   T    
O46   H18   S    
C25   O83   S    
C99   C100  S    
C26   C72   S    
S13   O53   D    
C11   C47   T    
O83   C95   S    
C54   S13   S    
C79   H35   S    
C72   C76   S    
C81   H38   S    
S6    O34   S    
S2    O20   D    
C36   C67   S    
C38   S6    S    
C5    O13   A    
C78   H31   S    
C36   H8    S    
C29   H1    S    
C20   N4    T    
C85   H49   S    
C88   H54   S    
C100  H82   S    
C7    O7    A    
C9    C61   S    
C6    O6    A    
S12   O50   D    
C42   S10   S    
C79   H34   S    
C99   H80   S    
C80   C81   S    
C43   S11   S    
S9    O42   D    
C42   C53   S    
O81   C89   S    
C12   C64   S    
S7    O37   S    
C78   C79   S    
S18   O70   S    
C41   S9    S    
C2    O10   A    
C86   H50   S    
C38   C57   S    
C85   H48   S    
C4    O12   A    
C24   C69   S    
C31   H3    S    
S16   O62   D    
C20   C76   S    
C90   H59   S    
C34   H6    S    
C96   C97   S    
C31   C59   S    
S17   O66   D    
C82   H40   S    
C33   H5    S    
O61   H23   S    
O78   C80   S    
C89   H58   S    
S1    O18   D    
C59   C67   S    
C4    O4    A    
C53   C61   S    
C59   S20   S    
C58   C66   S    
O40   H16   S    
C37   S5    S    
O31   H13   S    
C86   H51   S    
C55   C63   S    
C70   C74   S    
S19   O73   S    
C55   S16   S    
C98   H79   S    
C5    C52   S    
C69   C73   S    
C16   C68   S    
C15   C51   T    
C6    C51   S    
O70   H26   S    
C92   H64   S    
S10   O45   D    
C37   C58   S    
C60   S19   S    
C12   C48   T    
S15   O61   S    
Cu4   O6    S    
S3    O24   D    
S18   O68   D    
S19   O71   D    
C18   C74   S    
C40   C59   S    
S15   O60   D    
Cu2   O9    S    
C17   C73   S    
S13   O54   D    
C23   C70   S    
Cu1   O10   S    
C10   C62   S    
C35   H7    S    
C23   C73   S    
S8    O40   S    
C27   C75   S    
C8    O16   A    
C34   C65   S    
O19   H9    S    
C91   H63   S    
C53   S14   S    
O77   C77   S    
C95   C96   S    
C39   S7    S    
C4    C45   S    
C78   H32   S    
Cu2   N1    S    
C14   C66   S    
C32   H4    S    
S7    O35   D    
C87   H53   S    
C69   S2    S    
C88   H55   S    
O37   H15   S    
O73   H27   S    
C29   C57   S    
C35   C55   S    
O76   H28   S    
C18   N2    T    
Cu1   O11   S    
C71   S4    S    
C2    O2    A    
C17   N1    T    
C79   H33   S    
C7    C50   S    
S10   O46   S    
S8    O39   D    
C85   H47   S    
S1    O19   S    
O52   H20   S    
C97   H75   S    
O82   C92   S    
C41   C65   S    
C23   O77   S    
C89   C90   S    
Cu1   Cu2   S    
C93   H67   S    
Cu2   O12   S    
Cu4   O13   S    
C83   C84   S    
C33   C37   S    
Cu3   Cu4   S    
Cu3   O14   S    
C21   C69   S    
C90   H60   S    
C30   H2    S    
S17   O67   S    
C35   C39   S    
C14   C50   T    
C43   C67   S    
C10   C46   T    
C89   H57   S    
C36   C56   S    
C70   S1    S    
C80   H36   S    
C27   O81   S    
Cu3   O8    S    
S2    O21   D    
S11   O47   D    
C93   C94   S    
C36   C40   S    
Cu2   O3    S    
C84   H45   S    
C86   C87   S    
C15   C67   S    
C33   C66   S    
C58   S17   S    
C83   H44   S    
O80   C86   S    
C6    O14   A    
S11   O49   S    
Cu3   O15   S    
C21   O79   S    
C26   C75   S    
C93   H66   S    
C98   C99   S    
C92   H65   S    
S14   O58   S    
C60   C68   S    
S10   O44   D    
C29   C62   S    
C31   C43   S    
C97   H77   S    
S4    O28   S    
C25   C71   S    
C24   O78   S    
C91   H62   S    
C82   H41   S    
S20   O75   D    
C33   C53   S    
C77   H29   S    
C77   H30   S    
C40   S8    S    
Cu4   O7    S    
C84   H46   S    
C56   S15   S    
C84   C85   S    
C22   C24   S    
S9    O43   S    
C28   C71   S    
C25   C27   S    
C32   C60   S    
C21   C23   S    
O28   H12   S    
C21   C74   S    
C81   C82   S    
C1    O9    A    
C22   O80   S    
C39   C63   S    
O55   H21   S    
Cu1   O1    S    
C99   H81   S    
S4    O27   D    
S5    O29   D    
S3    O25   S    
C3    O11   A    
C94   H69   S    
C87   H52   S    
Cu3   N4    S    
C88   H56   S    
Cu1   O4    S    
C29   C41   S    
S6    O33   D    
C34   C38   S    
C97   H76   S    
C31   C64   S    
Cu3   O5    S    
S12   O52   S    
C42   C66   S    
C16   C52   T    
C32   C63   S    
C57   C65   S    
S8    O38   D    
C81   H39   S    
C37   C61   S    
S3    O23   D    
C1    C48   S    
C34   C54   S    
O49   H19   S    
C26   O84   S    
C2    C47   S    
C100  H84   S    
C77   C78   S    
C54   C62   S    
O34   H14   S    
Cu4   O16   S    
C3    C46   S    
C26   C28   S    
C40   C64   S    
S16   O64   S    
C57   S18   S    
C80   H37   S    
C90   C91   S    
O67   H25   S    
S5    O31   S    
Cu4   N3    S    
S12   O51   D    
S11   O48   D    
C8    O8    A    
C96   H73   S    
O64   H24   S    
C100  H83   S    
C28   O82   S    
O22   H10   S    
C91   H61   S    
C71   C75   S    
C95   H71   S    
S7    O36   D    
C44   C55   S    
C24   C74   S    
C56   C64   S    
O84   C98   S    
C35   C68   S    
Cu2   O2    S    
C39   C60   S    
C30   C58   S    
C72   S3    S    
C19   C75   S    
C83   H43   S    
S13   O55   S    
S16   O63   D    
C5    O5    A    
S20   O76   S    
C7    O15   A    
C96   H74   S    
C13   C65   S    
S17   O65   D    
S6    O32   D    
C92   C93   S    
S14   O57   D    
C41   C54   S    
S2    O22   S    
C44   C68   S    
S15   O59   D    
S14   O56   D    
C98   H78   S    
C43   C56   S    
C82   H42   S    
S20   O74   D    
C32   C44   S    
C25   C76   S    
C1    O1    A    
O58   H22   S    
C30   C61   S    
S1    O17   D    
O79   C83   S    
S19   O72   D    
Cu1   N2    S    
C19   N3    T    
C30   C42   S    
C3    O3    A    
O43   H17   S    
C44   S12   S    
C22   C73   S    
C38   C62   S    
O25   H11   S    
S9    O41   D    
C11   C63   S    
C95   H72   S    
C8    C49   S    
C22   C70   S    
C27   C72   S    
C94   H68   S    
S4    O26   D    
S5    O30   D    
C87   C88   S    
C28   C76   S    
