data_mof_unit_10719.cif
_audit_creation_date              2012-12-10T17:10:27-0500
_audit_creation_method            fapswitch 2.2
_symmetry_space_group_name_H-M    P1
_symmetry_Int_Tables_number       1
_space_group_crystal_system       triclinic
_cell_length_a                    10.816822
_cell_length_b                    12.928919
_cell_length_c                    11.671495
_cell_angle_alpha                 100.771592
_cell_angle_beta                  92.645686
_cell_angle_gamma                 91.27522
_cell_volume                      1600.99358915

loop_
_atom_site_label
_atom_site_type_symbol
_atom_type_description
_atom_site_fract_x
_atom_site_fract_y
_atom_site_fract_z
_atom_type_partial_charge
C1    C     C_R   0.500207 0.299006 0.477795 0.845750
C2    C     C_R   0.497306 0.700878 0.522174 0.841553
C3    C     C_R   0.487683 0.814351 0.535220 -0.136579
C4    C     C_R   0.506387 0.185401 0.464443 -0.127590
C5    C     C_R   0.589644 0.019275 0.374988 -0.275356
C6    C     C_R   0.402516 0.980150 0.623740 -0.289103
C7    C     C_R   0.575244 0.126917 0.376628 0.414056
C8    C     C_R   0.415449 0.871456 0.621588 0.422539
C9    C     C_R   0.448532 0.136399 0.545672 -0.310780
C10   C     C_R   0.545988 0.863744 0.454611 -0.307204
C11   C     C_R   0.460849 0.029166 0.542511 0.121943
C12   C     C_R   0.532498 0.970490 0.457026 0.114955
C13   C     C_R   0.396466 0.388534 0.019603 -0.180896
C14   C     C_R   0.615476 0.603484 0.979319 -0.189677
C15   C     C_R   0.403404 0.401445 0.143528 0.559434
C16   C     C_R   0.603653 0.593715 0.855628 0.570934
C17   C     C_R   0.545409 0.546596 0.158133 -0.046000
C18   C     C_R   0.453769 0.454221 0.842192 -0.048197
C19   C     C_R   0.539159 0.539567 0.035027 -0.081306
C20   C     C_R   0.460221 0.461508 0.965251 -0.083097
C21   C     C_R   0.263174 0.513305 0.504005 0.801837
C22   C     C_R   0.737586 0.489000 0.496744 0.819030
C23   C     C_R   0.123600 0.525334 0.725096 -0.129889
C24   C     C_R   0.880134 0.484667 0.279288 -0.158375
C25   C     C_R   0.066846 0.489669 0.815860 -0.077450
C26   C     C_R   0.936357 0.524475 0.190900 -0.146595
C27   C     C_R   0.953407 0.435566 0.794676 -0.091915
C28   C     C_R   0.047158 0.582600 0.215171 -0.147821
C29   C     C_R   0.891909 0.425305 0.685468 -0.103135
C30   C     C_R   0.108731 0.590129 0.324120 -0.159174
C31   C     C_R   0.942939 0.470233 0.595518 0.069225
C32   C     C_R   0.058385 0.540598 0.410641 0.073938
C33   C     C_R   0.066907 0.508019 0.610700 0.070226
C34   C     C_R   0.935239 0.501227 0.394115 0.082487
C35   C     C_R   0.873352 0.478024 0.491647 -0.213564
C36   C     C_R   0.128473 0.529091 0.512145 -0.207865
Cu1   Cu    Cu3+1 0.509250 0.507730 0.615930 0.981757
Cu2   Cu    Cu3+1 0.490750 0.492270 0.384070 0.977484
H1    H     H_    0.088656 0.617014 0.147816 0.153496
H2    H     H_    0.911549 0.403728 0.863672 0.126001
H3    H     H_    0.209041 0.570663 0.747879 0.171684
H4    H     H_    0.797033 0.436558 0.254228 0.168287
H5    H     H_    0.112042 0.502615 0.902316 0.144978
H6    H     H_    0.893445 0.510237 0.103634 0.165756
H7    H     H_    0.804697 0.381074 0.671900 0.143729
H8    H     H_    0.196786 0.633148 0.339541 0.155374
H9    H     H_    0.601062 0.818287 0.388867 0.187486
H10   H     H_    0.394888 0.182377 0.612268 0.169825
H11   H     H_    0.647692 0.974445 0.311732 0.156107
H12   H     H_    0.344825 0.026654 0.685747 0.139015
H13   H     H_    0.394496 0.395984 0.786077 0.190818
H14   H     H_    0.606853 0.602801 0.214379 0.195011
N1    N     N_R   0.523180 0.519350 0.790130 -0.230554
N2    N     N_R   0.476820 0.480650 0.209870 -0.230614
O1    O     O_R   0.506570 0.354460 0.582000 -0.612635
O2    O     O_R   0.493430 0.645540 0.418000 -0.600555
O3    O     O_R   0.490940 0.341410 0.386200 -0.498473
O4    O     O_R   0.509060 0.658590 0.613800 -0.536368
O5    O     O_R   0.327470 0.506520 0.597900 -0.589752
O6    O     O_R   0.672530 0.493480 0.402100 -0.598182
O7    O     O_R   0.311840 0.493460 0.402100 -0.574741
O8    O     O_R   0.688160 0.506540 0.597900 -0.535434
C37   C     C_2   0.334365 0.292669 0.948481 0.788543
O9    O     O_2   0.367670 0.205603 0.961294 -0.613065
O10   O     O_R   0.235549 0.301802 0.869878 -0.806810
H15   H     H_    0.200684 0.230858 0.827253 0.325516
C38   C     C_2   0.713884 0.674470 0.047168 0.790797
O11   O     O_2   0.820439 0.669024 0.016297 -0.587941
O12   O     O_R   0.683590 0.751664 0.141641 -0.806182
H16   H     H_    0.758328 0.795950 0.179404 0.327099
O13   O     O_3   0.348654 0.815560 0.691009 -0.591009
C39   C     C_3   0.330172 0.874816 0.803254 0.057891
H17   H     H_    0.252771 0.929304 0.798826 0.165398
H18   H     H_    0.415851 0.919992 0.842063 0.141898
C40   C     C_3   0.293976 0.800196 0.883563 -0.786210
H19   H     H_    0.366157 0.740971 0.887122 0.231288
H20   H     H_    0.283417 0.845485 0.973092 0.212509
H21   H     H_    0.204546 0.758786 0.851147 0.249592
O14   O     O_3   0.642254 0.178325 0.304507 -0.589782
C41   C     C_3   0.598127 0.144783 0.187373 0.113715
H22   H     H_    0.495909 0.152618 0.177954 0.200682
H23   H     H_    0.621909 0.061609 0.154415 0.129531
C42   C     C_3   0.659366 0.213227 0.111950 -0.743903
H24   H     H_    0.761406 0.205288 0.117482 0.228201
H25   H     H_    0.625036 0.188410 0.019528 0.219418
H26   H     H_    0.637557 0.297075 0.142241 0.246060
O15   O     O_3   0.684675 0.648953 0.798379 -0.530720
C43   C     C_3   0.659652 0.757841 0.818905 0.083012
H27   H     H_    0.682346 0.797192 0.910219 0.144096
H28   H     H_    0.560936 0.771408 0.799234 0.166007
C44   C     C_3   0.739351 0.812200 0.742206 -0.739511
H29   H     H_    0.838555 0.809416 0.770270 0.250610
H30   H     H_    0.726627 0.772405 0.649456 0.242975
H31   H     H_    0.713432 0.895778 0.749955 0.189723
O16   O     O_3   0.350563 0.325777 0.197839 -0.553993
C45   C     C_3   0.219901 0.329342 0.191277 0.080294
H32   H     H_    0.180526 0.290423 0.104212 0.152660
H33   H     H_    0.188089 0.411168 0.209419 0.156338
C46   C     C_3   0.167447 0.269992 0.280115 -0.746090
H34   H     H_    0.205990 0.303564 0.369351 0.244295
H35   H     H_    0.065087 0.275638 0.278608 0.202599
H36   H     H_    0.191380 0.185719 0.258530 0.238627

loop_
_geom_bond_atom_site_label_1
_geom_bond_atom_site_label_2
_ccdc_geom_bond_type
C30   C32   A    
O15   C43   S    
C37   O10   S    
C27   C29   A    
C24   H4    S    
O16   C45   S    
C25   H5    S    
Cu1   O8    S    
C26   H6    S    
C21   C36   S    
C22   C35   S    
C42   H24   S    
C32   C36   A    
C24   C26   A    
C21   O5    A    
C4    C7    A    
C22   O6    A    
C44   H30   S    
C45   C46   S    
C33   C36   A    
C18   C20   A    
C34   C35   A    
C16   N1    A    
C18   N1    A    
C19   C20   A    
C45   H33   S    
C23   C33   A    
C13   C37   S    
C16   O15   S    
C14   C38   S    
C31   C33   A    
C21   O7    A    
Cu1   O4    S    
Cu2   O7    S    
Cu1   N1    S    
C5    H11   S    
C41   C42   S    
C17   H14   S    
C18   H13   S    
C38   O11   D    
C15   N2    A    
C5    C12   A    
C39   H18   S    
C3    C8    A    
C6    C11   A    
C5    C7    A    
C41   H22   S    
C6    C8    A    
C28   H1    S    
C24   C34   A    
O14   C41   S    
C29   H7    S    
C38   O12   S    
C32   C34   A    
C40   H19   S    
Cu1   Cu2   S    
C1    O3    A    
C22   O8    A    
Cu2   O3    S    
C40   H20   S    
C46   H34   S    
Cu2   N2    S    
C43   C44   S    
C27   H2    S    
C45   H32   S    
C42   H26   S    
C6    H12   S    
C9    C11   A    
Cu1   O5    S    
C10   C12   A    
Cu2   O6    S    
C41   H23   S    
C46   H35   S    
C43   H28   S    
C13   C15   A    
C14   C16   A    
C44   H29   S    
C7    O14   S    
C8    O13   S    
C13   C20   A    
C42   H25   S    
C14   C19   A    
C30   H8    S    
C39   H17   S    
C11   C12   A    
C2    O4    A    
C25   C27   A    
C26   C28   A    
C23   H3    S    
C1    C4    S    
C28   C30   A    
C2    C3    S    
C1    O1    A    
O13   C39   S    
C29   C31   A    
C3    C10   A    
C2    O2    A    
C44   H31   S    
C15   O16   S    
C39   C40   S    
C17   C19   A    
C31   C35   A    
C23   C25   A    
O12   H16   S    
C40   H21   S    
C37   O9    D    
Cu1   O1    S    
C46   H36   S    
Cu2   O2    S    
C43   H27   S    
C9    H10   S    
O10   H15   S    
C10   H9    S    
C4    C9    A    
C17   N2    A    
