data_mof_unit_11541.cif
_audit_creation_date              2013-03-05T15:42:27-0500
_audit_creation_method            fapswitch 2.2
_symmetry_space_group_name_H-M    P1
_symmetry_Int_Tables_number       1
_space_group_crystal_system       triclinic
_cell_length_a                    7.738723
_cell_length_b                    8.673893
_cell_length_c                    23.18213
_cell_angle_alpha                 91.765187
_cell_angle_beta                  85.463451
_cell_angle_gamma                 94.386837
_cell_volume                      1546.19774503

loop_
_atom_site_label
_atom_site_type_symbol
_atom_site_description
_atom_site_fract_x
_atom_site_fract_y
_atom_site_fract_z
_atom_type_partial_charge
O1    O     O_R   0.389250 0.738570 0.503790 -0.614343
O2    O     O_R   0.610750 0.261430 0.496210 -0.623856
O3    O     O_R   0.678390 0.711620 0.493890 -0.634302
O4    O     O_R   0.321610 0.288380 0.506110 -0.622665
C1    C     C_R   0.545914 0.794387 0.497418 0.941833
C2    C     C_R   0.454431 0.205501 0.501155 0.956673
O5    O     O_R   0.355400 0.513520 0.588790 -0.571665
O6    O     O_R   0.644600 0.486480 0.411210 -0.625862
O7    O     O_R   0.644550 0.486570 0.578900 -0.635069
O8    O     O_R   0.355450 0.513430 0.421100 -0.597845
C3    C     C_R   0.501604 0.502704 0.610946 0.968492
C4    C     C_R   0.497728 0.497870 0.389162 0.991939
Zn1   Zn    Zn3+2 0.306930 0.518000 0.506610 0.973966
Zn2   Zn    Zn3+2 0.693070 0.482000 0.493390 0.930217
C5    C     C_R   0.299863 0.396694 0.118066 0.611634
C6    C     C_R   0.513353 0.672208 0.887327 0.580148
N1    N     N_R   0.371105 0.514105 0.151726 -0.327409
N2    N     N_R   0.421350 0.564974 0.855359 -0.299677
C7    C     C_R   0.413360 0.657217 0.128946 0.652252
C8    C     C_R   0.294344 0.464439 0.879925 0.664933
C9    C     C_R   0.430316 0.673558 0.068814 -0.192129
C10   C     C_R   0.269634 0.455094 0.940470 -0.183998
C11   C     C_R   0.350736 0.556071 0.034512 -0.157774
C12   C     C_R   0.363786 0.566268 0.974124 -0.140132
C13   C     C_R   0.266552 0.423475 0.060700 -0.196268
C14   C     C_R   0.476427 0.684112 0.947493 -0.169913
C15   C     C_R   0.533919 0.797347 0.042725 0.414876
C16   C     C_R   0.156631 0.338317 0.968382 0.434814
C17   C     C_R   0.556624 0.803228 0.981988 0.434833
C18   C     C_R   0.160780 0.318658 0.028480 0.431263
O9    O     O_2   0.272613 0.252561 0.138309 -0.533173
O10   O     O_2   0.643442 0.762752 0.860788 -0.554259
O11   O     O_2   0.445032 0.780910 0.164316 -0.505004
O12   O     O_2   0.197015 0.372160 0.845364 -0.573706
C19   C     C_R   0.555349 0.437896 0.768897 0.486110
C20   C     C_R   0.580974 0.550113 0.227816 0.507249
C21   C     C_R   0.574484 0.419161 0.708203 0.006135
C22   C     C_R   0.601349 0.569587 0.287473 -0.027439
C23   C     C_R   0.504935 0.527001 0.673721 -0.306411
C24   C     C_R   0.486159 0.483785 0.326621 -0.307951
C25   C     C_R   0.421180 0.654123 0.699782 0.369194
C26   C     C_R   0.347593 0.389304 0.306190 0.325026
C27   C     C_R   0.393858 0.666165 0.760068 0.411738
C28   C     C_R   0.299368 0.409266 0.250130 0.419086
C29   C     C_R   0.459161 0.557289 0.794053 0.000538
C30   C     C_R   0.418024 0.487018 0.209602 -0.076484
C31   C     C_2   0.569408 0.956955 0.503582 -0.037098
C32   C     C_2   0.433167 0.043150 0.493423 -0.025885
N3    N     N_2   0.950330 0.457950 0.484560 -0.178460
N4    N     N_2   0.049670 0.542050 0.515440 -0.171970
H1    H     H_    0.013558 0.381821 0.456922 0.213793
H2    H     H_    0.986449 0.618250 0.543043 0.198676
O13   O     O_3   0.644806 0.889510 0.075805 -0.565044
C33   C     C_3   0.584503 0.038415 0.084822 -0.117836
H3    H     H_    0.617982 0.082278 0.128306 0.206371
H4    H     H_    0.441321 0.040378 0.083786 0.141774
H5    H     H_    0.652887 0.119051 0.052924 0.179991
O14   O     O_3   0.028599 0.255906 0.938992 -0.589209
C34   C     C_3   0.088748 0.115780 0.915242 -0.166480
H6    H     H_    0.231695 0.108360 0.914894 0.089983
H7    H     H_    0.052696 0.102154 0.869918 0.211985
H8    H     H_    0.020995 0.016533 0.938528 0.198539
O15   O     O_3   0.672465 0.917083 0.957610 -0.566524
C35   C     C_3   0.578554 0.037335 0.939011 -0.218509
H9    H     H_    0.484534 0.079462 0.973515 0.079738
H10   H     H_    0.508930 0.000827 0.900353 0.179064
H11   H     H_    0.671690 0.136517 0.926708 0.224111
O16   O     O_3   0.036694 0.218969 0.057421 -0.586145
C36   C     C_3   0.083836 0.064457 0.052386 -0.128581
H12   H     H_    0.202915 0.046203 0.023556 0.054044
H13   H     H_    0.974093 0.990357 0.036215 0.215792
H14   H     H_    0.103294 0.022422 0.095920 0.220009
O17   O     O_3   0.612135 0.329420 0.804110 -0.639067
C37   C     C_3   0.783952 0.375965 0.816595 -0.217796
H15   H     H_    0.789399 0.484626 0.843270 0.204483
H16   H     H_    0.872375 0.389788 0.776504 0.189221
H17   H     H_    0.832570 0.284729 0.842092 0.225929
O18   O     O_3   0.712696 0.609627 0.188629 -0.575669
C38   C     C_3   0.767448 0.493122 0.148568 -0.224122
H18   H     H_    0.741723 0.373099 0.164685 0.135546
H19   H     H_    0.909839 0.512925 0.138515 0.205156
H20   H     H_    0.705833 0.501516 0.107338 0.169950
C39   C     C_3   0.657974 0.280355 0.680584 -0.826029
H21   H     H_    0.778206 0.318852 0.653991 0.252467
H22   H     H_    0.693441 0.198570 0.712753 0.262755
H23   H     H_    0.565824 0.215920 0.652640 0.204502
C40   C     C_3   0.734503 0.689933 0.309166 -0.786324
H24   H     H_    0.828079 0.636190 0.334560 0.229192
H25   H     H_    0.808974 0.754219 0.273501 0.276997
H26   H     H_    0.667187 0.775876 0.337501 0.218435
O19   O     O_3   0.350796 0.759522 0.666562 -0.560838
C41   C     C_3   0.486088 0.865235 0.644807 -0.308924
H27   H     H_    0.579666 0.807603 0.614316 0.162101
H28   H     H_    0.558631 0.923829 0.679780 0.139143
H29   H     H_    0.428203 0.955524 0.621344 0.192206
O20   O     O_3   0.246035 0.290783 0.343108 -0.599911
C42   C     C_3   0.282940 0.137242 0.327902 -0.254644
H30   H     H_    0.411520 0.112961 0.342420 0.152888
H31   H     H_    0.279120 0.110522 0.280691 0.211094
H32   H     H_    0.181908 0.057536 0.349986 0.179238
O21   O     O_3   0.282531 0.769652 0.786426 -0.582370
C43   C     C_3   0.360974 0.921934 0.784266 -0.175248
H33   H     H_    0.319310 0.981661 0.746667 0.203266
H34   H     H_    0.505549 0.928960 0.783719 0.164762
H35   H     H_    0.313241 0.986474 0.823401 0.161919
O22   O     O_3   0.140357 0.344852 0.234520 -0.542526
C44   C     C_3   0.008195 0.431278 0.261006 -0.216140
H36   H     H_    0.881302 0.372219 0.251601 0.189939
H37   H     H_    0.017868 0.549542 0.243264 0.172944
H38   H     H_    0.009609 0.437275 0.308906 0.184448
C45   C     C_3   0.739615 0.017958 0.528879 -0.895198
H39   H     H_    0.812627 0.924997 0.545075 0.232936
H40   H     H_    0.828168 0.077904 0.495251 0.271457
H41   H     H_    0.713409 0.095861 0.566896 0.244012
C46   C     C_3   0.264716 0.981947 0.467510 -0.878345
H42   H     H_    0.192041 0.075691 0.451813 0.246110
H43   H     H_    0.293069 0.904369 0.429461 0.235253
H44   H     H_    0.175214 0.921417 0.500730 0.267054

loop_
_geom_bond_atom_site_label_1
_geom_bond_atom_site_label_2
_geom_bond_distance
_ccdc_geom_bond_type
Zn1   N4    2.011317 S    
C40   H24   1.106454 S    
C17   O15   1.384602 S    
O21   C43   1.411504 S    
C15   C17   1.407073 A    
C44   H37   1.111944 S    
O17   C37   1.409350 S    
C45   H39   1.110090 S    
C42   H30   1.112277 S    
C23   C25   1.416773 A    
O13   C33   1.410607 S    
O5    C3    1.289927 A    
C1    C31   1.412202 S    
C37   H16   1.113599 S    
O1    C1    1.269792 A    
C7    C9    1.400328 A    
C12   C14   1.415355 A    
C36   H12   1.113250 S    
C5    C13   1.404063 A    
Zn2   N3    2.011316 S    
O22   C44   1.405206 S    
C46   H42   1.109269 S    
C43   H35   1.104655 S    
O4    Zn1   2.003220 S    
C36   H13   1.107667 S    
C31   C32   1.377236 D    
O16   C36   1.414676 S    
C46   H43   1.111017 S    
C37   H17   1.107588 S    
N4    H2    1.029365 S    
C11   C12   1.400614 A    
C20   C30   1.425630 A    
C8    O12   1.346721 S    
C24   C26   1.402792 A    
C9    C15   1.411774 A    
C34   H6    1.112383 S    
C10   C16   1.422952 A    
C25   C27   1.398730 A    
O2    C2    1.266329 A    
C26   C28   1.399518 A    
O8    C4    1.290867 A    
C42   H31   1.113941 S    
C28   C30   1.410168 A    
C6    C14   1.403688 A    
C33   H4    1.111641 S    
C34   H7    1.108820 S    
C37   H15   1.111146 S    
C35   H11   1.108462 S    
N1    C30   1.447992 S    
O4    C2    1.294517 A    
C7    O11   1.349397 S    
O19   C41   1.410468 S    
C38   H19   1.109478 S    
O18   C38   1.417269 S    
N3    H1    1.029430 S    
O14   C34   1.414870 S    
C41   H29   1.108291 S    
O15   C35   1.412533 S    
C35   H10   1.107491 S    
C4    C24   1.460432 S    
C36   H14   1.108712 S    
C3    C23   1.465968 S    
O7    Zn2   1.987911 S    
C27   O21   1.386568 S    
O7    C3    1.297105 A    
C39   H21   1.109809 S    
O6    C4    1.294240 A    
C46   H44   1.110564 S    
O20   C42   1.411685 S    
C41   H28   1.110740 S    
C45   H40   1.110707 S    
C43   H34   1.114906 S    
C27   C29   1.396344 A    
O3    Zn2   2.003219 S    
C2    C32   1.412778 S    
C32   C46   1.529836 S    
C25   O19   1.382540 S    
C8    C10   1.405448 A    
C16   O14   1.387553 S    
C9    C11   1.407714 A    
C44   H38   1.110932 S    
C10   C12   1.416159 A    
O1    Zn1   1.971068 S    
C44   H36   1.106474 S    
C19   C29   1.406671 A    
N2    C29   1.428719 S    
C42   H32   1.107788 S    
C19   C21   1.408777 A    
C13   C18   1.412627 A    
C5    N1    1.372302 A    
C33   H3    1.109352 S    
C19   O17   1.382795 S    
C34   H8    1.105522 S    
O6    Zn2   1.972680 S    
C39   H22   1.108812 S    
O3    C1    1.291829 A    
O8    Zn1   1.987910 S    
C38   H20   1.108118 S    
C15   O13   1.387413 S    
C5    O9    1.344556 S    
C28   O22   1.382087 S    
C6    O10   1.348933 S    
C22   C40   1.513092 S    
C26   O20   1.384317 S    
C35   H9    1.110548 S    
C20   C22   1.407845 A    
C21   C23   1.412357 A    
C20   O18   1.390241 S    
C22   C24   1.408650 A    
C31   C45   1.534704 S    
C16   C18   1.411976 A    
C41   H27   1.107516 S    
N1    C7    1.370287 A    
C45   H41   1.109265 S    
N2    C8    1.364447 A    
C11   C13   1.407685 A    
C43   H33   1.109006 S    
O2    Zn2   1.971068 S    
C38   H18   1.115138 S    
O5    Zn1   1.972680 S    
C39   H23   1.109214 S    
C14   C17   1.421847 A    
C6    N2    1.364181 A    
N3    N4    1.266762 D    
C40   H26   1.110707 S    
C40   H25   1.109293 S    
C21   C39   1.510977 S    
C18   O16   1.388059 S    
C33   H5    1.108785 S    
