data_mof_unit_58288.cif
_audit_creation_date              2012-10-26T21:33:17-0400
_audit_creation_method            fapswitch 2.2
_symmetry_space_group_name_H-M    P1
_symmetry_Int_Tables_number       1
_space_group_crystal_system       triclinic
_cell_length_a                    28.16189
_cell_length_b                    18.488938
_cell_length_c                    17.041143
_cell_angle_alpha                 90.000226
_cell_angle_beta                  60.778101
_cell_angle_gamma                 90.000331
_cell_volume                      7743.81824375

loop_
_atom_site_label
_atom_site_type_symbol
_atom_type_description
_atom_site_fract_x
_atom_site_fract_y
_atom_site_fract_z
_atom_type_partial_charge
C1    C     C_R   0.701667 0.268407 0.676015 0.912074
C2    C     C_R   0.077870 0.498804 0.569540 0.071686
C3    C     C_R   0.188520 0.219682 0.906946 0.097848
C4    C     C_R   0.073965 0.099773 0.934068 0.911354
C5    C     C_R   0.926050 0.900231 0.065941 0.910994
C6    C     C_R   0.925877 0.099576 0.066079 0.910777
C7    C     C_R   0.073979 0.900240 0.934055 0.911501
C8    C     C_R   0.574123 0.599577 0.933921 0.910780
C9    C     C_R   0.426021 0.400239 0.065944 0.911499
C10   C     C_R   0.426034 0.599771 0.065933 0.911357
C11   C     C_R   0.573950 0.400232 0.934058 0.910991
C12   C     C_R   0.577253 0.124126 0.421661 0.031695
C13   C     C_R   0.422136 0.998803 0.430438 0.071692
C14   C     C_R   0.465555 0.866379 0.449956 0.033420
C15   C     C_R   0.483093 0.126416 0.401227 0.041625
C16   C     C_R   0.546142 0.868408 0.502307 0.034606
C17   C     C_R   0.016911 0.626413 0.598760 0.041612
C18   C     C_R   0.953882 0.368418 0.497620 0.034604
C19   C     C_R   0.922752 0.624124 0.578324 0.031694
C20   C     C_R   0.034470 0.366385 0.549963 0.033409
C21   C     C_R   0.563704 0.187926 0.389937 0.183560
C22   C     C_R   0.482376 0.800280 0.471297 0.188716
C23   C     C_R   0.518006 0.187688 0.375207 0.196540
C24   C     C_R   0.601346 0.998505 0.491447 0.065987
C25   C     C_R   0.523948 0.801122 0.495673 0.193987
C26   C     C_R   0.981997 0.687682 0.624786 0.196540
C27   C     C_R   0.976092 0.301134 0.504212 0.193976
C28   C     C_R   0.936300 0.687922 0.610052 0.183575
C29   C     C_R   0.017673 0.300291 0.528566 0.188718
C30   C     C_R   0.499382 0.062303 0.426280 -0.022771
C31   C     C_R   0.531617 0.932644 0.474776 -0.025113
C32   C     C_R   0.545232 0.061592 0.439004 -0.018517
C33   C     C_R   0.489392 0.932144 0.453471 -0.020664
C34   C     C_R   0.954776 0.561592 0.560970 -0.018520
C35   C     C_R   0.075416 0.368546 0.573972 -0.223151
C36   C     C_R   0.010626 0.432148 0.546472 -0.020660
C37   C     C_R   0.000626 0.562303 0.573694 -0.022766
C38   C     C_R   0.968401 0.432650 0.525166 -0.025095
C39   C     C_R   0.940925 0.497764 0.530791 0.008520
C40   C     C_R   0.029400 0.497822 0.564044 0.007648
C41   C     C_R   0.470610 0.997821 0.435922 0.007652
C42   C     C_R   0.559086 0.997761 0.469172 0.008525
C43   C     C_R   0.885738 0.435418 0.476276 0.051625
C44   C     C_R   0.101162 0.565055 0.574339 0.048712
C45   C     C_R   0.103553 0.433275 0.567960 0.042608
C46   C     C_R   0.877382 0.621039 0.564305 -0.227429
C47   C     C_R   0.868443 0.561810 0.520307 0.041733
C48   C     C_R   0.396453 0.933276 0.432016 0.042598
C49   C     C_R   0.631561 0.061810 0.479679 0.041737
C50   C     C_R   0.614269 0.935415 0.523693 0.051615
C51   C     C_R   0.398840 0.065056 0.425654 0.048706
C52   C     C_R   0.839686 0.436053 0.461783 -0.118343
C53   C     C_R   0.155813 0.564981 0.560075 -0.120085
C54   C     C_R   0.156735 0.434760 0.558262 -0.117001
C55   C     C_R   0.829769 0.562820 0.488638 -0.103844
C56   C     C_R   0.343266 0.934760 0.441732 -0.117006
C57   C     C_R   0.917718 0.373302 0.463255 -0.214650
C58   C     C_R   0.670231 0.062821 0.511355 -0.103839
C59   C     C_R   0.660316 0.936052 0.538202 -0.118335
C60   C     C_R   0.344187 0.064981 0.439927 -0.120081
C61   C     C_R   0.816162 0.500429 0.460254 -0.303482
C62   C     C_R   0.181060 0.500022 0.556720 -0.293922
C63   C     C_R   0.318939 0.000022 0.443286 -0.293915
C64   C     C_R   0.683837 0.000429 0.539739 -0.303493
C65   C     C_3   0.046825 0.230403 0.526311 -0.921443
C66   C     C_3   0.903769 0.756753 0.622871 -0.919380
C67   C     C_3   0.952506 0.230183 0.493713 -0.929128
C68   C     C_R   0.068261 0.627685 0.595444 -0.232309
C69   C     C_3   0.991194 0.750262 0.673490 -0.938091
C70   C     C_3   0.547539 0.730167 0.506148 -0.929053
C71   C     C_3   0.508809 0.250278 0.326516 -0.938060
C72   C     C_3   0.453267 0.730378 0.473441 -0.921426
C73   C     C_3   0.596243 0.256752 0.377103 -0.919375
C74   C     C_3   0.637366 0.195500 0.081173 -0.908148
C75   C     C_3   0.360055 0.808476 0.924732 -0.910632
C76   C     C_3   0.359758 0.191591 0.925173 -0.907595
C77   C     C_3   0.639724 0.803108 0.078095 -0.909579
C78   C     C_3   0.140228 0.691629 0.074862 -0.907603
C79   C     C_R   0.582294 0.873296 0.536697 -0.214596
C80   C     C_3   0.860277 0.303111 0.921910 -0.909580
C81   C     C_3   0.862637 0.695504 0.918815 -0.908151
C82   C     C_3   0.139960 0.308522 0.075230 -0.910623
C83   C     C_R   0.431739 0.127688 0.404555 -0.232311
C84   C     C_R   0.424595 0.868547 0.425977 -0.223138
C85   C     C_R   0.298252 0.731434 0.324045 0.893421
C86   C     C_R   0.622620 0.121042 0.435686 -0.227433
C87   C     C_R   0.718558 0.261569 0.956023 0.039660
C88   C     C_R   0.280428 0.737120 0.045089 0.039285
C89   C     C_R   0.280209 0.263159 0.045337 0.039221
C90   C     C_R   0.720500 0.735840 0.953971 0.041498
C91   C     C_R   0.219790 0.763159 0.954665 0.039226
C92   C     C_R   0.779500 0.235839 0.046028 0.041497
C93   C     C_R   0.781444 0.761566 0.043974 0.039660
C94   C     C_R   0.219572 0.237122 0.954911 0.039279
C95   C     C_R   0.772693 0.285232 0.918943 -0.232538
C96   C     C_R   0.298241 0.268584 0.324055 0.890743
C97   C     C_R   0.226976 0.711172 0.080253 -0.232606
C98   C     C_R   0.226753 0.289101 0.080517 -0.232651
C99   C     C_R   0.774721 0.712412 0.916630 -0.237246
C100  C     C_R   0.273252 0.789080 0.919469 -0.232653
C101  C     C_R   0.725280 0.212409 0.083365 -0.237244
C102  C     C_R   0.727309 0.785227 0.081058 -0.232538
C103  C     C_R   0.273017 0.211153 0.919762 -0.232603
C104  C     C_R   0.803304 0.273246 0.962918 0.215443
C105  C     C_R   0.196508 0.723403 0.036032 0.214177
C106  C     C_R   0.196274 0.276844 0.036313 0.215417
C107  C     C_R   0.701807 0.731342 0.675905 0.874645
C108  C     C_R   0.805404 0.724570 0.960497 0.215737
C109  C     C_R   0.303732 0.776822 0.963670 0.215421
C110  C     C_R   0.694598 0.224569 0.039497 0.215736
C111  C     C_R   0.696697 0.773244 0.037084 0.215440
C112  C     C_R   0.303485 0.223384 0.963985 0.214174
C113  C     C_R   0.642426 0.324742 0.947317 -0.191527
C114  C     C_R   0.357048 0.674601 0.053077 -0.192157
C115  C     C_R   0.356902 0.325600 0.053215 -0.191689
C116  C     C_R   0.643764 0.673362 0.946151 -0.191067
C117  C     C_R   0.143099 0.825603 0.946784 -0.191681
C118  C     C_R   0.201758 0.768583 0.675945 0.890738
C119  C     C_R   0.856236 0.173360 0.053850 -0.191066
C120  C     C_R   0.857576 0.824738 0.052681 -0.191525
C121  C     C_R   0.142949 0.174606 0.946926 -0.192170
C122  C     C_R   0.615820 0.346111 0.899101 -0.073670
C123  C     C_R   0.383948 0.653629 0.101015 -0.072822
C124  C     C_R   0.383893 0.346435 0.101060 -0.072567
C125  C     C_R   0.616468 0.653053 0.898628 -0.074433
C126  C     C_R   0.116107 0.846437 0.898939 -0.072569
C127  C     C_R   0.883531 0.153052 0.101373 -0.074432
C128  C     C_R   0.884182 0.846109 0.100898 -0.073674
C129  C     C_R   0.798193 0.231342 0.324095 0.874635
C130  C     C_R   0.116050 0.153632 0.898986 -0.072821
C131  C     C_R   0.632481 0.320989 0.813844 -0.261081
C132  C     C_R   0.367362 0.678861 0.186196 -0.264668
C133  C     C_R   0.367358 0.321121 0.186190 -0.265686
C134  C     C_R   0.632848 0.678619 0.813679 -0.264549
C135  C     C_R   0.132642 0.821121 0.813810 -0.265686
C136  C     C_R   0.867151 0.178619 0.186322 -0.264552
C137  C     C_R   0.867519 0.820988 0.186155 -0.261077
C138  C     C_R   0.132638 0.178861 0.813804 -0.264666
C139  C     C_R   0.678842 0.280094 0.771613 -0.060701
C140  C     C_R   0.798333 0.768407 0.323984 0.912073
C141  C     C_R   0.320832 0.719399 0.228633 -0.055661
C142  C     C_R   0.320783 0.280672 0.228678 -0.054666
C143  C     C_R   0.679448 0.718988 0.771141 -0.048169
C144  C     C_R   0.179216 0.780670 0.771322 -0.054664
C145  C     C_R   0.820552 0.218987 0.228859 -0.048166
C146  C     C_R   0.821159 0.780092 0.228386 -0.060703
C147  C     C_R   0.179168 0.219398 0.771367 -0.055666
C148  C     C_R   0.706384 0.257504 0.818470 -0.205439
C149  C     C_R   0.292869 0.741322 0.182231 -0.204799
C150  C     C_R   0.292732 0.258888 0.182376 -0.204692
C151  C     C_R   0.201749 0.231433 0.675955 0.893429
C152  C     C_R   0.707692 0.740473 0.817221 -0.214096
C153  C     C_R   0.207266 0.758886 0.817626 -0.204698
C154  C     C_R   0.792307 0.240472 0.182779 -0.214097
C155  C     C_R   0.793617 0.757501 0.181529 -0.205438
C156  C     C_R   0.207132 0.241321 0.817768 -0.204794
C157  C     C_R   0.696785 0.128008 0.516506 0.907137
C158  C     C_R   0.308569 0.870661 0.465279 0.901711
C159  C     C_R   0.309154 0.129503 0.463789 0.893825
C160  C     C_R   0.691744 0.871147 0.531809 0.900180
C161  C     C_R   0.190846 0.629503 0.536213 0.893825
C162  C     C_R   0.898662 0.498507 0.508525 0.065995
C163  C     C_R   0.808256 0.371147 0.468186 0.900175
C164  C     C_R   0.803215 0.628008 0.483492 0.907142
C165  C     C_R   0.191432 0.370661 0.534718 0.901729
C166  C     C_R   0.687623 0.279022 0.907818 0.098731
C167  C     C_R   0.311479 0.719680 0.093054 0.097843
C168  C     C_R   0.311293 0.280588 0.093247 0.097461
C169  C     C_R   0.689319 0.718485 0.906191 0.099513
C170  C     C_R   0.188706 0.780588 0.906754 0.097460
C171  C     C_R   0.810680 0.218483 0.093809 0.099511
C172  C     C_R   0.812379 0.779017 0.092179 0.098730
H1    H     H_    0.784291 0.501096 0.441900 0.192519
H2    H     H_    0.417897 0.177270 0.389447 0.187107
H3    H     H_    0.415174 0.819432 0.402626 0.190593
H4    H     H_    0.651960 0.164086 0.408983 0.191330
H5    H     H_    0.629735 0.346397 0.013720 0.152600
H6    H     H_    0.369889 0.653316 0.986447 0.152939
H7    H     H_    0.369717 0.346915 0.986607 0.153292
H8    H     H_    0.631214 0.651527 0.012422 0.153059
H9    H     H_    0.130286 0.846923 0.013389 0.153293
H10   H     H_    0.868785 0.151525 0.987578 0.153060
H11   H     H_    0.870267 0.846392 0.986278 0.152601
H12   H     H_    0.222245 0.500234 0.546235 0.197845
H13   H     H_    0.130105 0.153327 0.013560 0.152937
H14   H     H_    0.611717 0.338183 0.777604 0.177917
H15   H     H_    0.388382 0.662107 0.222191 0.176003
H16   H     H_    0.388455 0.337743 0.222111 0.176512
H17   H     H_    0.611577 0.662299 0.777934 0.176959
H18   H     H_    0.111545 0.837743 0.777889 0.176513
H19   H     H_    0.888422 0.162298 0.222067 0.176959
H20   H     H_    0.888284 0.838183 0.222396 0.177917
H21   H     H_    0.111618 0.162106 0.777809 0.176004
H22   H     H_    0.037485 0.184529 0.494402 0.245972
H23   H     H_    0.277752 0.000234 0.453781 0.197847
H24   H     H_    0.091524 0.238193 0.485729 0.249401
H25   H     H_    0.036150 0.214401 0.595799 0.230699
H26   H     H_    0.923695 0.806057 0.629815 0.248947
H27   H     H_    0.899250 0.766868 0.562611 0.240164
H28   H     H_    0.862926 0.751478 0.683111 0.232701
H29   H     H_    0.947075 0.191806 0.547589 0.244241
H30   H     H_    0.911090 0.235769 0.502282 0.246043
H31   H     H_    0.979895 0.206192 0.426837 0.238169
H32   H     H_    0.952093 0.774463 0.724205 0.250607
H33   H     H_    0.010108 0.732111 0.713931 0.234283
H34   H     H_    0.715704 0.001097 0.558101 0.192515
H35   H     H_    0.017084 0.792023 0.624412 0.242673
H36   H     H_    0.553076 0.691866 0.452142 0.244212
H37   H     H_    0.588907 0.735757 0.497779 0.246016
H38   H     H_    0.520093 0.706082 0.572937 0.238163
H39   H     H_    0.547917 0.274422 0.275739 0.250593
H40   H     H_    0.489839 0.232163 0.286147 0.234267
H41   H     H_    0.482977 0.292077 0.375593 0.242676
H42   H     H_    0.462665 0.684456 0.505205 0.245965
H43   H     H_    0.408564 0.738104 0.514086 0.249357
H44   H     H_    0.463922 0.714472 0.403932 0.230693
H45   H     H_    0.084827 0.319425 0.597327 0.190606
H46   H     H_    0.576335 0.306055 0.370115 0.248952
H47   H     H_    0.600750 0.266883 0.437372 0.240163
H48   H     H_    0.637091 0.251457 0.316880 0.232692
H49   H     H_    0.607738 0.240593 0.102051 0.235892
H50   H     H_    0.632918 0.160771 0.031996 0.249099
H51   H     H_    0.626970 0.162396 0.141876 0.244234
H52   H     H_    0.362980 0.842304 0.976048 0.248635
H53   H     H_    0.390794 0.764666 0.902708 0.237240
H54   H     H_    0.370057 0.843149 0.865421 0.238701
H55   H     H_    0.390557 0.235324 0.903117 0.238181
H56   H     H_    0.848040 0.664079 0.591017 0.191322
H57   H     H_    0.362602 0.157782 0.976578 0.248339
H58   H     H_    0.369734 0.156859 0.865920 0.238721
H59   H     H_    0.635547 0.837156 0.028127 0.248965
H60   H     H_    0.609719 0.758404 0.100073 0.236552
H61   H     H_    0.629695 0.837203 0.137879 0.239320
H62   H     H_    0.109437 0.735373 0.096916 0.238175
H63   H     H_    0.137372 0.657820 0.023467 0.248341
H64   H     H_    0.130250 0.656903 0.134119 0.238723
H65   H     H_    0.864454 0.337155 0.971881 0.248965
H66   H     H_    0.890281 0.258406 0.899930 0.236554
H67   H     H_    0.916423 0.329385 0.422757 0.183202
H68   H     H_    0.870306 0.337209 0.862128 0.239318
H69   H     H_    0.892264 0.740599 0.897932 0.235898
H70   H     H_    0.867088 0.660777 0.967989 0.249096
H71   H     H_    0.873030 0.662399 0.858114 0.244238
H72   H     H_    0.137051 0.342354 0.023902 0.248631
H73   H     H_    0.109211 0.264725 0.097250 0.237244
H74   H     H_    0.129960 0.343198 0.134539 0.238700
H75   H     H_    0.790835 0.314472 0.855767 0.155606
H76   H     H_    0.209292 0.680104 0.142057 0.155336
H77   H     H_    0.209070 0.320161 0.142328 0.155311
H78   H     H_    0.082097 0.677265 0.610572 0.187105
H79   H     H_    0.792893 0.683364 0.853307 0.151876
H80   H     H_    0.290940 0.820125 0.857646 0.155308
H81   H     H_    0.707108 0.183357 0.146685 0.151877
H82   H     H_    0.709167 0.814465 0.144236 0.155609
H83   H     H_    0.290696 0.180070 0.857970 0.155338
H84   H     H_    0.743174 0.225409 0.785042 0.157134
H85   H     H_    0.255930 0.773108 0.215824 0.157212
H86   H     H_    0.255767 0.227154 0.216006 0.157036
H87   H     H_    0.744654 0.772219 0.783528 0.153917
H88   H     H_    0.244230 0.727149 0.783997 0.157034
H89   H     H_    0.583579 0.829385 0.577209 0.183158
H90   H     H_    0.755346 0.272219 0.216472 0.153917
H91   H     H_    0.756827 0.725406 0.214957 0.157134
H92   H     H_    0.244073 0.273104 0.784174 0.157213
O1    O     O_R   0.746490 0.236330 0.638080 -0.632313
O2    O     O_R   0.325830 0.813840 0.483730 -0.643118
O3    O     O_R   0.325830 0.186160 0.483730 -0.634191
O4    O     O_R   0.674170 0.813840 0.516270 -0.643971
O5    O     O_R   0.174170 0.686160 0.516270 -0.634185
O6    O     O_R   0.825830 0.313840 0.483730 -0.643966
O7    O     O_R   0.825830 0.686160 0.483730 -0.642523
O8    O     O_R   0.174170 0.313840 0.516270 -0.643143
O9    O     O_R   0.739960 0.127620 0.525000 -0.627984
O10   O     O_R   0.260040 0.872380 0.475000 -0.626587
O11   O     O_R   0.260040 0.127620 0.475000 -0.623925
O12   O     O_R   0.253510 0.763670 0.361920 -0.633576
O13   O     O_R   0.739960 0.872380 0.525000 -0.620093
O14   O     O_R   0.239960 0.627620 0.525000 -0.623927
O15   O     O_R   0.760040 0.372380 0.475000 -0.620095
O16   O     O_R   0.760040 0.627620 0.475000 -0.627989
O17   O     O_R   0.239960 0.372380 0.525000 -0.626587
O18   O     O_R   0.680700 0.294870 0.629350 -0.622053
O19   O     O_R   0.319300 0.705130 0.370650 -0.632303
O20   O     O_R   0.319300 0.294870 0.370650 -0.633146
O21   O     O_R   0.680700 0.705130 0.629350 -0.634474
O22   O     O_R   0.180700 0.794870 0.629350 -0.633147
O23   O     O_R   0.253510 0.236330 0.361920 -0.635569
O24   O     O_R   0.819300 0.205130 0.370650 -0.634470
O25   O     O_R   0.819300 0.794870 0.370650 -0.622054
O26   O     O_R   0.180700 0.205130 0.629350 -0.632301
O27   O     O_R   0.062020 0.072840 0.007170 -0.628159
O28   O     O_R   0.937980 0.927160 0.992830 -0.628384
O29   O     O_R   0.937980 0.072840 0.992830 -0.628505
O30   O     O_R   0.062020 0.927160 0.007170 -0.627790
O31   O     O_R   0.562020 0.572840 0.007170 -0.628505
O32   O     O_R   0.437980 0.427160 0.992830 -0.627788
O33   O     O_R   0.437980 0.572840 0.992830 -0.628161
O34   O     O_R   0.746490 0.763670 0.638080 -0.649232
O35   O     O_R   0.562020 0.427160 0.007170 -0.628385
O36   O     O_R   0.947860 0.073950 0.109290 -0.623149
O37   O     O_R   0.052140 0.926050 0.890710 -0.622594
O38   O     O_R   0.052140 0.073950 0.890710 -0.623007
O39   O     O_R   0.947860 0.926050 0.109290 -0.622650
O40   O     O_R   0.447860 0.573950 0.109290 -0.623007
O41   O     O_R   0.552140 0.426050 0.890710 -0.622651
O42   O     O_R   0.552140 0.573950 0.890710 -0.623149
O43   O     O_R   0.447860 0.426050 0.109290 -0.622594
O44   O     O_R   0.246490 0.736330 0.638080 -0.635563
O45   O     O_R   0.753510 0.263670 0.361920 -0.649235
O46   O     O_R   0.753510 0.736330 0.361920 -0.632308
O47   O     O_R   0.246490 0.263670 0.638080 -0.633577
O48   O     O_R   0.674170 0.186160 0.516270 -0.642523
Zn1   Zn    Zn3+2 0.792340 0.208750 0.507670 0.938583
Zn2   Zn    Zn3+2 0.494040 0.500000 0.919480 0.937699
Zn3   Zn    Zn3+2 0.005960 0.000000 0.080520 0.937698
Zn4   Zn    Zn3+2 0.994040 1.000000 0.919480 0.936080
Zn5   Zn    Zn3+2 0.207660 0.791250 0.492330 0.947399
Zn6   Zn    Zn3+2 0.207660 0.208750 0.492330 0.936313
Zn7   Zn    Zn3+2 0.792340 0.791250 0.507670 0.939572
Zn8   Zn    Zn3+2 0.292340 0.708750 0.507670 0.936326
Zn9   Zn    Zn3+2 0.707660 0.291250 0.492330 0.939568
Zn10  Zn    Zn3+2 0.707660 0.708750 0.492330 0.938582
Zn11  Zn    Zn3+2 0.292340 0.291250 0.507670 0.947407
Zn12  Zn    Zn3+2 0.505960 0.500000 0.080520 0.936082

loop_
_geom_bond_atom_site_label_1
_geom_bond_atom_site_label_2
_ccdc_geom_bond_type
C113  H5    S    
C158  O2    A    
C31   C42   A    
C50   C79   A    
C14   C33   A    
C19   C46   A    
C16   C31   A    
C96   O20   A    
C124  C133  A    
C50   C59   A    
C90   C111  A    
C6    C127  S    
C52   C61   A    
C10   O40   A    
O48   Zn9   S    
O26   Zn6   S    
C24   C42   A    
C73   H47   S    
O27   Zn3   S    
C133  H16   S    
C140  O25   A    
C13   C51   A    
C117  C170  A    
C113  C122  A    
C149  C167  A    
C91   C100  A    
C117  C126  A    
C129  C145  S    
C88   C97   A    
O16   Zn10  S    
C155  H91   S    
C81   C108  S    
C100  C109  A    
C58   C64   A    
C102  C111  A    
C163  O6    A    
O42   Zn2   S    
C137  C146  A    
C127  C136  A    
C99   H79   S    
O44   Zn8   S    
C113  C166  A    
C91   C170  S    
C4    C130  S    
C101  C110  A    
C74   H51   S    
O41   Zn2   S    
C103  C112  A    
C119  H10   S    
C81   H70   S    
C101  H81   S    
C59   C160  S    
C150  C168  A    
C88   C109  A    
C71   H39   S    
C116  H8    S    
C76   H58   S    
C54   C165  S    
C107  C143  S    
C35   C45   A    
C51   C83   A    
C15   C30   A    
C65   H22   S    
C138  H21   S    
C16   C25   A    
C107  O34   A    
C74   C110  S    
C98   H77   S    
O47   Zn11  S    
C11   O35   A    
C8    O31   A    
C98   C106  A    
C85   O12   A    
C12   C86   A    
C161  O14   A    
C18   C38   A    
C4    O27   A    
O15   Zn9   S    
C163  O15   A    
C5    C128  S    
C3    C156  A    
C7    C126  S    
O29   Zn4   S    
C67   H31   S    
C92   C104  A    
C52   C163  S    
O21   Zn10  S    
C2    C40   A    
C72   H43   S    
O5    Zn5   S    
C78   H64   S    
C85   O19   A    
C26   C69   S    
O7    Zn7   S    
O34   Zn7   S    
C66   H28   S    
C3    C121  A    
O9    Zn1   S    
O37   Zn4   S    
C151  O47   A    
C165  O8    A    
C123  C132  A    
C27   C29   A    
C91   C105  A    
C121  C130  A    
C114  C167  A    
C87   C110  A    
C99   C108  A    
C74   H49   S    
C133  C142  A    
C37   C40   A    
C38   C39   A    
C43   C52   A    
O11   Zn6   S    
C21   C73   S    
C96   O23   A    
C95   H75   S    
C156  H92   S    
C47   C162  A    
C2    C44   A    
C114  H6    S    
C22   C25   A    
C87   C95   A    
C153  C170  A    
C30   C41   A    
C84   H3    S    
C76   C112  S    
C65   H24   S    
C57   H67   S    
C134  C143  A    
O23   Zn6   S    
O8    Zn6   S    
O24   Zn1   S    
C35   H45   S    
C22   C72   S    
O3    Zn11  S    
C2    C45   A    
C24   C50   A    
C139  C148  A    
C77   H59   S    
O32   Zn2   S    
C82   H74   S    
C34   C39   A    
C75   H53   S    
O20   Zn11  S    
C85   C141  S    
C129  O45   A    
O4    Zn10  S    
O30   Zn3   S    
C80   H65   S    
C147  C151  S    
C135  H18   S    
C67   H29   S    
C78   H62   S    
C44   C53   A    
C4    O38   A    
C39   C162  A    
C19   C28   A    
C5    O39   A    
C149  H85   S    
C66   H26   S    
C29   C65   S    
C114  C123  A    
C7    O37   A    
C164  O7    A    
C75   H52   S    
C160  O4    A    
C116  C125  A    
C70   H38   S    
C11   C122  S    
C145  C154  A    
C122  C131  A    
C68   H78   S    
C132  C141  A    
O6    Zn1   S    
C32   C42   A    
O38   Zn4   S    
O18   Zn9   S    
C49   C86   A    
O28   Zn4   S    
C58   C157  S    
O10   Zn5   S    
C148  H84   S    
C69   H33   S    
C89   C98   A    
C151  O26   A    
C14   C22   A    
C97   C105  A    
C10   O33   A    
C152  H87   S    
C55   C61   A    
C90   C169  S    
O14   Zn8   S    
C73   H46   S    
O1    Zn1   S    
O43   Zn12  S    
C82   C106  S    
C131  C139  A    
C43   C57   A    
C62   H12   S    
C43   C162  A    
C69   H32   S    
O22   Zn5   S    
C119  C171  A    
C148  C166  A    
C51   C60   A    
C115  C168  A    
C119  C127  A    
C125  C134  A    
C72   H42   S    
C11   O41   A    
C157  O48   A    
C34   C37   A    
C103  H83   S    
C90   C99   A    
O17   Zn11  S    
C60   C159  S    
C14   C84   A    
C13   C41   A    
C6    O29   A    
C93   C172  S    
C89   C112  A    
C80   C104  S    
C134  H17   S    
C107  O21   A    
O33   Zn2   S    
C93   C108  A    
C157  O9    A    
C8    O42   A    
C81   H69   S    
O12   Zn5   S    
C77   C111  S    
C155  C172  A    
C140  O46   A    
C146  C155  A    
O35   Zn12  S    
C1    C139  S    
C76   H55   S    
C132  H15   S    
C7    O30   A    
C75   H54   S    
C69   H35   S    
C136  H19   S    
C23   C71   S    
C10   C123  S    
C140  C146  S    
C15   C83   A    
C54   C62   A    
C161  O5    A    
C71   H41   S    
C64   H34   S    
C73   H48   S    
C102  H82   S    
C89   C168  S    
C154  H90   S    
C165  O17   A    
C137  H20   S    
C18   C57   A    
C88   C167  S    
C27   C67   S    
C147  C156  A    
C92   C101  A    
C143  C152  A    
C72   H44   S    
C126  C135  A    
C60   C63   A    
C79   H89   S    
C63   H23   S    
C5    O28   A    
C46   C47   A    
C17   C68   A    
C115  C124  A    
C160  O13   A    
C93   C102  A    
C120  C128  A    
O46   Zn10  S    
C74   H50   S    
C16   C79   A    
C33   C41   A    
C142  C150  A    
C36   C38   A    
C6    O36   A    
C152  C169  A    
C118  O22   A    
O19   Zn8   S    
C20   C36   A    
C8    C125  S    
C71   H40   S    
C76   H57   S    
C46   H56   S    
C25   C70   S    
O36   Zn3   S    
C153  H88   S    
C70   H36   S    
O31   Zn12  S    
C28   C66   S    
C97   H76   S    
C141  C149  A    
C59   C64   A    
C78   C105  S    
C17   C26   A    
C55   C164  S    
C118  C144  S    
C1    O18   A    
C117  H9    S    
C87   C166  S    
C92   C171  S    
C159  O3    A    
C9    C124  S    
C80   H66   S    
C144  C153  A    
C56   C158  S    
C78   H63   S    
C118  O44   A    
C154  C171  A    
C31   C33   A    
O45   Zn9   S    
C66   H27   S    
C15   C23   A    
C12   C32   A    
C20   C35   A    
C158  O10   A    
C20   C29   A    
C75   C109  S    
C36   C40   A    
C61   H1    S    
C120  C172  A    
O39   Zn3   S    
C12   C21   A    
C49   C58   A    
C48   C84   A    
C121  H13   S    
C128  C137  A    
C53   C62   A    
C9    O43   A    
C138  C147  A    
O25   Zn7   S    
C77   H61   S    
C56   C63   A    
C82   H72   S    
C17   C37   A    
O40   Zn12  S    
C65   H25   S    
C135  C144  A    
C45   C54   A    
C44   C68   A    
C95   C104  A    
C47   C55   A    
C83   H2    S    
C24   C49   A    
C48   C56   A    
C94   C106  A    
C77   H60   S    
C82   H73   S    
C129  O24   A    
O2    Zn8   S    
C18   C27   A    
C136  C145  A    
C100  H80   S    
C19   C34   A    
C94   C103  A    
C13   C48   A    
C26   C28   A    
C81   H71   S    
C159  O11   A    
C80   H68   S    
C21   C23   A    
C67   H30   S    
C150  H86   S    
C30   C32   A    
C53   C161  S    
C116  C169  A    
C3    C94   S    
C86   H4    S    
C120  H11   S    
O13   Zn7   S    
C96   C142  S    
C131  H14   S    
C1    O1    A    
C70   H37   S    
C164  O16   A    
C9    O32   A    
C115  H7    S    
C130  C138  A    
