data_mof_unit_56241.cif
_audit_creation_date              2012-12-10T19:53:43-0500
_audit_creation_method            fapswitch 2.2
_symmetry_space_group_name_H-M    P1
_symmetry_Int_Tables_number       1
_space_group_crystal_system       triclinic
_cell_length_a                    15.195459
_cell_length_b                    14.249553
_cell_length_c                    10.498085
_cell_angle_alpha                 90.573907
_cell_angle_beta                  90.274022
_cell_angle_gamma                 89.859655
_cell_volume                      2272.9879971

loop_
_atom_site_label
_atom_site_type_symbol
_atom_type_description
_atom_site_fract_x
_atom_site_fract_y
_atom_site_fract_z
_atom_type_partial_charge
C1    C     C_R   0.327755 0.500032 0.501810 1.016221
C2    C     C_R   0.672244 0.499866 0.495390 1.006037
C3    C     C_R   0.545796 0.103128 0.407113 0.273181
C4    C     C_R   0.550447 0.895591 0.590568 0.270292
C5    C     C_R   0.454906 0.104666 0.594392 0.269569
C6    C     C_R   0.450157 0.895675 0.411839 0.288345
C7    C     C_R   0.544903 0.202538 0.408183 0.338413
C8    C     C_R   0.550381 0.796231 0.586918 0.363745
C9    C     C_R   0.455310 0.204078 0.592381 0.333155
C10   C     C_R   0.450611 0.796391 0.412959 0.334323
C11   C     C_R   0.500884 0.052900 0.501391 -0.062440
C12   C     C_R   0.500567 0.946719 0.501344 -0.047692
C13   C     C_R   0.496284 0.499642 0.257544 0.955323
C14   C     C_R   0.503087 0.500357 0.742502 0.955106
C15   C     C_3   0.452442 0.575626 0.040206 -0.270691
C16   C     C_3   0.546346 0.424157 0.959789 -0.225479
C17   C     C_3   0.538763 0.580753 0.962875 -0.290266
C18   C     C_3   0.460053 0.419059 0.037329 -0.236005
C19   C     C_3   0.418992 0.495812 0.953656 0.543922
C20   C     C_3   0.579659 0.504084 0.046414 0.528107
C21   C     C_3   0.503596 0.500840 0.877440 -0.138874
C22   C     C_3   0.495150 0.499092 0.122573 -0.132545
C23   C     C_R   0.095177 0.568804 0.430688 0.390060
C24   C     C_R   0.904939 0.416119 0.446281 0.370762
C25   C     C_R   0.907071 0.578608 0.521488 0.410083
C26   C     C_R   0.094082 0.422324 0.547779 0.368034
C27   C     C_R   0.184556 0.577458 0.454928 0.294102
C28   C     C_R   0.813689 0.415358 0.456732 0.306748
C29   C     C_R   0.816240 0.582821 0.507819 0.288601
C30   C     C_R   0.185421 0.419567 0.541742 0.307337
C31   C     C_R   0.231682 0.499534 0.501277 -0.433303
C32   C     C_R   0.768317 0.499395 0.486303 -0.428504
C33   C     C_R   0.048259 0.495193 0.486683 -0.199175
C34   C     C_R   0.952166 0.496478 0.484400 -0.200064
H1    H     H_    0.411755 0.635394 0.073834 0.232939
H2    H     H_    0.585973 0.364318 0.922886 0.188780
H3    H     H_    0.572331 0.645174 0.930487 0.227192
H4    H     H_    0.428503 0.354665 0.073892 0.190150
N1    N     N_R   0.500000 0.252470 0.500000 -0.221059
N2    N     N_R   0.500000 0.747530 0.500000 -0.213738
O1    O     O_R   0.369060 0.579480 0.500010 -0.583876
O2    O     O_R   0.630940 0.420520 0.499990 -0.587528
O3    O     O_R   0.630940 0.579480 0.499990 -0.567819
O4    O     O_R   0.369060 0.420520 0.500010 -0.587412
O5    O     O_R   0.499980 0.579460 0.313950 -0.585518
O6    O     O_R   0.500020 0.420540 0.686050 -0.580578
O7    O     O_R   0.500020 0.579460 0.686050 -0.585904
O8    O     O_R   0.499980 0.420540 0.313950 -0.583079
Zn1   Zn    Zn3+2 0.500000 0.606140 0.500000 1.048821
Zn2   Zn    Zn3+2 0.500000 0.393860 0.500000 1.041124
O9    O     O_3   0.336037 0.494293 0.892744 -0.624527
C35   C     C_3   0.268679 0.479810 0.982699 0.063885
H5    H     H_    0.213594 0.528377 0.959964 0.149321
H6    H     H_    0.288400 0.495752 0.083281 0.124514
C36   C     C_3   0.235217 0.379072 0.970817 -0.252216
H7    H     H_    0.206167 0.368239 0.874574 0.250499
H8    H     H_    0.290571 0.328830 0.981476 0.254875
C37   C     C_3   0.166538 0.358546 0.071866 -1.085868
H9    H     H_    0.195569 0.366527 0.168711 0.264027
H10   H     H_    0.143048 0.285354 0.059739 0.287402
H11   H     H_    0.109712 0.407108 0.062082 0.245820
O10   O     O_3   0.662005 0.506481 0.108376 -0.632667
C38   C     C_3   0.728960 0.520858 0.018336 0.088678
H12   H     H_    0.735194 0.597271 0.999601 0.155423
H13   H     H_    0.716216 0.483088 0.926396 0.122572
C39   C     C_3   0.815159 0.484014 0.073467 -0.280947
H14   H     H_    0.830876 0.522512 0.163368 0.201860
H15   H     H_    0.807371 0.408296 0.095267 0.249666
C40   C     C_3   0.890429 0.495323 0.979670 -1.086149
H16   H     H_    0.873111 0.461610 0.887361 0.266099
H17   H     H_    0.951054 0.461989 0.017339 0.249985
H18   H     H_    0.903739 0.570666 0.964796 0.269607
O11   O     O_3   0.054141 0.635067 0.355486 -0.560191
C41   C     C_3   0.051970 0.601271 0.228266 0.125498
H19   H     H_    0.991851 0.558371 0.213351 0.121988
H20   H     H_    0.110421 0.557129 0.203144 0.074976
C42   C     C_3   0.051269 0.683742 0.136263 -0.308982
H21   H     H_    0.110531 0.727745 0.153554 0.252879
H22   H     H_    0.054209 0.656229 0.036875 0.150337
C43   C     C_3   0.968904 0.744171 0.150808 -0.835096
H23   H     H_    0.909158 0.701643 0.131054 0.232802
H24   H     H_    0.970997 0.802697 0.081866 0.242345
H25   H     H_    0.965255 0.774394 0.248590 0.294593
O12   O     O_3   0.946868 0.334494 0.407408 -0.564970
C44   C     C_3   0.974500 0.342347 0.279760 0.138467
H26   H     H_    0.044950 0.362631 0.278129 0.132943
H27   H     H_    0.936950 0.395651 0.225276 0.072195
C45   C     C_3   0.961895 0.248072 0.211467 -0.336286
H28   H     H_    0.892882 0.224228 0.223355 0.244434
H29   H     H_    0.973457 0.256868 0.108181 0.177761
C46   C     C_3   0.024976 0.173407 0.261368 -0.828560
H30   H     H_    0.093842 0.193899 0.241276 0.244775
H31   H     H_    0.011405 0.105357 0.212834 0.248695
H32   H     H_    0.017101 0.164276 0.365565 0.281911
O13   O     O_3   0.951735 0.658157 0.562204 -0.567461
C47   C     C_3   0.967408 0.654171 0.695298 0.090342
H33   H     H_    0.036900 0.674364 0.713771 0.142897
H34   H     H_    0.959776 0.582727 0.736375 0.057026
C48   C     C_3   0.906682 0.722702 0.766494 -0.323995
H35   H     H_    0.836921 0.705724 0.744796 0.277247
H36   H     H_    0.916690 0.714764 0.870534 0.162788
C49   C     C_3   0.925144 0.824755 0.733140 -0.751676
H37   H     H_    0.990522 0.845857 0.770950 0.231471
H38   H     H_    0.874401 0.870784 0.777152 0.260168
H39   H     H_    0.923836 0.834895 0.628626 0.278047
O14   O     O_3   0.051210 0.348733 0.605414 -0.564085
C50   C     C_3   0.023568 0.376547 0.728272 0.149235
H40   H     H_    0.955827 0.405349 0.722134 0.118977
H41   H     H_    0.066982 0.430938 0.773151 0.071725
C51   C     C_3   0.024395 0.291410 0.815510 -0.345776
H42   H     H_    0.090266 0.257427 0.812486 0.240389
H43   H     H_    0.011929 0.315706 0.914263 0.175234
C52   C     C_3   0.954420 0.219477 0.778787 -0.831500
H44   H     H_    0.887851 0.249613 0.794200 0.238802
H45   H     H_    0.961533 0.156701 0.839821 0.246578
H46   H     H_    0.961773 0.197314 0.677651 0.287431
O15   O     O_3   0.225084 0.661636 0.428333 -0.550797
C53   C     C_3   0.227621 0.717984 0.540736 0.230233
H47   H     H_    0.294599 0.748251 0.549889 0.180202
H48   H     H_    0.216158 0.678520 0.630792 0.086678
C54   C     C_3   0.161760 0.798893 0.531016 -0.366982
H49   H     H_    0.176756 0.841457 0.445684 0.261443
H50   H     H_    0.094110 0.770696 0.520669 0.276956
C55   C     C_3   0.165755 0.861464 0.649736 -0.958916
H51   H     H_    0.152413 0.819785 0.736352 0.264818
H52   H     H_    0.115310 0.917672 0.642673 0.267035
H53   H     H_    0.231742 0.894318 0.658891 0.309497
O16   O     O_3   0.769031 0.334390 0.422644 -0.550147
C56   C     C_3   0.772119 0.268856 0.523311 0.211557
H54   H     H_    0.705354 0.264637 0.565499 0.158800
H55   H     H_    0.818416 0.287788 0.602140 0.095672
C57   C     C_3   0.798042 0.172336 0.470131 -0.365252
H56   H     H_    0.762099 0.158228 0.379626 0.286664
H57   H     H_    0.869555 0.171125 0.449980 0.243556
C58   C     C_3   0.777149 0.094603 0.563679 -0.880741
H58   H     H_    0.813234 0.105707 0.654729 0.267971
H59   H     H_    0.796642 0.025627 0.522390 0.275191
H60   H     H_    0.705454 0.093917 0.582432 0.302222
O17   O     O_3   0.775723 0.669587 0.516808 -0.556268
C59   C     C_3   0.771513 0.709369 0.393672 0.185633
H61   H     H_    0.709115 0.687750 0.346209 0.167779
H62   H     H_    0.827287 0.687542 0.331013 0.112088
C60   C     C_3   0.773735 0.816212 0.405655 -0.366239
H63   H     H_    0.722813 0.840620 0.473955 0.265485
H64   H     H_    0.839197 0.838175 0.442309 0.225481
C61   C     C_3   0.757721 0.862538 0.277270 -0.859103
H65   H     H_    0.804788 0.835758 0.205058 0.252773
H66   H     H_    0.767181 0.939451 0.287320 0.300139
H67   H     H_    0.689524 0.848365 0.243824 0.303441
O18   O     O_3   0.228709 0.340864 0.585804 -0.557695
C62   C     C_3   0.226075 0.268861 0.491413 0.215768
H68   H     H_    0.293604 0.259656 0.453149 0.165047
H69   H     H_    0.182207 0.283634 0.408117 0.086057
C63   C     C_3   0.196205 0.177074 0.551688 -0.346654
H70   H     H_    0.229293 0.167673 0.645278 0.288738
H71   H     H_    0.124074 0.179603 0.568016 0.240645
C64   C     C_3   0.217977 0.093116 0.466269 -0.869788
H72   H     H_    0.188319 0.101298 0.370386 0.266328
H73   H     H_    0.191946 0.028214 0.508892 0.279538
H74   H     H_    0.290292 0.086086 0.456556 0.302000
Cl1   Cl    Cl    0.603442 0.041733 0.286722 -0.528276
Cl2   Cl    Cl    0.613360 0.955156 0.707704 -0.512989
Cl3   Cl    Cl    0.394120 0.044865 0.711671 -0.507866
Cl4   Cl    Cl    0.385107 0.955675 0.298613 -0.500445
Cl5   Cl    Cl    0.603369 0.261051 0.288738 -0.466469
Cl6   Cl    Cl    0.618503 0.735473 0.694039 -0.534660
Cl7   Cl    Cl    0.395967 0.264189 0.711355 -0.490900
Cl8   Cl    Cl    0.386122 0.736292 0.299836 -0.512401

loop_
_geom_bond_atom_site_label_1
_geom_bond_atom_site_label_2
_ccdc_geom_bond_type
C60   C61   S    
C39   H15   S    
C36   H7    S    
C38   H13   S    
C16   C21   S    
C24   O12   S    
C58   H60   S    
O11   C41   S    
O13   C47   S    
C59   C60   S    
C1    C31   S    
C4    C8    A    
O16   C56   S    
C26   O14   S    
C18   H4    S    
C58   H58   S    
C14   O6    A    
C42   H21   S    
C15   C19   S    
C64   H72   S    
C41   H20   S    
C5    Cl3   S    
C14   C21   S    
C10   N2    A    
C19   C21   S    
C59   H62   S    
C5    C11   A    
C29   C32   A    
C3    C7    A    
C6    C12   A    
C30   C31   A    
C42   C43   S    
C39   C40   S    
O14   C50   S    
C37   H10   S    
N2    Zn1   S    
C47   C48   S    
C60   H64   S    
C9    N1    A    
C17   C20   S    
C49   H39   S    
C2    C32   S    
C18   C19   S    
C62   C63   S    
O1    Zn1   S    
C40   H17   S    
C53   H47   S    
C54   C55   S    
C1    O4    A    
C51   H43   S    
C52   H44   S    
C15   C22   S    
C57   H56   S    
C23   C33   A    
C41   C42   S    
C47   H34   S    
C62   H68   S    
C23   C27   A    
C4    C12   A    
C63   H71   S    
C35   C36   S    
C25   C34   A    
C56   C57   S    
C37   H11   S    
C44   H27   S    
C39   H14   S    
C7    Cl5   S    
C38   C39   S    
C64   H73   S    
C50   H41   S    
C49   H37   S    
C23   O11   S    
C43   H25   S    
C15   H1    S    
C35   H6    S    
C61   H66   S    
C27   O15   S    
C25   C29   A    
C29   O17   S    
C41   H19   S    
C27   C31   A    
O9    C35   S    
C9    Cl7   S    
C3    C11   A    
C59   H61   S    
C63   C64   S    
C43   H24   S    
C46   H30   S    
O3    Zn1   S    
C37   H9    S    
C44   H26   S    
C24   C34   A    
C51   H42   S    
C53   C54   S    
C40   H18   S    
C5    C9    A    
O10   C38   S    
C46   H31   S    
C61   H67   S    
C26   C33   A    
C48   H35   S    
C45   C46   S    
C28   C32   A    
C2    O3    A    
C16   C20   S    
C47   H33   S    
N1    Zn2   S    
C33   C34   S    
C63   H70   S    
C42   H22   S    
C16   C18   S    
C17   H3    S    
O12   C44   S    
C49   H38   S    
C51   C52   S    
C54   H49   S    
C8    Cl6   S    
O2    Zn2   S    
C55   H53   S    
C1    O1    A    
C48   H36   S    
C45   H29   S    
C25   O13   S    
C64   H74   S    
C36   H8    S    
C50   C51   S    
C4    Cl2   S    
C20   C22   S    
C50   H40   S    
C35   H5    S    
C55   H52   S    
C61   H65   S    
C44   C45   S    
O4    Zn2   S    
C58   H59   S    
C18   C22   S    
C24   C28   A    
C6    Cl4   S    
C43   H23   S    
C6    C10   A    
C13   O8    A    
O17   C59   S    
C26   C30   A    
C14   O7    A    
O7    Zn1   S    
O6    Zn2   S    
C52   H46   S    
C60   H63   S    
C56   H54   S    
O15   C53   S    
C16   H2    S    
C46   H32   S    
C13   O5    A    
C2    O2    A    
C57   C58   S    
C57   H57   S    
O8    Zn2   S    
C13   C22   S    
C62   H69   S    
C20   O10   S    
C40   H16   S    
C53   H48   S    
C54   H50   S    
C30   O18   S    
C3    Cl1   S    
C38   H12   S    
C19   O9    S    
C48   C49   S    
C45   H28   S    
C10   Cl8   S    
C36   C37   S    
C7    N1    A    
O18   C62   S    
O5    Zn1   S    
C8    N2    A    
C52   H45   S    
C15   C17   S    
C28   O16   S    
C11   C12   S    
C55   H51   S    
C56   H55   S    
C17   C21   S    
