data_mof_unit_22673.cif
_audit_creation_date              2012-12-10T19:11:04-0500
_audit_creation_method            fapswitch 2.2
_symmetry_space_group_name_H-M    P1
_symmetry_Int_Tables_number       1
_space_group_crystal_system       triclinic
_cell_length_a                    10.823293
_cell_length_b                    9.084287
_cell_length_c                    7.765888
_cell_angle_alpha                 89.990061
_cell_angle_beta                  90.115804
_cell_angle_gamma                 90.038061
_cell_volume                      763.555123166

loop_
_atom_site_label
_atom_site_type_symbol
_atom_type_description
_atom_site_fract_x
_atom_site_fract_y
_atom_site_fract_z
_atom_type_partial_charge
C1    C     C_R   0.500348 0.219977 0.500007 0.842435
C2    C     C_R   0.259924 0.510893 0.498762 0.777803
C3    C     C_R   0.740101 0.512215 0.499223 0.773136
C4    C     C_R   0.500044 0.780036 0.499985 0.820275
C5    C     C_1   0.500246 0.065372 0.499988 -0.191407
C6    C     C_3   0.073450 0.601647 0.657250 -0.063309
C7    C     C_3   0.071366 0.355556 0.511322 -0.073813
C8    C     C_3   0.929602 0.588742 0.668335 -0.043834
C9    C     C_3   0.927979 0.356139 0.489366 -0.092450
C10   C     C_1   0.500138 0.934618 0.499963 -0.183023
C11   C     C_3   0.072062 0.596667 0.320163 0.360560
C12   C     C_3   0.926680 0.618846 0.335886 0.347135
C13   C     C_3   0.122353 0.517431 0.492684 -0.056379
C14   C     C_3   0.877810 0.519938 0.494220 -0.040730
Cu1   Cu    Cu3+1 0.500000 0.500010 0.669080 0.974597
Cu2   Cu    Cu3+1 0.500000 0.500010 0.330920 0.964628
N1    N     N_1   0.500000 0.499970 0.076820 -0.063819
N2    N     N_1   0.500000 0.499970 0.923180 -0.057162
O1    O     O_R   0.500000 0.288400 0.642760 -0.568813
O2    O     O_R   0.500000 0.288400 0.357240 -0.574232
O3    O     O_R   0.317700 0.499990 0.642790 -0.593906
O4    O     O_R   0.317700 0.499990 0.357210 -0.592930
O5    O     O_R   0.682300 0.499990 0.642790 -0.597365
O6    O     O_R   0.682300 0.499990 0.357210 -0.599325
O7    O     O_R   0.500000 0.711620 0.642810 -0.582716
O8    O     O_R   0.500000 0.711620 0.357190 -0.588784
N3    N     N_3   0.117809 0.754687 0.671885 -0.567741
H1    H     H_    0.213126 0.760538 0.652527 0.222220
H2    H     H_    0.074632 0.824175 0.583687 0.296294
N4    N     N_3   0.133191 0.246921 0.399796 -0.560747
H3    H     H_    0.103121 0.141921 0.435705 0.220890
H4    H     H_    0.227353 0.243573 0.428637 0.219796
N5    N     N_3   0.873060 0.730620 0.715931 -0.552207
H5    H     H_    0.910290 0.763742 0.834210 0.251009
H6    H     H_    0.779011 0.717833 0.740136 0.230721
N6    N     N_3   0.887116 0.272627 0.337045 -0.578710
H7    H     H_    0.911141 0.162117 0.352692 0.231831
H8    H     H_    0.790830 0.268010 0.335109 0.224725
H9    H     H_    0.109765 0.544523 0.773836 0.168165
H10   H     H_    0.090536 0.319283 0.646244 0.114552
H11   H     H_    0.908106 0.510130 0.774748 0.135428
H12   H     H_    0.889349 0.297651 0.603819 0.120957
N7    N     N_3   0.131817 0.741835 0.296836 -0.620980
H13   H     H_    0.227787 0.733369 0.292858 0.223552
H14   H     H_    0.106945 0.784216 0.176318 0.238911
N8    N     N_3   0.098028 0.509434 0.162865 -0.595293
H15   H     H_    0.189515 0.514357 0.121571 0.249848
H16   H     H_    0.067236 0.401166 0.168569 0.281834
N9    N     N_3   0.897577 0.774903 0.372740 -0.566646
H17   H     H_    0.802933 0.785749 0.396671 0.206524
H18   H     H_    0.913396 0.839694 0.263611 0.217919
N10   N     N_3   0.869301 0.583886 0.166803 -0.604077
H19   H     H_    0.787232 0.641884 0.145388 0.229705
H20   H     H_    0.853520 0.472344 0.146986 0.264948

loop_
_geom_bond_atom_site_label_1
_geom_bond_atom_site_label_2
_ccdc_geom_bond_type
C2    O4    A    
Cu1   N2    S    
Cu1   O1    S    
C9    C14   S    
C11   N7    S    
N3    H2    S    
C11   C13   S    
C3    O5    A    
C6    N3    S    
Cu2   O2    S    
N7    H13   S    
C2    O3    A    
Cu1   O5    S    
C12   N9    S    
C3    O6    A    
C5    C10   T    
Cu2   O6    S    
C7    N4    S    
N10   H19   S    
C6    C13   S    
N4    H4    S    
N7    H14   S    
C9    H12   S    
C3    C14   S    
C1    C5    S    
C6    C8    S    
N6    H8    S    
N6    H7    S    
C12   N10   S    
N10   H20   S    
N1    N2    T    
C8    N5    S    
Cu2   O8    S    
N4    H3    S    
N8    H16   S    
C4    O8    A    
C1    O1    A    
Cu1   O7    S    
C4    C10   S    
Cu1   Cu2   S    
C9    N6    S    
C4    O7    A    
Cu1   O3    S    
N5    H5    S    
C8    H11   S    
N9    H17   S    
N9    H18   S    
N3    H1    S    
C7    C9    S    
C2    C13   S    
N8    H15   S    
C11   N8    S    
Cu2   O4    S    
C7    C13   S    
C8    C14   S    
N5    H6    S    
C6    H9    S    
C7    H10   S    
C11   C12   S    
C12   C14   S    
Cu2   N1    S    
C1    O2    A    
