data_mof_unit_33074.cif
_audit_creation_date              2012-12-11T16:28:05-0500
_audit_creation_method            fapswitch 2.2
_symmetry_space_group_name_H-M    P1
_symmetry_Int_Tables_number       1
_space_group_crystal_system       monoclinic
_cell_length_a                    30.094121
_cell_length_b                    22.443046
_cell_length_c                    18.021773
_cell_angle_alpha                 90.0
_cell_angle_beta                  123.374224
_cell_angle_gamma                 90.0
_cell_volume                      10164.758922

loop_
_atom_site_label
_atom_site_type_symbol
_atom_type_description
_atom_site_fract_x
_atom_site_fract_y
_atom_site_fract_z
_atom_type_partial_charge
C1    C     C_R   0.533034 0.607215 0.708877 -0.123823
C2    C     C_R   0.630961 0.280962 0.419863 -0.165829
C3    C     C_R   0.732007 0.793672 0.816612 0.577215
C4    C     C_R   0.302465 0.881029 0.046409 0.575998
C5    C     C_R   0.767993 0.293673 0.183388 0.577215
C6    C     C_R   0.697535 0.881029 0.953590 0.575998
C7    C     C_R   0.232007 0.293673 0.816612 0.577215
C8    C     C_R   0.855693 0.362808 0.085667 -0.403272
C9    C     C_R   0.214307 0.810233 0.143656 -0.435132
C10   C     C_R   0.144307 0.362808 0.914333 -0.403273
C11   C     C_R   0.785693 0.810233 0.856344 -0.435131
C12   C     C_R   0.355693 0.862808 0.085667 -0.403272
C13   C     C_R   0.683127 0.635454 0.416183 -0.169101
C14   C     C_R   0.714307 0.310233 0.143656 -0.435131
C15   C     C_R   0.644307 0.862808 0.914333 -0.403273
C16   C     C_R   0.285693 0.310233 0.856344 -0.435132
C17   C     C_R   0.594910 0.581143 0.424738 -0.134861
C18   C     C_R   0.423709 0.391398 0.575183 -0.127507
C19   C     C_R   0.405090 0.581143 0.575262 -0.134861
C20   C     C_R   0.576291 0.391398 0.424817 -0.127507
C21   C     C_R   0.094910 0.081143 0.424738 -0.134861
C22   C     C_R   0.923709 0.891398 0.575183 -0.127507
C23   C     C_R   0.905090 0.081143 0.575262 -0.134861
C24   C     C_R   0.369039 0.280962 0.580137 -0.165829
C25   C     C_R   0.076291 0.891398 0.424817 -0.127507
C26   C     C_R   0.392750 0.608086 0.291913 -0.125307
C27   C     C_R   0.618123 0.417326 0.742641 -0.137495
C28   C     C_R   0.607250 0.608086 0.708087 -0.125307
C29   C     C_R   0.381877 0.417326 0.257359 -0.137495
C30   C     C_R   0.892750 0.108086 0.291913 -0.125307
C31   C     C_R   0.118122 0.917326 0.742641 -0.137495
C32   C     C_R   0.107250 0.108086 0.708087 -0.125307
C33   C     C_R   0.881877 0.917326 0.257359 -0.137495
C34   C     C_R   0.578986 0.640146 0.735450 0.057158
C35   C     C_R   0.816873 0.135454 0.583817 -0.169101
C36   C     C_R   0.402387 0.402380 0.206902 0.064885
C37   C     C_R   0.421014 0.640146 0.264550 0.057159
C38   C     C_R   0.597613 0.402380 0.793098 0.064885
C39   C     C_R   0.078986 0.140146 0.735450 0.057158
C40   C     C_R   0.902387 0.902380 0.206902 0.064885
C41   C     C_R   0.921014 0.140146 0.264550 0.057158
C42   C     C_R   0.097613 0.902380 0.793098 0.064885
C43   C     C_R   0.645083 0.594331 0.497008 0.029212
C44   C     C_R   0.386754 0.358421 0.501798 0.033407
C45   C     C_R   0.354917 0.594331 0.502992 0.029213
C46   C     C_R   0.130961 0.780963 0.419863 -0.165829
C47   C     C_R   0.613246 0.358421 0.498202 0.033407
C48   C     C_R   0.145083 0.094331 0.497008 0.029212
C49   C     C_R   0.886754 0.858421 0.501798 0.033407
C50   C     C_R   0.854917 0.094331 0.502992 0.029212
C51   C     C_R   0.113246 0.858421 0.498202 0.033407
C52   C     C_R   0.213655 0.618006 0.435734 -0.184054
C53   C     C_R   0.678250 0.207819 0.570075 -0.178329
C54   C     C_R   0.786345 0.618006 0.564266 -0.184055
C55   C     C_R   0.321750 0.207819 0.429925 -0.178328
C56   C     C_R   0.713655 0.118006 0.435734 -0.184054
C57   C     C_R   0.183127 0.135454 0.416183 -0.169101
C58   C     C_R   0.178250 0.707819 0.570075 -0.178329
C59   C     C_R   0.286345 0.118006 0.564266 -0.184055
C60   C     C_R   0.821750 0.707819 0.429925 -0.178328
C61   C     C_R   0.256864 0.597172 0.434764 -0.165008
C62   C     C_R   0.654216 0.260996 0.569418 -0.165547
C63   C     C_R   0.743136 0.597172 0.565236 -0.165006
C64   C     C_R   0.345784 0.260996 0.430582 -0.165547
C65   C     C_R   0.756864 0.097172 0.434764 -0.165006
C66   C     C_R   0.154216 0.760996 0.569418 -0.165547
C67   C     C_R   0.243136 0.097172 0.565236 -0.165006
C68   C     C_R   0.869039 0.780962 0.580137 -0.165830
C69   C     C_R   0.845784 0.760996 0.430582 -0.165547
C70   C     C_R   0.308854 0.608427 0.507246 0.149795
C71   C     C_R   0.632563 0.299097 0.495704 0.146226
C72   C     C_R   0.691146 0.608427 0.492754 0.149794
C73   C     C_R   0.367437 0.299097 0.504296 0.146226
C74   C     C_R   0.808854 0.108427 0.507246 0.149794
C75   C     C_R   0.132563 0.799097 0.495704 0.146226
C76   C     C_R   0.191146 0.108427 0.492754 0.149794
C77   C     C_R   0.867437 0.799097 0.504296 0.146226
C78   C     C_3   0.794336 0.438662 0.931352 0.155311
C79   C     C_R   0.273829 0.656492 0.584590 -0.167905
C80   C     C_3   0.831193 0.491402 0.949312 -0.239344
C81   C     C_3   0.839646 0.499781 0.873856 -1.046377
C82   C     C_3   0.282330 0.779631 0.324159 0.177611
C83   C     C_3   0.326820 0.760733 0.417732 -0.247783
C84   C     C_3   0.313037 0.775597 0.485439 -1.015527
C85   C     C_3   0.205664 0.438662 0.068648 0.155311
C86   C     C_3   0.168807 0.491402 0.050688 -0.239344
C87   C     C_3   0.160354 0.499781 0.126143 -1.046375
C88   C     C_3   0.717670 0.779631 0.675841 0.177612
C89   C     C_3   0.673180 0.760733 0.582268 -0.247786
C90   C     C_R   0.655119 0.228214 0.420683 -0.177683
C91   C     C_3   0.686962 0.775597 0.514561 -1.015529
C92   C     C_3   0.294336 0.938662 0.931352 0.155309
C93   C     C_3   0.331193 0.991402 0.949311 -0.239345
C94   C     C_3   0.339646 0.999780 0.873856 -1.046373
C95   C     C_3   0.782330 0.279631 0.324159 0.177614
C96   C     C_3   0.826820 0.260733 0.417732 -0.247786
C97   C     C_3   0.813038 0.275597 0.485439 -1.015528
C98   C     C_3   0.705664 0.938662 0.068648 0.155310
C99   C     C_3   0.668807 0.991402 0.050688 -0.239344
C100  C     C_3   0.660354 0.999781 0.126143 -1.046375
C101  C     C_R   0.726171 0.656492 0.415410 -0.167905
C102  C     C_3   0.217670 0.279631 0.675841 0.177612
C103  C     C_3   0.173180 0.260733 0.582268 -0.247785
C104  C     C_3   0.186962 0.275597 0.514561 -1.015527
C105  C     C_R   0.455654 0.418763 0.257283 -0.137244
C106  C     C_R   0.344881 0.228214 0.579317 -0.177683
C107  C     C_R   0.773829 0.156492 0.584590 -0.167905
C108  C     C_R   0.155119 0.728214 0.420683 -0.177684
C109  C     C_R   0.226171 0.156492 0.415410 -0.167905
C110  C     C_R   0.844881 0.728214 0.579317 -0.177683
C111  C     C_R   0.222121 0.651030 0.508564 0.109709
C112  C     C_R   0.681346 0.192762 0.497449 0.121174
C113  C     C_R   0.777879 0.651030 0.491436 0.109709
C114  C     C_R   0.318654 0.192762 0.502551 0.121174
C115  C     C_R   0.722121 0.151030 0.508564 0.109709
C116  C     C_R   0.466966 0.607215 0.291123 -0.123823
C117  C     C_R   0.181346 0.692762 0.497449 0.121174
C118  C     C_R   0.277879 0.151030 0.491436 0.109709
C119  C     C_R   0.818654 0.692762 0.502551 0.121174
C120  C     C_R   0.406501 0.699954 0.222781 0.087885
C121  C     C_R   0.628421 0.384065 0.887697 0.094998
C122  C     C_R   0.593499 0.699954 0.777219 0.087886
C123  C     C_R   0.371579 0.384065 0.112303 0.094998
C124  C     C_R   0.906501 0.199954 0.222781 0.087885
C125  C     C_R   0.128421 0.884065 0.887697 0.094998
C126  C     C_R   0.093499 0.199954 0.777219 0.087886
C127  C     C_R   0.544346 0.418763 0.742717 -0.137244
C128  C     C_R   0.871579 0.884065 0.112303 0.094998
C129  C     C_R   0.424059 0.787164 0.162955 -0.172290
C130  C     C_R   0.631667 0.347655 0.017349 -0.174168
C131  C     C_R   0.575941 0.787164 0.837044 -0.172289
C132  C     C_R   0.368333 0.347655 0.982651 -0.174170
C133  C     C_R   0.924059 0.287164 0.162956 -0.172291
C134  C     C_R   0.131667 0.847655 0.017350 -0.174169
C135  C     C_R   0.075941 0.287164 0.837044 -0.172289
C136  C     C_R   0.868333 0.847655 0.982651 -0.174170
C137  C     C_R   0.440152 0.732068 0.206061 -0.172628
C138  C     C_R   0.033034 0.107215 0.708877 -0.123823
C139  C     C_R   0.602706 0.369754 0.930890 -0.181589
C140  C     C_R   0.559848 0.732068 0.793939 -0.172629
C141  C     C_R   0.397294 0.369754 0.069110 -0.181587
C142  C     C_R   0.940152 0.232068 0.206061 -0.172628
C143  C     C_R   0.102706 0.869754 0.930890 -0.181588
C144  C     C_R   0.059848 0.232068 0.793939 -0.172629
C145  C     C_R   0.897294 0.869754 0.069110 -0.181587
C146  C     C_R   0.358065 0.725598 0.199946 -0.169780
C147  C     C_R   0.683977 0.379002 0.934728 -0.177854
C148  C     C_R   0.641935 0.725598 0.800054 -0.169780
C149  C     C_R   0.955654 0.918763 0.257283 -0.137244
C150  C     C_R   0.316023 0.379002 0.065272 -0.177853
C151  C     C_R   0.858065 0.225598 0.199946 -0.169781
C152  C     C_R   0.183977 0.879002 0.934727 -0.177854
C153  C     C_R   0.141935 0.225598 0.800054 -0.169781
C154  C     C_R   0.816023 0.879002 0.065272 -0.177853
C155  C     C_R   0.342847 0.782530 0.162082 0.113986
C156  C     C_R   0.714184 0.359110 0.023194 0.119240
C157  C     C_R   0.657153 0.782529 0.837918 0.113986
C158  C     C_R   0.285816 0.359110 0.976806 0.119239
C159  C     C_R   0.842847 0.282529 0.162082 0.113986
C160  C     C_R   0.966966 0.107215 0.291123 -0.123823
C161  C     C_R   0.214184 0.859110 0.023194 0.119240
C162  C     C_R   0.157153 0.282530 0.837918 0.113986
C163  C     C_R   0.785816 0.859110 0.976806 0.119239
C164  C     C_R   0.374567 0.811331 0.137518 0.124490
C165  C     C_R   0.686839 0.339780 0.062229 0.146970
C166  C     C_R   0.625433 0.811331 0.862481 0.124490
C167  C     C_R   0.313161 0.339780 0.937771 0.146971
C168  C     C_R   0.874567 0.311331 0.137519 0.124490
C169  C     C_R   0.186839 0.839780 0.062229 0.146971
C170  C     C_R   0.125433 0.311331 0.862481 0.124490
C171  C     C_R   0.044346 0.918763 0.742717 -0.137244
C172  C     C_R   0.813161 0.839780 0.937771 0.146970
C173  C     C_R   0.293796 0.808237 0.139053 -0.135687
C174  C     C_R   0.769992 0.350447 0.069025 -0.148278
C175  C     C_R   0.706204 0.808237 0.860948 -0.135687
C176  C     C_R   0.230008 0.350447 0.930975 -0.148278
C177  C     C_R   0.793796 0.308237 0.139052 -0.135687
C178  C     C_R   0.269992 0.850447 0.069025 -0.148278
C179  C     C_R   0.206204 0.308237 0.860948 -0.135687
C180  C     C_R   0.730008 0.850447 0.930975 -0.148278
C181  C     C_R   0.645235 0.580092 0.571918 -0.145223
C182  C     C_R   0.316873 0.635454 0.583817 -0.169102
C183  C     C_R   0.373491 0.391214 0.426779 -0.128132
C184  C     C_R   0.354765 0.580092 0.428081 -0.145223
C185  C     C_R   0.626509 0.391214 0.573221 -0.128132
C186  C     C_R   0.145235 0.080092 0.571918 -0.145223
C187  C     C_R   0.873491 0.891214 0.426779 -0.128132
C188  C     C_R   0.854765 0.080092 0.428081 -0.145223
C189  C     C_R   0.126509 0.891214 0.573221 -0.128133
C190  C     C_R   0.802465 0.381029 0.046410 0.575998
C191  C     C_R   0.267993 0.793673 0.183388 0.577215
C192  C     C_R   0.197535 0.381029 0.953590 0.575998
H1    H     H_    0.501784 0.618999 0.718469 0.089809
H2    H     H_    0.330098 0.699258 0.205260 0.156918
H3    H     H_    0.870330 0.484155 0.012390 0.189676
H4    H     H_    0.858199 0.459359 0.866482 0.269986
H5    H     H_    0.866434 0.538350 0.888785 0.273171
H6    H     H_    0.801076 0.508571 0.810336 0.264315
H7    H     H_    0.245363 0.755993 0.307109 0.105561
H8    H     H_    0.276852 0.828805 0.324028 0.103490
H9    H     H_    0.333373 0.711966 0.418661 0.209672
H10   H     H_    0.364294 0.783893 0.436606 0.205064
H11   H     H_    0.307936 0.824447 0.487597 0.266988
H12   H     H_    0.345697 0.760464 0.552402 0.271698
H13   H     H_    0.296825 0.385590 0.100144 0.126323
H14   H     H_    0.275712 0.752730 0.467826 0.278215
H15   H     H_    0.244334 0.447504 0.131880 0.111563
H16   H     H_    0.189739 0.397125 0.079831 0.076187
H17   H     H_    0.186592 0.532708 0.043693 0.208612
H18   H     H_    0.129670 0.484155 0.987610 0.189676
H19   H     H_    0.141801 0.459359 0.133518 0.269985
H20   H     H_    0.133566 0.538350 0.111214 0.273170
H21   H     H_    0.198923 0.508571 0.189664 0.264315
H22   H     H_    0.754638 0.755994 0.692891 0.105561
H23   H     H_    0.723147 0.828805 0.675972 0.103489
H24   H     H_    0.669902 0.699258 0.794740 0.156918
H25   H     H_    0.666627 0.711966 0.581339 0.209672
H26   H     H_    0.635706 0.783892 0.563394 0.205065
H27   H     H_    0.692063 0.824447 0.512402 0.266989
H28   H     H_    0.654302 0.760464 0.447598 0.271698
H29   H     H_    0.724287 0.752731 0.532174 0.278215
H30   H     H_    0.255666 0.947503 0.868119 0.111563
H31   H     H_    0.310261 0.897125 0.920169 0.076187
H32   H     H_    0.313408 0.032708 0.956307 0.208612
H33   H     H_    0.370329 0.984154 0.012389 0.189676
H34   H     H_    0.358199 0.959359 0.866481 0.269985
H35   H     H_    0.203175 0.885590 0.899856 0.126323
H36   H     H_    0.366434 0.038349 0.888784 0.273170
H37   H     H_    0.301076 0.008571 0.810335 0.264314
H38   H     H_    0.745362 0.255994 0.307109 0.105561
H39   H     H_    0.776853 0.328805 0.324029 0.103489
H40   H     H_    0.833373 0.211966 0.418661 0.209672
H41   H     H_    0.864294 0.283892 0.436606 0.205065
H42   H     H_    0.807937 0.324447 0.487597 0.266988
H43   H     H_    0.845698 0.260464 0.552402 0.271698
H44   H     H_    0.775713 0.252731 0.467826 0.278215
H45   H     H_    0.744334 0.947504 0.131880 0.111563
H46   H     H_    0.830097 0.199258 0.205260 0.156918
H47   H     H_    0.689739 0.897125 0.079831 0.076187
H48   H     H_    0.686592 0.032708 0.043693 0.208612
H49   H     H_    0.629670 0.984155 0.987610 0.189676
H50   H     H_    0.641801 0.959359 0.133518 0.269985
H51   H     H_    0.633566 0.038350 0.111214 0.273171
H52   H     H_    0.698923 0.008571 0.189664 0.264315
H53   H     H_    0.254638 0.255994 0.692891 0.105561
H54   H     H_    0.223147 0.328805 0.675972 0.103489
H55   H     H_    0.166627 0.211966 0.581339 0.209672
H56   H     H_    0.135706 0.283892 0.563394 0.205065
H57   H     H_    0.796825 0.885590 0.100144 0.126323
H58   H     H_    0.192063 0.324447 0.512402 0.266988
H59   H     H_    0.154302 0.260464 0.447598 0.271698
H60   H     H_    0.224287 0.252731 0.532174 0.278215
H61   H     H_    0.169903 0.199258 0.794740 0.156919
H62   H     H_    0.559972 0.373022 0.897093 0.113162
H63   H     H_    0.478162 0.714190 0.223815 0.114061
H64   H     H_    0.440028 0.373021 0.102907 0.113161
H65   H     H_    0.481638 0.422855 0.233668 0.085053
H66   H     H_    0.521837 0.714190 0.776185 0.114062
H67   H     H_    0.059972 0.873022 0.897093 0.113161
H68   H     H_    0.978162 0.214190 0.223815 0.114062
H69   H     H_    0.940028 0.873021 0.102907 0.113161
H70   H     H_    0.021838 0.214190 0.776185 0.114062
H71   H     H_    0.449507 0.809905 0.146907 0.122164
H72   H     H_    0.610546 0.334247 0.047657 0.119534
H73   H     H_    0.550493 0.809905 0.853092 0.122164
H74   H     H_    0.389454 0.334247 0.952343 0.119534
H75   H     H_    0.949507 0.309905 0.146908 0.122164
H76   H     H_    0.498216 0.618999 0.281531 0.089809
H77   H     H_    0.110546 0.834247 0.047657 0.119534
H78   H     H_    0.050493 0.309905 0.853092 0.122164
H79   H     H_    0.889454 0.834247 0.952343 0.119534
H80   H     H_    0.679764 0.576534 0.639100 0.091994
H81   H     H_    0.345599 0.378817 0.358342 0.091438
H82   H     H_    0.320236 0.576534 0.360900 0.091993
H83   H     H_    0.654401 0.378817 0.641658 0.091438
H84   H     H_    0.179764 0.076534 0.639100 0.091994
H85   H     H_    0.845599 0.878817 0.358342 0.091438
H86   H     H_    0.820236 0.076534 0.360900 0.091993
H87   H     H_    0.518362 0.422855 0.766332 0.085053
H88   H     H_    0.154401 0.878817 0.641658 0.091438
H89   H     H_    0.583730 0.576800 0.356789 0.087460
H90   H     H_    0.443173 0.379044 0.644109 0.093871
H91   H     H_    0.416270 0.576800 0.643211 0.087460
H92   H     H_    0.556826 0.379044 0.355891 0.093871
H93   H     H_    0.083730 0.076800 0.356789 0.087460
H94   H     H_    0.943174 0.879044 0.644109 0.093871
H95   H     H_    0.916270 0.076800 0.643211 0.087460
H96   H     H_    0.056826 0.879044 0.355891 0.093871
H97   H     H_    0.355821 0.619745 0.284644 0.104542
H98   H     H_    0.001784 0.118999 0.718469 0.089809
H99   H     H_    0.659511 0.420113 0.765225 0.076752
H100  H     H_    0.644179 0.619745 0.715356 0.104542
H101  H     H_    0.340489 0.420113 0.234775 0.076752
H102  H     H_    0.855821 0.119745 0.284644 0.104542
H103  H     H_    0.159511 0.920113 0.765225 0.076752
H104  H     H_    0.144179 0.119745 0.715356 0.104542
H105  H     H_    0.840489 0.920113 0.234775 0.076752
H106  H     H_    0.173938 0.612540 0.376909 0.119046
H107  H     H_    0.697766 0.180684 0.629594 0.116666
H108  H     H_    0.826061 0.612540 0.623091 0.119046
H109  H     H_    0.981638 0.922855 0.233668 0.085053
H110  H     H_    0.302234 0.180684 0.370406 0.116666
H111  H     H_    0.673939 0.112540 0.376909 0.119046
H112  H     H_    0.197766 0.680684 0.629594 0.116666
H113  H     H_    0.326061 0.112540 0.623091 0.119046
H114  H     H_    0.802234 0.680684 0.370406 0.116666
H115  H     H_    0.249418 0.574477 0.376009 0.111797
H116  H     H_    0.654374 0.273204 0.627669 0.112996
H117  H     H_    0.750581 0.574477 0.623991 0.111796
H118  H     H_    0.345626 0.273204 0.372331 0.112996
H119  H     H_    0.749419 0.074477 0.376009 0.111796
H120  H     H_    0.998216 0.118999 0.281531 0.089809
H121  H     H_    0.154374 0.773204 0.627669 0.112996
H122  H     H_    0.250581 0.074477 0.623991 0.111796
H123  H     H_    0.845626 0.773204 0.372331 0.112996
H124  H     H_    0.356515 0.644495 0.640828 0.107952
H125  H     H_    0.614429 0.309297 0.361931 0.105720
H126  H     H_    0.643484 0.644495 0.359172 0.107952
H127  H     H_    0.385571 0.309296 0.638069 0.105720
H128  H     H_    0.856515 0.144495 0.640828 0.107952
H129  H     H_    0.114429 0.809297 0.361931 0.105720
H130  H     H_    0.143484 0.144495 0.359172 0.107952
H131  H     H_    0.018362 0.922855 0.766332 0.085053
H132  H     H_    0.885571 0.809297 0.638069 0.105720
H133  H     H_    0.781706 0.182462 0.641261 0.118069
H134  H     H_    0.157640 0.718408 0.364260 0.111519
H135  H     H_    0.218294 0.182462 0.358739 0.118069
H136  H     H_    0.842360 0.718408 0.635740 0.111518
H137  H     H_    0.281706 0.682462 0.641261 0.118069
H138  H     H_    0.657640 0.218408 0.364260 0.111518
H139  H     H_    0.718294 0.682462 0.358739 0.118069
H140  H     H_    0.342360 0.218408 0.635740 0.111518
H141  H     H_    0.881655 0.387112 0.072370 0.145344
H142  H     H_    0.703175 0.385590 0.899856 0.126323
H143  H     H_    0.192595 0.796629 0.172705 0.133649
H144  H     H_    0.118346 0.387112 0.927630 0.145344
H145  H     H_    0.807406 0.796628 0.827296 0.133649
H146  H     H_    0.381654 0.887112 0.072369 0.145344
H147  H     H_    0.692594 0.296629 0.172704 0.133649
H148  H     H_    0.618345 0.887112 0.927630 0.145344
H149  H     H_    0.307405 0.296628 0.827296 0.133649
H150  H     H_    0.755666 0.447504 0.868119 0.111563
H151  H     H_    0.810261 0.397125 0.920169 0.076187
H152  H     H_    0.813408 0.532708 0.956307 0.208612
N1    N     N_R   0.532910 0.558440 0.665240 -0.040242
N2    N     N_R   0.402970 0.441090 0.454460 -0.038389
N3    N     N_R   0.402970 0.558910 0.454460 -0.035551
N4    N     N_R   0.597030 0.441090 0.545540 -0.038389
N5    N     N_R   0.097030 0.058910 0.545540 -0.035551
N6    N     N_R   0.902970 0.941090 0.454460 -0.038389
N7    N     N_R   0.902970 0.058910 0.454460 -0.035551
N8    N     N_R   0.097030 0.941090 0.545540 -0.038389
N9    N     N_R   0.566200 0.559270 0.454460 -0.036724
N10   N     N_R   0.433800 0.440730 0.545540 -0.039185
N11   N     N_R   0.433800 0.559270 0.545540 -0.036724
N12   N     N_R   0.467090 0.441560 0.334760 -0.038489
N13   N     N_R   0.566200 0.440730 0.454460 -0.039185
N14   N     N_R   0.066200 0.059270 0.454460 -0.036724
N15   N     N_R   0.933800 0.940730 0.545540 -0.039185
N16   N     N_R   0.933800 0.059270 0.545540 -0.036724
N17   N     N_R   0.066200 0.940730 0.454460 -0.039185
N18   N     N_R   0.421050 0.559750 0.334770 -0.040291
N19   N     N_R   0.578950 0.440250 0.665230 -0.037632
N20   N     N_R   0.578950 0.559750 0.665230 -0.040291
N21   N     N_R   0.421050 0.440250 0.334770 -0.037632
N22   N     N_R   0.921050 0.059750 0.334770 -0.040291
N23   N     N_R   0.467090 0.558440 0.334760 -0.040242
N24   N     N_R   0.078950 0.940250 0.665230 -0.037632
N25   N     N_R   0.078950 0.059750 0.665230 -0.040291
N26   N     N_R   0.921050 0.940250 0.334770 -0.037632
N27   N     N_R   0.532910 0.441560 0.665240 -0.038489
N28   N     N_R   0.032910 0.058440 0.665240 -0.040242
N29   N     N_R   0.967090 0.941560 0.334760 -0.038489
N30   N     N_R   0.967090 0.058440 0.334760 -0.040242
N31   N     N_R   0.032910 0.941560 0.665240 -0.038489
N32   N     N_R   0.597030 0.558910 0.545540 -0.035551
Ni1   Ni    Ni4+2 0.483090 0.500000 0.604440 0.212195
Ni2   Ni    Ni4+2 0.516910 0.500000 0.395560 0.212195
Ni3   Ni    Ni4+2 0.983090 0.000000 0.604440 0.212195
Ni4   Ni    Ni4+2 0.016910 0.000000 0.395560 0.212195
Ni5   Ni    Ni4+2 0.586780 0.500000 0.604440 0.213756
Ni6   Ni    Ni4+2 0.413220 0.500000 0.395560 0.213756
Ni7   Ni    Ni4+2 0.086780 0.000000 0.604440 0.213756
Ni8   Ni    Ni4+2 0.913220 0.000000 0.395560 0.213756
O1    O     O_3   0.784692 0.434564 0.999926 -0.659666
O2    O     O_3   0.296351 0.762909 0.263972 -0.682327
O3    O     O_3   0.215308 0.434564 0.000074 -0.659666
O4    O     O_3   0.703649 0.762908 0.736028 -0.682327
O5    O     O_3   0.284692 0.934564 0.999926 -0.659666
O6    O     O_3   0.796351 0.262908 0.263972 -0.682327
O7    O     O_3   0.715308 0.934564 0.000074 -0.659666
O8    O     O_3   0.203649 0.262908 0.736028 -0.682327

loop_
_geom_bond_atom_site_label_1
_geom_bond_atom_site_label_2
_ccdc_geom_bond_type
C120  C146  A    
C6    O7    S    
N3    Ni6   S    
C101  C113  A    
C87   H20   S    
C9    C169  A    
C102  H54   S    
C27   N19   A    
C188  H86   S    
C134  H77   S    
C190  O1    S    
C140  H66   S    
C21   N14   A    
C57   C76   A    
C31   C42   A    
N29   Ni4   S    
C52   C61   A    
C185  H83   S    
C186  H84   S    
C128  C145  A    
C183  H81   S    
C54   C63   A    
C40   C128  S    
C188  N7    A    
C181  N32   A    
C107  H133  S    
C131  C140  A    
C22   H94   S    
C134  C143  A    
C176  C179  A    
C57   C109  A    
C131  C166  A    
C8    C190  A    
C134  C169  A    
C121  C147  A    
C15   C166  A    
C133  H75   S    
C63   H117  S    
C122  C148  A    
N20   Ni5   S    
C4    C12   A    
C128  C154  A    
N25   N28   A    
C33   H105  S    
C84   H12   S    
C45   C70   S    
C189  N8    A    
N15   Ni3   S    
C7    O8    S    
N14   Ni4   S    
C109  C118  A    
C183  N2    A    
C102  O8    S    
C104  H58   S    
C35   C107  A    
C28   H100  S    
C81   H6    S    
C98   H47   S    
C173  C191  A    
C103  H55   S    
C129  C164  A    
C1    H1    S    
C17   C43   A    
N9    Ni2   S    
C18   C44   A    
C123  C141  A    
C68   C110  A    
C11   H145  S    
C163  C172  A    
C174  C177  A    
N19   N27   A    
C136  H79   S    
C137  H63   S    
N4    N13   A    
C30   N22   A    
C22   C49   A    
N25   Ni7   S    
C99   H48   S    
N6    N15   A    
C149  H109  S    
C108  H134  S    
C146  H2    S    
C2    C71   A    
C54   H108  S    
C100  H50   S    
C66   H121  S    
C68   C77   A    
C153  H61   S    
C13   H126  S    
C103  H56   S    
N5    N14   A    
C147  H142  S    
C35   H128  S    
C131  H73   S    
C13   C72   A    
N6    Ni8   S    
C32   N25   A    
C19   H91   S    
C79   C182  A    
C78   H150  S    
C25   H96   S    
C68   H132  S    
C130  C165  A    
N9    N32   A    
C20   C47   A    
C3    C11   A    
C84   H14   S    
C129  C137  A    
C88   C89   S    
C98   C99   S    
C27   C38   A    
C9    C191  A    
N2    N10   A    
C45   C184  A    
C97   H43   S    
N10   Ni1   S    
C104  H60   S    
C48   C76   S    
C69   C77   A    
C23   N16   A    
C95   H38   S    
C50   C188  A    
C37   C116  A    
C85   C86   S    
C82   H8    S    
C133  C142  A    
C14   H147  S    
C50   C74   S    
C78   C80   S    
C56   H111  S    
C152  H35   S    
C60   C119  A    
C2    C90   A    
C135  C170  A    
C52   H106  S    
C1    N1    A    
C59   C67   A    
C92   O5    S    
C46   C108  A    
C96   H41   S    
C30   C41   A    
C185  N4    A    
C89   C91   S    
C8    C168  A    
C152  C161  A    
C100  H52   S    
N11   Ni1   S    
C161  C169  A    
C39   C138  A    
C34   C122  S    
C96   C97   S    
C83   H10   S    
C148  H24   S    
C46   C75   A    
C1    C34   A    
C61   H115  S    
C187  H85   S    
C33   C40   A    
C38   C121  S    
C139  H62   S    
C143  H67   S    
C65   H119  S    
C133  C168  A    
C29   H101  S    
C18   N10   A    
C132  H74   S    
C43   C181  A    
C58   C117  A    
C65   C74   A    
N8    Ni7   S    
C151  C159  A    
N5    Ni7   S    
C93   H33   S    
C41   C160  A    
N26   Ni8   S    
C83   C84   S    
C67   H122  S    
C107  C115  A    
N2    Ni6   S    
C25   N17   A    
C44   C183  A    
C33   N26   A    
C78   O1    S    
C59   C118  A    
C145  H69   S    
C24   C106  A    
C88   H23   S    
C59   H113  S    
N7    N16   A    
C85   H15   S    
C132  C141  A    
C151  H46   S    
C6    C180  A    
C141  H64   S    
C87   H19   S    
C108  C117  A    
C124  C151  A    
C4    C178  A    
C116  H76   S    
C110  C119  A    
C19   C45   A    
C55   H110  S    
C175  C180  A    
C55   C114  A    
C82   O2    S    
C111  C117  S    
C181  H80   S    
C122  C140  A    
C82   H7    S    
C60   C69   A    
C125  C143  A    
C97   H42   S    
N1    N20   A    
C126  C144  A    
C49   C77   S    
C62   C71   A    
N12   Ni2   S    
C148  C157  A    
C102  C103  S    
C42   C171  A    
N12   N21   A    
C191  O2    S    
N22   Ni8   S    
C19   N11   A    
C27   H99   S    
C110  H136  S    
C130  H72   S    
C61   C70   A    
C35   C74   A    
N27   Ni1   S    
N28   Ni3   S    
C69   H123  S    
C132  C167  A    
C144  H70   S    
N22   N30   A    
C12   H146  S    
C156  C174  A    
C93   C94   S    
C41   C124  S    
C95   H39   S    
C24   H127  S    
C81   H5    S    
C16   H149  S    
C24   C73   A    
C88   O4    S    
C16   C167  A    
C106  H140  S    
C21   C48   A    
C127  N27   A    
C171  H131  S    
C32   C39   A    
C91   H28   S    
N24   Ni7   S    
C89   H26   S    
C113  C119  S    
C70   C182  A    
C146  C155  A    
C136  C172  A    
C171  N31   A    
C158  C167  A    
C86   H17   S    
C47   C185  A    
C51   C189  A    
C94   H36   S    
C17   H89   S    
C28   C34   A    
C11   C172  A    
C39   C126  S    
C182  H124  S    
C85   O3    S    
C184  H82   S    
C102  H53   S    
C28   N20   A    
C130  C139  A    
C186  N5    A    
C31   H103  S    
N18   N23   A    
C32   H104  S    
C62   H116  S    
C189  H88   S    
C36   C123  S    
N19   Ni5   S    
C98   H45   S    
N32   Ni5   S    
C23   C50   A    
C97   H44   S    
C184  N3    A    
C10   C192  A    
C4    O5    S    
C78   H151  S    
C187  N6    A    
C12   C164  A    
C49   C187  A    
N30   Ni4   S    
C147  C156  A    
C5    C14   A    
C174  C190  A    
C84   H11   S    
C3    C175  A    
C7    C16   A    
C30   H102  S    
C9    H143  S    
C80   H3    S    
C105  H65   S    
C150  C158  A    
C36   C105  A    
C86   C87   S    
C92   H31   S    
C86   H18   S    
C90   H138  S    
C31   N24   A    
C26   C37   A    
N31   Ni3   S    
C10   C170  A    
N13   Ni2   S    
C153  C162  A    
C138  H98   S    
C121  C139  A    
C156  C165  A    
C66   C75   A    
C92   C93   S    
C56   C115  A    
C40   C149  A    
C93   H32   S    
C44   C73   S    
C109  H135  S    
N26   N29   A    
C94   H34   S    
C60   H114  S    
C126  C153  A    
C95   O6    S    
C63   C72   A    
C46   H129  S    
C82   C83   S    
C103  C104  S    
C120  C137  A    
C20   H92   S    
N3    N11   A    
C161  C178  A    
C129  H71   S    
C21   H93   S    
C160  N30   A    
C23   H95   S    
N8    N17   A    
C43   C72   S    
C26   H97   S    
C95   C96   S    
C90   C112  A    
C83   H9    S    
C64   H118  S    
N4    Ni5   S    
C38   C127  A    
C29   C36   A    
C88   H22   S    
C106  C114  A    
C173  C178  A    
C138  N28   A    
C51   C75   S    
C8    H141  S    
N16   Ni3   S    
C176  C192  A    
C56   C65   A    
C54   C113  A    
C159  C168  A    
C42   C125  S    
C6    C15   A    
N7    Ni8   S    
C160  H120  S    
C162  C170  A    
C15   H148  S    
C91   H29   S    
C136  C145  A    
C192  O3    S    
C155  C173  A    
C80   H152  S    
C104  H59   S    
N23   Ni2   S    
C124  C142  A    
C5    O6    S    
C159  C177  A    
C58   C66   A    
C154  C163  A    
C105  N12   A    
C149  N29   A    
C52   C111  A    
C17   N9    A    
C135  H78   S    
N17   Ni4   S    
C79   H137  S    
C99   H49   S    
C25   C51   A    
C48   C186  A    
C125  C152  A    
C53   C62   A    
C99   C100  S    
C18   H90   S    
C57   H130  S    
C64   C73   A    
C47   C71   S    
C55   C64   A    
C26   N18   A    
C87   H21   S    
C7    C179  A    
C142  H68   S    
C14   C165  A    
C5    C177  A    
C162  C179  A    
C114  C118  S    
C100  H51   S    
C157  C175  A    
C53   C112  A    
C158  C176  A    
C135  C144  A    
C53   H107  S    
C13   C101  A    
C101  H139  S    
C29   N21   A    
C10   H144  S    
C150  H13   S    
C80   C81   S    
C157  C166  A    
N24   N31   A    
C20   N13   A    
C154  H57   S    
C155  C164  A    
N18   Ni6   S    
C2    H125  S    
C79   C111  A    
C127  H87   S    
C92   H30   S    
C81   H4    S    
C116  N23   A    
C37   C120  S    
N1    Ni1   S    
C96   H40   S    
C91   H27   S    
C58   H112  S    
C123  C150  A    
C89   H25   S    
C3    O4    S    
N21   Ni6   S    
C85   H16   S    
C163  C180  A    
C67   C76   A    
C98   O7    S    
C112  C115  S    
C22   N15   A    
C94   H37   S    
