data_mof_unit_39686.cif
_audit_creation_date              2012-12-10T17:22:01-0500
_audit_creation_method            fapswitch 2.2
_symmetry_space_group_name_H-M    P1
_symmetry_Int_Tables_number       1
_space_group_crystal_system       triclinic
_cell_length_a                    10.188543
_cell_length_b                    10.71132
_cell_length_c                    15.738887
_cell_angle_alpha                 90.436485
_cell_angle_beta                  80.562225
_cell_angle_gamma                 95.961206
_cell_volume                      1685.13858835

loop_
_atom_site_label
_atom_site_type_symbol
_atom_type_description
_atom_site_fract_x
_atom_site_fract_y
_atom_site_fract_z
_atom_type_partial_charge
C1    C     C_R   0.556402 0.733062 0.490699 0.936462
C2    C     C_2   0.488408 0.932598 0.462807 -0.152246
C3    C     C_2   0.411549 0.133786 0.492927 -0.376266
C4    C     C_R   0.499482 0.500415 0.661536 0.897208
C5    C     C_2   0.510403 0.066511 0.459719 -0.156818
C6    C     C_2   0.930079 0.518197 0.501238 0.357919
C7    C     C_2   0.070155 0.482335 0.498202 0.417193
C8    C     C_R   0.443601 0.266918 0.502318 0.933847
C9    C     C_R   0.500681 0.499817 0.338440 0.883409
C10   C     C_3   0.435444 0.617143 0.963126 0.200165
C11   C     C_3   0.660577 0.510812 0.932842 0.766149
C12   C     C_3   0.418632 0.601843 0.062891 0.161708
C13   C     C_3   0.659642 0.536848 0.032475 0.777331
C14   C     C_1   0.502739 0.498988 0.249554 -0.202118
C15   C     C_3   0.507402 0.504740 0.916001 -0.236153
C16   C     C_3   0.216850 0.573492 0.922022 -0.207720
C17   C     C_3   0.225207 0.671054 0.142760 0.141182
C18   C     C_3   0.079800 0.630692 0.179358 -0.870090
C19   C     C_3   0.432042 0.187405 0.135867 -0.382468
C20   C     C_3   0.064729 0.270701 0.507796 -0.311898
C21   C     C_3   0.940747 0.731758 0.497371 0.114914
C22   C     C_3   0.920704 0.846617 0.553618 -0.861604
C23   C     C_3   0.509423 0.497760 0.082285 -0.211427
C24   C     C_3   0.782590 0.371709 0.836908 0.260570
C25   C     C_3   0.801173 0.233389 0.824477 -0.884331
C26   C     C_3   0.726542 0.714921 0.855068 -0.359821
C27   C     C_3   0.808515 0.718728 0.059783 -0.208158
C28   C     C_3   0.754011 0.357856 0.093193 0.184796
C29   C     C_3   0.883061 0.332096 0.123419 -0.930267
C30   C     C_3   0.369517 0.177415 0.904661 0.142392
C31   C     C_3   0.426437 0.057438 0.870942 -0.809127
C32   C     C_3   0.439263 0.369622 0.052713 0.274048
C33   C     C_3   0.428765 0.378476 0.955559 0.330673
C34   C     C_1   0.506041 0.497822 0.174020 0.068779
C35   C     C_1   0.502006 0.504624 0.825164 0.085990
C36   C     C_1   0.499291 0.502765 0.750231 -0.205753
C37   C     C_2   0.588156 0.865871 0.473481 -0.393307
H1    H     H_    0.457723 0.692946 0.089690 0.128687
H2    H     H_    0.333616 0.358289 0.087437 0.128283
H3    H     H_    0.176144 0.518880 0.981512 0.196239
H4    H     H_    0.241657 0.511943 0.866056 0.145963
H5    H     H_    0.134022 0.625145 0.907710 0.174523
H6    H     H_    0.229245 0.750342 0.096724 0.162318
H7    H     H_    0.277658 0.702750 0.197118 0.133701
H8    H     H_    0.032063 0.711556 0.210744 0.193889
H9    H     H_    0.025853 0.596104 0.126639 0.272589
H10   H     H_    0.073359 0.554558 0.227852 0.265425
H11   H     H_    0.335521 0.145131 0.118900 0.163163
H12   H     H_    0.611968 0.109272 0.438138 0.185040
H13   H     H_    0.414174 0.240914 0.196724 0.173509
H14   H     H_    0.491251 0.109651 0.147078 0.193818
H15   H     H_    0.954034 0.251282 0.519673 0.126636
H16   H     H_    0.101001 0.280882 0.570758 0.173165
H17   H     H_    0.105487 0.187349 0.475399 0.182732
H18   H     H_    0.887061 0.737923 0.441779 0.163274
H19   H     H_    0.049294 0.734911 0.470930 0.090895
H20   H     H_    0.982072 0.846508 0.605788 0.246444
H21   H     H_    0.951763 0.933439 0.514173 0.194773
H22   H     H_    0.813866 0.845769 0.583116 0.263609
H23   H     H_    0.386176 0.889821 0.465193 0.185433
H24   H     H_    0.883699 0.423382 0.834530 0.157845
H25   H     H_    0.735554 0.403832 0.783242 0.162070
H26   H     H_    0.703142 0.177968 0.824309 0.291285
H27   H     H_    0.866592 0.220150 0.762012 0.194251
H28   H     H_    0.848313 0.198765 0.877365 0.247478
H29   H     H_    0.713841 0.783347 0.908007 0.203390
H30   H     H_    0.641594 0.707014 0.819483 0.173125
H31   H     H_    0.812871 0.757179 0.808326 0.199591
H32   H     H_    0.890526 0.686887 0.011599 0.211533
H33   H     H_    0.819113 0.692979 0.126366 0.189006
H34   H     H_    0.310372 0.090492 0.514672 0.138689
H35   H     H_    0.816650 0.822646 0.055858 0.144781
H36   H     H_    0.740119 0.289338 0.041776 0.248490
H37   H     H_    0.674952 0.342229 0.150097 0.181940
H38   H     H_    0.898738 0.391627 0.179648 0.269566
H39   H     H_    0.877004 0.232039 0.143138 0.214874
H40   H     H_    0.969462 0.352367 0.070658 0.263836
H41   H     H_    0.304807 0.207223 0.859658 0.111709
H42   H     H_    0.307617 0.156562 0.969039 0.126964
H43   H     H_    0.494474 0.027526 0.913531 0.265253
H44   H     H_    0.343775 0.981600 0.869543 0.219449
H45   H     H_    0.689928 0.909418 0.470897 0.149966
H46   H     H_    0.482606 0.073094 0.804586 0.238564
H47   H     H_    0.125570 0.624859 0.571864 0.150656
H48   H     H_    0.508755 0.699810 0.951141 0.133854
H49   H     H_    0.874689 0.375202 0.428146 0.153407
H50   H     H_    0.321783 0.381671 0.951896 0.002335
N1    N     N_2   0.842720 0.448890 0.465540 -0.229034
N2    N     N_2   0.157250 0.551040 0.534500 -0.232685
O1    O     O_R   0.431050 0.692470 0.506940 -0.620827
O2    O     O_3   0.283000 0.568168 0.100641 -0.611335
O3    O     O_3   0.505295 0.263816 0.067882 -0.582304
O4    O     O_3   0.108620 0.376752 0.453687 -0.584378
O5    O     O_3   0.890994 0.622376 0.547330 -0.586125
O6    O     O_3   0.702824 0.388067 0.918108 -0.597016
O7    O     O_3   0.760683 0.598925 0.882591 -0.641565
O8    O     O_3   0.681183 0.670619 0.042267 -0.701036
O9    O     O_3   0.768878 0.482668 0.062357 -0.631096
O10   O     O_3   0.475547 0.272245 0.909471 -0.519669
O11   O     O_R   0.651130 0.659650 0.484820 -0.582299
O12   O     O_R   0.389910 0.516410 0.633920 -0.616762
O13   O     O_R   0.609990 0.483590 0.611800 -0.570554
O14   O     O_R   0.348870 0.340350 0.515180 -0.577150
O15   O     O_R   0.568950 0.307530 0.493060 -0.622495
O16   O     O_R   0.390010 0.516410 0.388200 -0.571961
O17   O     O_R   0.610090 0.483590 0.366080 -0.622389
O18   O     O_3   0.325483 0.662690 0.931161 -0.592323
Zn1   Zn    Zn3+2 0.353060 0.521920 0.514770 0.966461
Zn2   Zn    Zn3+2 0.646940 0.478080 0.485230 0.963366

loop_
_geom_bond_atom_site_label_1
_geom_bond_atom_site_label_2
_ccdc_geom_bond_type
C11   O7    S    
C20   O4    S    
C4    C36   S    
C10   H48   S    
C1    O1    A    
C12   O2    S    
C35   C36   T    
C17   O2    S    
C28   H37   S    
C18   H10   S    
C22   H20   S    
C6    N1    D    
C31   H43   S    
C29   H39   S    
C12   C23   S    
C24   H24   S    
C26   H30   S    
C28   C29   S    
C10   C15   S    
C30   C31   S    
C2    H23   S    
C21   O5    S    
C9    O16   A    
C7    N2    D    
C31   H46   S    
C13   C23   S    
C25   H26   S    
C32   H2    S    
C13   O9    S    
C19   O3    S    
C16   O18   S    
C11   C15   S    
C6    O5    S    
C4    O13   A    
O14   Zn1   S    
C27   H32   S    
C1    C37   S    
O12   Zn1   S    
O11   Zn2   S    
C21   C22   S    
C12   H1    S    
C5    H12   S    
C10   O18   S    
C28   H36   S    
C18   H9    S    
C1    O11   A    
C15   C35   S    
C26   O7    S    
C7    O4    S    
O16   Zn1   S    
C26   H29   S    
C25   H28   S    
C24   C25   S    
C20   H17   S    
C3    C8    S    
C24   O6    S    
C22   H22   S    
C21   H18   S    
C19   H11   S    
C9    O17   A    
C30   O10   S    
C33   O10   S    
C25   H27   S    
C3    H34   S    
C9    C14   S    
C17   H6    S    
C22   H21   S    
C23   C34   S    
C4    O12   A    
C17   C18   S    
C29   H40   S    
C8    O15   A    
C27   H33   S    
C10   C12   S    
C16   H3    S    
N1    Zn2   S    
C19   H13   S    
C37   H45   S    
C2    C5    S    
H47   N2    S    
C30   H42   S    
C18   H8    S    
C16   H5    S    
C28   O9    S    
C27   O8    S    
C24   H25   S    
C20   H16   S    
C3    C5    D    
C14   C34   T    
C21   H19   S    
C6    C7    S    
C29   H38   S    
C31   H44   S    
C26   H31   S    
C23   C32   S    
C33   H50   S    
C17   H7    S    
O1    Zn1   S    
C20   H15   S    
C32   C33   S    
C11   C13   S    
C2    C37   D    
C32   O3    S    
N2    Zn1   S    
H49   N1    S    
C13   O8    S    
C8    O14   A    
C30   H41   S    
C19   H14   S    
C11   O6    S    
O15   Zn2   S    
O13   Zn2   S    
C16   H4    S    
C15   C33   S    
C27   H35   S    
O17   Zn2   S    
