data_mof_unit_42916.cif
_audit_creation_date              2012-12-10T18:03:58-0500
_audit_creation_method            fapswitch 2.2
_symmetry_space_group_name_H-M    P1
_symmetry_Int_Tables_number       1
_space_group_crystal_system       triclinic
_cell_length_a                    10.890993
_cell_length_b                    9.526838
_cell_length_c                    10.823982
_cell_angle_alpha                 89.946221
_cell_angle_beta                  90.726515
_cell_angle_gamma                 89.912259
_cell_volume                      1122.96881798

loop_
_atom_site_label
_atom_site_type_symbol
_atom_type_description
_atom_site_fract_x
_atom_site_fract_y
_atom_site_fract_z
_atom_type_partial_charge
C1    C     C_R   0.261983 0.500324 0.498601 0.905223
C2    C     C_R   0.737663 0.500353 0.495054 0.905778
C3    C     C_R   0.422099 0.075548 0.422929 0.379207
C4    C     C_R   0.580193 0.074919 0.575196 0.381835
C5    C     C_R   0.420781 0.925519 0.425506 0.556624
C6    C     C_R   0.577545 0.924445 0.576349 0.535723
C7    C     C_R   0.502072 0.499841 0.262505 0.889870
C8    C     C_R   0.502927 0.500204 0.737450 0.864052
C9    C     C_R   0.425572 0.585396 0.062409 -0.203003
C10   C     C_R   0.425738 0.586108 0.934934 -0.249251
C11   C     C_R   0.504065 0.497323 0.129209 -0.194353
C12   C     C_R   0.505837 0.499736 0.870673 -0.181195
C13   C     C_R   0.578867 0.400164 0.066537 0.337730
C14   C     C_R   0.584876 0.407844 0.936074 0.398460
C15   C     C_3   0.411374 0.742464 0.930187 1.007698
C16   C     C_3   0.409077 0.740716 0.069905 1.032764
C17   C     C_R   0.062948 0.376495 0.474488 0.504518
C18   C     C_R   0.936095 0.377115 0.470181 0.465978
C19   C     C_R   0.871246 0.502777 0.486851 -0.418142
C20   C     C_R   0.127859 0.502145 0.493754 -0.419899
C21   C     C_R   0.935582 0.631141 0.494871 0.317465
C22   C     C_R   0.063200 0.630127 0.505080 0.329450
Cu1   Cu    Cu3+1 0.500000 0.640660 0.500000 1.120947
Cu2   Cu    Cu3+1 0.500000 0.359340 0.500000 1.095237
N1    N     N_R   0.500000 0.852070 0.500000 -0.309955
N2    N     N_R   0.500000 0.147940 0.500000 -0.288355
O1    O     O_R   0.319640 0.618740 0.499990 -0.504871
O2    O     O_R   0.680360 0.618740 0.500010 -0.527815
O3    O     O_R   0.319620 0.381170 0.499990 -0.506502
O4    O     O_R   0.680380 0.381170 0.500010 -0.506877
O5    O     O_R   0.499990 0.618810 0.319660 -0.526585
O6    O     O_R   0.500010 0.618810 0.680340 -0.512020
O7    O     O_R   0.499960 0.381240 0.319650 -0.556210
O8    O     O_R   0.500040 0.381240 0.680350 -0.537129
O9    O     O_3   0.659080 0.316243 0.135153 -0.584295
C23   C     C_3   0.653147 0.174468 0.097033 -0.090268
H1    H     H_    0.731565 0.150328 0.036066 0.203204
H2    H     H_    0.565344 0.145666 0.049466 0.151035
H3    H     H_    0.662426 0.106637 0.180039 0.166247
O10   O     O_3   0.674830 0.334730 0.874013 -0.551586
C24   C     C_3   0.779898 0.420990 0.867304 -0.251428
H4    H     H_    0.811000 0.457473 0.960313 0.182170
H5    H     H_    0.762926 0.512413 0.805287 0.165540
H6    H     H_    0.856388 0.359367 0.828113 0.163235
F1    F     F_    0.512463 0.811032 0.882718 -0.616724
F2    F     F_    0.296495 0.777626 0.118030 -0.625493
F3    F     F_    0.301578 0.784451 0.876470 -0.694944
F4    F     F_    0.507527 0.809584 0.124757 -0.689835
F5    F     F_    0.121362 0.251896 0.459121 -0.571230
F6    F     F_    0.877369 0.254550 0.445640 -0.631732
O11   O     O_3   0.874718 0.758671 0.499224 -0.535542
C25   C     C_3   0.867668 0.814053 0.378335 -0.118757
H7    H     H_    0.821018 0.740234 0.313306 0.138225
H8    H     H_    0.960310 0.841643 0.343728 0.210026
H9    H     H_    0.812215 0.911763 0.380068 0.165932
O12   O     O_3   0.124134 0.756593 0.519151 -0.500817
C26   C     C_3   0.124236 0.793388 0.645276 -0.067244
H10   H     H_    0.159632 0.706310 0.704554 0.159514
H11   H     H_    0.030940 0.824991 0.675250 0.163740
H12   H     H_    0.185892 0.884837 0.658785 0.211154
O13   O     O_3   0.338778 0.151838 0.351839 -0.488403
C27   C     C_3   0.338520 0.108983 0.226992 -0.039515
H13   H     H_    0.324395 0.203015 0.167905 0.133737
H14   H     H_    0.425866 0.058898 0.197993 0.138336
H15   H     H_    0.260257 0.037042 0.209283 0.248119
O14   O     O_3   0.654651 0.151473 0.655563 -0.502817
C28   C     C_3   0.775370 0.097251 0.663937 -0.005978
H16   H     H_    0.839733 0.185659 0.678408 0.157880
H17   H     H_    0.784450 0.027486 0.745742 0.189821
H18   H     H_    0.805329 0.042116 0.578806 0.179414
F7    F     F_    0.337110 0.853843 0.357039 -0.555611
F8    F     F_    0.649192 0.850631 0.656495 -0.591508

loop_
_geom_bond_atom_site_label_1
_geom_bond_atom_site_label_2
_ccdc_geom_bond_type
Cu1   O5    S    
C6    F8    S    
Cu1   Cu2   S    
C27   H13   S    
Cu1   O1    S    
C3    N2    A    
C11   C13   A    
C9    C10   A    
C4    N2    A    
Cu2   O7    S    
C25   H9    S    
C15   F3    S    
C8    C12   S    
C28   H18   S    
Cu1   O6    S    
C16   F4    S    
C1    O3    A    
C17   C18   A    
C2    C19   S    
O11   C25   S    
C5    F7    S    
C8    O8    A    
Cu1   O2    S    
O12   C26   S    
C28   H17   S    
C7    C11   S    
C24   H5    S    
Cu2   N2    S    
C26   H10   S    
C10   C12   A    
C5    N1    A    
C23   H2    S    
O10   C24   S    
C19   C21   A    
C9    C16   S    
C25   H8    S    
C13   O9    S    
C10   C15   S    
C9    C11   A    
O13   C27   S    
C24   H6    S    
Cu2   O4    S    
C26   H11   S    
C6    N1    A    
C7    O5    A    
C2    O4    A    
C7    O7    A    
C3    O13   S    
C14   O10   S    
C28   H16   S    
C8    O6    A    
Cu2   O3    S    
C12   C14   A    
C21   O11   S    
Cu1   N1    S    
O14   C28   S    
C25   H7    S    
C18   F6    S    
C4    C6    A    
C18   C19   A    
C24   H4    S    
C16   F2    S    
C27   H14   S    
C1    O1    A    
C15   F1    S    
C2    O2    A    
C23   H1    S    
C1    C20   S    
C22   O12   S    
C27   H15   S    
C3    C5    A    
C4    O14   S    
C21   C22   A    
C17   C20   A    
C23   H3    S    
C17   F5    S    
C15   C16   S    
C20   C22   A    
C13   C14   A    
C26   H12   S    
O9    C23   S    
Cu2   O8    S    
