data_mof_unit_9541.cif
_audit_creation_date              2012-12-10T17:56:19-0500
_audit_creation_method            fapswitch 2.2
_symmetry_space_group_name_H-M    P1
_symmetry_Int_Tables_number       1
_space_group_crystal_system       triclinic
_cell_length_a                    12.940277
_cell_length_b                    10.825764
_cell_length_c                    9.598214
_cell_angle_alpha                 90.524928
_cell_angle_beta                  97.254329
_cell_angle_gamma                 91.726838
_cell_volume                      1333.11557863

loop_
_atom_site_label
_atom_site_type_symbol
_atom_type_description
_atom_site_fract_x
_atom_site_fract_y
_atom_site_fract_z
_atom_type_partial_charge
C1    C     C_R   0.499781 0.262309 0.499564 0.801161
C2    C     C_R   0.500218 0.737691 0.500436 0.801163
C3    C     C_R   0.500190 0.871669 0.500489 -0.009088
C4    C     C_R   0.499808 0.128331 0.499511 -0.009086
C5    C     C_R   0.429036 0.427295 0.058189 0.266942
C6    C     C_R   0.570968 0.572700 0.941812 0.266927
C7    C     C_R   0.431058 0.427512 0.910718 -0.042792
C8    C     C_R   0.568945 0.572483 0.089282 -0.042833
C9    C     C_R   0.300848 0.499994 0.472991 0.855969
C10   C     C_R   0.699152 0.500007 0.527009 0.855978
C11   C     C_R   0.811930 0.508355 0.541990 -0.081486
C12   C     C_R   0.188070 0.491646 0.458011 -0.081486
C13   C     C_R   0.032562 0.365005 0.394135 -0.137681
C14   C     C_R   0.967438 0.634989 0.605862 -0.137701
C15   C     C_R   0.138252 0.387236 0.391274 -0.279826
C16   C     C_R   0.861747 0.612761 0.608719 -0.279849
C17   C     C_R   0.132249 0.576708 0.528024 0.187000
C18   C     C_R   0.867752 0.423293 0.471983 0.187009
C19   C     C_R   0.025201 0.553708 0.533702 0.074199
C20   C     C_R   0.974800 0.446291 0.466303 0.074216
C21   C     C_R   0.499221 0.062763 0.373030 -0.153214
C22   C     C_R   0.500777 0.937237 0.626970 -0.153211
C23   C     C_R   0.499450 0.934978 0.373512 -0.163992
C24   C     C_R   0.500548 0.065021 0.626488 -0.163994
Cu1   Cu    Cu3+1 0.500000 0.500020 0.640660 0.964328
Cu2   Cu    Cu3+1 0.500000 0.499980 0.359340 0.964331
H1    H     H_    0.817516 0.680557 0.657493 0.155390
H2    H     H_    0.182483 0.319437 0.342498 0.155378
H3    H     H_    0.997775 0.282302 0.341724 0.198665
H4    H     H_    0.002225 0.717685 0.658269 0.198676
H5    H     H_    0.498574 0.109886 0.273846 0.155758
H6    H     H_    0.501424 0.890114 0.726155 0.155763
H7    H     H_    0.499008 0.886078 0.274453 0.153567
H8    H     H_    0.500991 0.113921 0.725547 0.153565
H9    H     H_    0.376857 0.369018 0.842392 0.143270
H10   H     H_    0.623155 0.630966 0.157608 0.143275
N1    N     N_R   0.500030 0.500030 0.852080 -0.190406
N2    N     N_R   0.499970 0.499970 0.147920 -0.190415
O1    O     O_R   0.499990 0.319660 0.618740 -0.591284
O2    O     O_R   0.500010 0.680340 0.381260 -0.591280
O3    O     O_R   0.499990 0.319630 0.381170 -0.593260
O4    O     O_R   0.500010 0.680370 0.618830 -0.593251
O5    O     O_R   0.349000 0.499990 0.599490 -0.553763
O6    O     O_R   0.651000 0.500010 0.400510 -0.553760
O7    O     O_R   0.348990 0.499960 0.361920 -0.590898
O8    O     O_R   0.651010 0.500040 0.638080 -0.590897
Br1   Br    Br    0.796084 0.276335 0.386672 -0.542698
Br2   Br    Br    0.203918 0.723677 0.613340 -0.542678
C25   C     C_3   0.345434 0.343457 0.106900 -0.407849
C26   C     C_3   0.236649 0.392651 0.062457 -0.808637
H11   H     H_    0.228424 0.483790 0.113247 0.278866
H12   H     H_    0.221435 0.402829 0.946766 0.249775
H13   H     H_    0.176735 0.326763 0.093939 0.241524
H14   H     H_    0.349857 0.250169 0.058878 0.170026
H15   H     H_    0.354692 0.328103 0.219944 0.250431
C27   C     C_3   0.654595 0.656502 0.893105 -0.407847
C28   C     C_3   0.763352 0.607214 0.937480 -0.808644
H16   H     H_    0.778568 0.596972 0.053148 0.249799
H17   H     H_    0.771515 0.516099 0.886635 0.278900
H18   H     H_    0.823301 0.673069 0.906027 0.241524
H19   H     H_    0.645313 0.671913 0.780068 0.250407
H20   H     H_    0.650239 0.749777 0.941189 0.170025

loop_
_geom_bond_atom_site_label_1
_geom_bond_atom_site_label_2
_ccdc_geom_bond_type
C12   C17   A    
Cu1   O4    S    
C26   H12   S    
C17   Br2   S    
C11   C18   A    
C10   O8    A    
C11   C16   A    
C3    C23   A    
C19   C20   A    
Cu2   O7    S    
C12   C15   A    
C1    C4    S    
C5    C25   S    
C18   Br1   S    
Cu1   O5    S    
C16   H1    S    
C13   C15   A    
C2    C3    S    
C15   H2    S    
C6    N1    A    
Cu2   O6    S    
C5    N2    A    
Cu1   O1    S    
C9    O7    A    
C4    C21   A    
C21   H5    S    
Cu2   O2    S    
C28   H16   S    
C22   H6    S    
C8    N2    A    
C14   H4    S    
C14   C19   A    
C22   C24   A    
C1    O3    A    
C17   C19   A    
C2    O4    A    
C26   H11   S    
C14   C16   A    
C21   C23   A    
C7    N1    A    
C4    C24   A    
C9    C12   S    
C27   H20   S    
C28   H17   S    
C26   H13   S    
C9    O5    A    
C10   C11   S    
C1    O1    A    
C10   O6    A    
C25   H14   S    
C2    O2    A    
C27   C28   S    
C18   C20   A    
C23   H7    S    
C25   C26   S    
C8    H10   S    
C13   H3    S    
C5    C7    A    
C27   H19   S    
Cu2   N2    S    
C3    C22   A    
C6    C8    A    
C13   C20   A    
Cu1   N1    S    
Cu1   Cu2   S    
C25   H15   S    
C7    H9    S    
Cu1   O8    S    
C24   H8    S    
Cu2   O3    S    
C6    C27   S    
C28   H18   S    
