data_mof_unit_64291.cif
_audit_creation_date              2012-12-10T19:27:48-0500
_audit_creation_method            fapswitch 2.2
_symmetry_space_group_name_H-M    P1
_symmetry_Int_Tables_number       1
_space_group_crystal_system       triclinic
_cell_length_a                    17.740377
_cell_length_b                    16.43582
_cell_length_c                    10.742749
_cell_angle_alpha                 90.004215
_cell_angle_beta                  90.195041
_cell_angle_gamma                 90.000958
_cell_volume                      3132.32727624

loop_
_atom_site_label
_atom_site_type_symbol
_atom_type_description
_atom_site_fract_x
_atom_site_fract_y
_atom_site_fract_z
_atom_type_partial_charge
C1    C     C_R   0.355084 0.499996 0.499873 0.879417
C2    C     C_3   0.571148 0.456528 0.928564 -0.385818
C3    C     C_R   0.846113 0.573745 0.500367 -0.155357
C4    C     C_R   0.846099 0.426219 0.500686 -0.155118
C5    C     C_R   0.767546 0.573853 0.500338 -0.200386
C6    C     C_R   0.767532 0.426126 0.500650 -0.200107
C7    C     C_R   0.727581 0.499994 0.500388 -0.039414
C8    C     C_R   0.885265 0.499978 0.500491 0.143423
C9    C     C_1   0.965750 0.499971 0.500317 -0.070573
C10   C     C_1   0.033326 0.499965 0.500132 0.022320
C11   C     C_R   0.152867 0.572261 0.478418 -0.228742
C12   C     C_R   0.152979 0.427649 0.521233 -0.230671
C13   C     C_R   0.231436 0.572652 0.478228 0.539687
C14   C     C_R   0.231548 0.427270 0.521246 0.538814
C15   C     C_R   0.271863 0.499974 0.499769 -0.308043
C16   C     C_R   0.499936 0.500121 0.259335 0.756180
C17   C     C_R   0.113818 0.499958 0.499915 -0.044582
C18   C     C_R   0.546501 0.828901 0.581614 -0.274208
C19   C     C_R   0.547448 0.171108 0.580115 -0.274262
C20   C     C_R   0.545700 0.743047 0.580152 0.066908
C21   C     C_R   0.546624 0.256962 0.578687 0.071719
C22   C     C_R   0.454244 0.743025 0.419764 0.126464
C23   C     C_R   0.453293 0.256966 0.421272 0.130334
C24   C     C_R   0.453407 0.828877 0.418322 -0.262172
C25   C     C_R   0.452437 0.171112 0.419862 -0.261186
C26   C     C_R   0.499943 0.873056 0.499976 0.139632
C27   C     C_R   0.499937 0.126943 0.499989 0.141001
C28   C     C_1   0.499933 0.962695 0.499979 -0.034807
C29   C     C_1   0.499931 0.037303 0.499983 -0.034591
C30   C     C_R   0.644739 0.499999 0.500158 0.784511
C31   C     C_R   0.500013 0.500125 0.740654 0.756845
C32   C     C_3   0.499920 0.589214 0.071279 -0.371092
C33   C     C_3   0.428808 0.456480 0.071412 -0.384643
C34   C     C_3   0.499964 0.589216 0.928730 -0.368414
C35   C     C_3   0.428833 0.456484 0.927733 -0.361616
C36   C     C_3   0.571123 0.456528 0.072239 -0.373237
C37   C     C_3   0.499946 0.500563 0.121623 0.156180
C38   C     C_3   0.499989 0.500567 0.878364 0.149818
Cu1   Cu    Cu3+1 0.499980 0.580420 0.499990 0.954488
Cu2   Cu    Cu3+1 0.499980 0.419580 0.499990 0.957832
H1    H     H_    0.550556 0.622473 0.105707 0.170415
H2    H     H_    0.427316 0.392590 0.105699 0.170143
H3    H     H_    0.583290 0.860498 0.646137 0.134524
H4    H     H_    0.584989 0.139518 0.643446 0.134327
H5    H     H_    0.581904 0.709891 0.643540 0.114918
H6    H     H_    0.583546 0.290129 0.640934 0.114003
H7    H     H_    0.418080 0.709854 0.356328 0.149586
H8    H     H_    0.416379 0.290136 0.359027 0.129616
H9    H     H_    0.416614 0.860454 0.353789 0.143298
H10   H     H_    0.414883 0.139526 0.356539 0.140341
H11   H     H_    0.449243 0.622428 0.105092 0.170741
H12   H     H_    0.377089 0.487366 0.105904 0.159143
H13   H     H_    0.449309 0.622439 0.894309 0.178905
H14   H     H_    0.377120 0.487363 0.892626 0.160762
H15   H     H_    0.550622 0.622468 0.894929 0.163651
H16   H     H_    0.427356 0.392594 0.893436 0.183474
H17   H     H_    0.622820 0.487442 0.107351 0.153546
H18   H     H_    0.572634 0.392638 0.106517 0.172594
H19   H     H_    0.622853 0.487446 0.894081 0.151699
H20   H     H_    0.572673 0.392640 0.894260 0.168198
H21   H     H_    0.876290 0.631070 0.500248 0.133089
H22   H     H_    0.876266 0.368889 0.500819 0.133053
H23   H     H_    0.738203 0.631638 0.500230 0.149792
H24   H     H_    0.738179 0.368346 0.500795 0.149431
H25   H     H_    0.122473 0.628416 0.461588 0.175403
H26   H     H_    0.122674 0.371488 0.538117 0.175834
N1    N     N_R   0.499970 0.701220 0.499970 -0.173615
N2    N     N_R   0.499970 0.298780 0.499970 -0.170096
O1    O     O_R   0.391240 0.567930 0.499990 -0.529239
O2    O     O_R   0.391240 0.432070 0.499990 -0.529152
O3    O     O_R   0.499970 0.567910 0.317690 -0.598572
O4    O     O_R   0.499970 0.432090 0.317690 -0.600320
O5    O     O_R   0.608730 0.567880 0.500000 -0.590714
O6    O     O_R   0.608730 0.432120 0.500000 -0.591641
O7    O     O_R   0.500000 0.567910 0.682300 -0.595123
O8    O     O_R   0.500000 0.432090 0.682300 -0.587311
F1    F     F_    0.267396 0.644031 0.455661 -0.660320
F2    F     F_    0.267623 0.355878 0.543630 -0.650917

loop_
_geom_bond_atom_site_label_1
_geom_bond_atom_site_label_2
_ccdc_geom_bond_type
C27   C29   S    
C20   N1    A    
C18   C26   A    
C4    C8    A    
C33   H12   S    
Cu2   O2    S    
C33   H2    S    
C36   C37   S    
C19   C21   A    
C24   C26   A    
C36   H18   S    
C30   O6    A    
C2    H20   S    
C10   C17   S    
C4    H22   S    
C14   F2    S    
C5    H23   S    
C6    H24   S    
C25   H10   S    
C11   C17   A    
C8    C9    S    
C16   O4    A    
C12   C17   A    
C32   H1    S    
C1    C15   S    
Cu1   O7    S    
C19   C27   A    
C9    C10   T    
C20   H5    S    
C16   C37   S    
C23   C25   A    
C22   H7    S    
C34   H15   S    
C7    C30   S    
C35   H14   S    
C16   O3    A    
C3    H21   S    
C13   F1    S    
C35   C38   S    
C4    C6    A    
C36   H17   S    
Cu1   Cu2   S    
C5    C7    A    
C30   O5    A    
C2    H19   S    
C12   H26   S    
C33   C37   S    
Cu2   O8    S    
C32   C34   S    
C23   N2    A    
C32   H11   S    
C2    C38   S    
C31   O7    A    
Cu1   O1    S    
C32   C37   S    
C12   C14   A    
C3    C8    A    
C13   C15   A    
C21   N2    A    
C22   C24   A    
C19   H4    S    
C21   H6    S    
C2    C36   S    
C24   H9    S    
C28   C29   T    
C23   H8    S    
Cu2   O4    S    
C35   H16   S    
C34   C38   S    
Cu1   N1    S    
C3    C5    A    
C6    C7    A    
C25   C27   A    
C26   C28   S    
C1    O2    A    
C31   C38   S    
C18   H3    S    
C11   C13   A    
C31   O8    A    
C33   C35   S    
Cu2   O6    S    
C18   C20   A    
Cu1   O5    S    
C1    O1    A    
C22   N1    A    
C34   H13   S    
Cu2   N2    S    
Cu1   O3    S    
C14   C15   A    
C11   H25   S    
