data_mof_unit_32849.cif
_audit_creation_date              2013-03-05T16:18:07-0500
_audit_creation_method            fapswitch 2.2
_symmetry_space_group_name_H-M    P1
_symmetry_Int_Tables_number       1
_space_group_crystal_system       triclinic
_cell_length_a                    10.696737
_cell_length_b                    9.916062
_cell_length_c                    15.717288
_cell_angle_alpha                 91.107148
_cell_angle_beta                  91.100738
_cell_angle_gamma                 88.837564
_cell_volume                      1666.17539387

loop_
_atom_site_label
_atom_site_type_symbol
_atom_site_description
_atom_site_fract_x
_atom_site_fract_y
_atom_site_fract_z
_atom_type_partial_charge
O1    O     O_R   0.314910 0.616040 0.499980 -0.572217
O2    O     O_R   0.314910 0.383960 0.499980 -0.597074
C1    C     C_R   0.257796 0.500956 0.503363 0.845841
O3    O     O_R   0.500120 0.616090 0.377110 -0.616050
O4    O     O_R   0.500120 0.383910 0.377110 -0.623607
C2    C     C_R   0.499641 0.498810 0.338771 0.898737
Zn1   Zn    Zn3+2 0.500150 0.654960 0.499960 0.998293
Zn2   Zn    Zn3+2 0.500150 0.345040 0.499960 0.972638
O5    O     O_R   0.685320 0.616040 0.499960 -0.609007
O6    O     O_R   0.685320 0.383960 0.499960 -0.638147
O7    O     O_R   0.500110 0.615990 0.622830 -0.613983
O8    O     O_R   0.500110 0.384010 0.622830 -0.596809
C3    C     C_R   0.741505 0.499145 0.503356 0.838274
C4    C     C_R   0.499388 0.501150 0.661210 0.903144
C5    C     C_3   0.387975 0.603618 0.050146 -0.244902
C6    C     C_3   0.455907 0.348158 0.044769 -0.253525
C7    C     C_3   0.439735 0.358374 0.946261 -0.240197
C8    C     C_3   0.390595 0.608802 0.950798 -0.281450
H1    H     H_    0.297154 0.582142 0.923545 0.165164
H2    H     H_    0.337932 0.354053 0.929798 0.170197
H3    H     H_    0.540546 0.284725 0.059198 0.157674
H4    H     H_    0.421134 0.701585 0.077228 0.176800
C9    C     C_1   0.494471 0.503394 0.749961 -0.074064
C10   C     C_3   0.482984 0.492659 0.082919 0.139955
C11   C     C_3   0.485849 0.499345 0.916815 0.113134
C12   C     C_3   0.618409 0.526035 0.954394 -0.339709
C13   C     C_3   0.614597 0.531563 0.052217 -0.417237
C14   C     C_1   0.489846 0.502750 0.825162 -0.069496
C15   C     C_1   0.489262 0.493578 0.174643 -0.022467
C16   C     C_1   0.494768 0.495875 0.249951 -0.111231
H5    H     H_    0.638175 0.634978 0.075423 0.213708
H6    H     H_    0.688047 0.461891 0.078469 0.192392
H7    H     H_    0.655911 0.621524 0.930493 0.212508
H8    H     H_    0.685498 0.445735 0.933594 0.224141
C17   C     C_3   0.065762 0.641095 0.530462 -0.322973
C18   C     C_3   0.073487 0.400930 0.572653 -0.345058
H9    H     H_    0.083347 0.709921 0.478626 0.278490
H10   H     H_    0.112128 0.299607 0.561160 0.281022
H11   H     H_    0.107469 0.678276 0.591728 0.221136
H12   H     H_    0.104462 0.433589 0.637729 0.169506
C19   C     C_3   0.924563 0.638047 0.536930 -0.368378
C20   C     C_3   0.930197 0.391924 0.568194 -0.367601
H13   H     H_    0.897300 0.657590 0.604133 0.219973
H14   H     H_    0.891223 0.409081 0.632773 0.168219
H15   H     H_    0.883528 0.721209 0.497980 0.212205
H16   H     H_    0.903658 0.288827 0.546182 0.239408
H17   H     H_    0.102490 0.533654 0.368049 0.190820
H18   H     H_    0.102686 0.360363 0.396086 0.239584
H19   H     H_    0.889679 0.543863 0.370217 0.172201
H20   H     H_    0.889664 0.366609 0.391927 0.192253
C21   C     C_3   0.068554 0.462173 0.415867 -0.349623
C22   C     C_3   0.119900 0.500949 0.505727 0.067934
C23   C     C_3   0.877381 0.498361 0.505793 0.116659
C24   C     C_3   0.925017 0.465816 0.415175 -0.410326
C25   C     C_3   0.385213 0.081778 0.455471 0.190389
C26   C     C_3   0.395140 0.922525 0.445007 0.201516
H21   H     H_    0.380355 0.122640 0.389770 0.099412
H22   H     H_    0.416467 0.901763 0.376514 0.091069
H23   H     H_    0.589987 0.099399 0.378258 0.153790
H24   H     H_    0.626803 0.867534 0.393607 0.164621
C27   C     C_3   0.604267 0.076707 0.446942 -0.363579
C28   C     C_3   0.613644 0.916541 0.457175 -0.324307
C29   C     C_3   0.516232 0.083948 0.586220 -0.159971
C30   C     C_3   0.497103 0.925275 0.586467 -0.185411
N1    N     N_3   0.499750 0.138610 0.498180 -0.156855
N2    N     N_3   0.499750 0.861390 0.498180 -0.144196
H25   H     H_    0.444886 0.130773 0.627660 0.215004
H26   H     H_    0.403521 0.909661 0.612772 0.208210
H27   H     H_    0.694651 0.124758 0.461936 0.236694
H28   H     H_    0.700370 0.890392 0.493013 0.248325
N3    N     N_R   0.267204 0.125814 0.494524 0.241302
O9    O     O_R   0.249568 0.115960 0.575779 -0.391189
O10   O     O_R   0.168977 0.137080 0.444838 -0.394795
N4    N     N_R   0.274956 0.861568 0.457356 0.243949
O11   O     O_R   0.224001 0.866297 0.531762 -0.378898
O12   O     O_R   0.206521 0.832844 0.390242 -0.404315
C31   C     C_2   0.637744 0.128882 0.631425 0.961306
O13   O     O_2   0.740357 0.093544 0.605171 -0.637520
O14   O     O_R   0.630927 0.201493 0.708399 -0.778352
H29   H     H_    0.716349 0.224277 0.733108 0.340670
C32   C     C_2   0.583638 0.858375 0.651714 0.989380
O15   O     O_2   0.685753 0.811225 0.632275 -0.621390
O16   O     O_R   0.546150 0.854795 0.736367 -0.765711
H30   H     H_    0.610639 0.808925 0.774726 0.339054
C33   C     C_2   0.256467 0.590751 0.083128 0.963714
O17   O     O_2   0.182355 0.513965 0.048459 -0.606295
O18   O     O_R   0.219762 0.669172 0.153546 -0.774805
H31   H     H_    0.130473 0.652177 0.170333 0.355098
C34   C     C_2   0.349765 0.270481 0.082733 0.944713
O19   O     O_2   0.294144 0.312989 0.145288 -0.593935
O20   O     O_R   0.319444 0.144757 0.047083 -0.770306
H32   H     H_    0.248896 0.100529 0.077647 0.365697
C35   C     C_2   0.501423 0.238279 0.901025 0.996427
O21   O     O_2   0.439079 0.167508 0.852552 -0.539831
O22   O     O_R   0.628024 0.207006 0.915377 -0.820883
H33   H     H_    0.656799 0.123513 0.882416 0.360825
C36   C     C_2   0.415028 0.750639 0.920899 0.968870
O23   O     O_2   0.342300 0.803877 0.870135 -0.540397
O24   O     O_R   0.518153 0.821717 0.952404 -0.813889
H34   H     H_    0.522718 0.915346 0.928056 0.379911

loop_
_geom_bond_atom_site_label_1
_geom_bond_atom_site_label_2
_geom_bond_distance
_ccdc_geom_bond_type
C5    C8    1.564135 S    
O18   H31   1.013987 S    
C29   N1    1.501786 S    
C6    H3    1.114116 S    
C18   C20   1.537327 S    
O22   H33   1.013796 S    
C10   C13   1.555313 S    
C25   C26   1.586163 S    
C36   O23   1.223217 D    
C5    H4    1.114857 S    
C33   O17   1.223518 D    
C11   C14   1.443071 S    
Zn1   O7    1.976782 S    
C12   C13   1.538724 S    
H20   C24   1.113622 S    
N4    O12   1.302649 A    
C30   H26   1.105268 S    
C17   H9    1.094315 S    
C20   C23   1.545823 S    
O4    C2    1.299015 A    
O7    C4    1.299153 A    
H19   C24   1.113624 S    
C7    H2    1.115907 S    
C28   H28   1.104944 S    
H24   C28   1.112689 S    
C8    H1    1.114574 S    
C20   H16   1.113430 S    
O5    C3    1.296357 A    
C10   C15   1.441790 S    
C36   O24   1.398525 S    
C12   H8    1.109811 S    
H18   C21   1.107445 S    
O16   H30   1.013966 S    
C6    C7    1.559620 S    
C8    C36   1.520671 S    
C34   O20   1.398503 S    
C18   C22   1.554672 S    
C5    C33   1.517120 S    
C33   O18   1.398168 S    
C6    C34   1.522392 S    
C6    C10   1.572746 S    
C19   H13   1.113490 S    
C8    C11   1.566889 S    
C20   H14   1.113412 S    
O3    Zn1   1.961641 S    
C25   N1    1.500342 S    
C32   O15   1.221329 D    
C3    C23   1.453067 S    
C31   O14   1.398225 S    
C29   H25   1.102400 S    
H23   C27   1.113998 S    
C26   N4    1.449617 S    
N4    O11   1.299326 A    
C28   N2    1.506487 S    
C13   H5    1.113884 S    
C21   C22   1.549842 S    
C18   H12   1.113264 S    
O3    C2    1.299474 A    
O20   H32   1.013946 S    
N3    O10   1.301300 A    
H17   C21   1.113795 S    
C11   C12   1.551287 S    
C31   O13   1.222304 D    
O14   H29   1.013970 S    
O1    C1    1.307763 A    
C30   N2    1.514738 S    
C4    C9    1.396653 S    
C17   H11   1.112951 S    
C15   C16   1.183781 T    
C12   H7    1.110662 S    
O24   H34   1.013461 S    
Zn2   O8    1.962136 S    
C35   O21   1.223296 D    
C9    C14   1.184088 T    
C19   C23   1.550961 S    
Zn2   O6    2.025634 S    
C5    C10   1.570091 S    
C2    C16   1.395749 S    
O8    C4    1.298428 A    
C25   H21   1.116456 S    
C7    C35   1.520695 S    
C29   C31   1.539009 S    
C27   H27   1.105855 S    
Zn1   O5    2.010265 S    
C13   H6    1.114174 S    
O1    Zn1   2.026374 S    
O2    Zn2   2.011002 S    
O6    C3    1.301113 A    
C32   O16   1.398302 S    
O4    Zn2   1.976246 S    
C1    C22   1.476221 S    
C23   C24   1.547833 S    
C21   C24   1.534913 S    
C7    C11   1.572675 S    
C18   H10   1.091765 S    
O2    C1    1.300800 A    
N3    O9    1.300381 A    
Zn1   N2    2.047622 S    
C26   N2    1.508053 S    
C26   H22   1.119057 S    
C27   C28   1.600356 S    
C17   C19   1.516686 S    
C30   C32   1.521002 S    
C29   C30   1.590869 S    
C27   N1    1.504284 S    
Zn2   N1    2.046714 S    
C35   O22   1.398172 S    
C17   C22   1.540417 S    
C19   H15   1.114442 S    
C34   O19   1.222544 D    
C25   N3    1.468985 S    
