data_mof_unit_13707.cif
_audit_creation_date              2012-12-11T16:26:35-0500
_audit_creation_method            fapswitch 2.2
_symmetry_space_group_name_H-M    P1
_symmetry_Int_Tables_number       1
_space_group_crystal_system       triclinic
_cell_length_a                    6.935077
_cell_length_b                    17.528219
_cell_length_c                    19.492022
_cell_angle_alpha                 108.657001
_cell_angle_beta                  89.488636
_cell_angle_gamma                 90.572292
_cell_volume                      2244.77568586

loop_
_atom_site_label
_atom_site_type_symbol
_atom_type_description
_atom_site_fract_x
_atom_site_fract_y
_atom_site_fract_z
_atom_type_partial_charge
O1    O     O_R   0.494330 0.415720 0.413720 -0.530056
O2    O     O_R   0.819330 0.430070 0.560210 -0.521400
O3    O     O_R   0.994320 0.584280 0.586280 -0.517110
C1    C     C_R   0.650430 0.416129 0.582844 0.719379
O4    O     O_R   0.823730 0.406300 0.412670 -0.557570
O5    O     O_R   0.998760 0.560340 0.437690 -0.527419
C2    C     C_R   0.655272 0.383951 0.384681 0.793667
O6    O     O_R   0.489890 0.439660 0.562310 -0.558148
O7    O     O_3   0.662340 0.550560 0.508380 -0.341461
V1    V     V_3+5 0.935370 0.490620 0.498450 1.572392
O8    O     O_R   0.328750 0.569930 0.439790 -0.482316
C3    C     C_R   0.161047 0.585000 0.418078 0.883833
O9    O     O_R   0.324340 0.593700 0.587330 -0.549759
C4    C     C_R   0.155262 0.617251 0.614487 0.820428
V2    V     V_3+5 0.435940 0.509380 0.501550 1.606666
O10   O     O_3   0.159100 0.449440 0.491620 -0.397533
H1    H     H_    0.934419 0.866511 0.570394 0.164198
C5    C     C_R   0.260164 0.598036 0.750562 -0.096751
C6    C     C_R   0.310366 0.586161 0.815428 -0.047387
C7    C     C_R   0.298543 0.649289 0.880175 -0.119740
C8    C     C_R   0.236350 0.724753 0.880546 -0.119458
C9    C     C_R   0.185419 0.738798 0.815460 0.072527
C10   C     C_R   0.197653 0.674209 0.749040 0.025756
C11   C     C_R   0.120186 0.815313 0.816039 -0.137924
C12   C     C_R   0.068033 0.827576 0.750186 0.011171
C13   C     C_R   0.081418 0.763306 0.683229 -0.051848
C14   C     C_R   0.145391 0.686154 0.682940 -0.177191
C15   C     C_R   0.005489 0.904081 0.749750 -0.156609
C16   C     C_R   0.956765 0.917350 0.685512 -0.232131
C17   C     C_R   0.970771 0.855387 0.620247 -0.130743
C18   C     C_R   0.032977 0.779335 0.618345 0.608046
C19   C     C_R   0.992514 0.629196 0.324261 -0.263686
C20   C     C_R   0.154046 0.634552 0.368845 -0.179735
C21   C     C_R   0.307854 0.686683 0.365435 0.646504
C22   C     C_R   0.299552 0.732961 0.318322 -0.133182
C23   C     C_R   0.137462 0.726403 0.273397 0.005929
C24   C     C_R   0.983921 0.674101 0.276317 0.128571
C25   C     C_R   0.450320 0.785943 0.315370 -0.204005
C26   C     C_R   0.442007 0.831373 0.268156 0.633684
C27   C     C_R   0.282183 0.824770 0.222735 -0.028134
C28   C     C_R   0.128727 0.772297 0.225520 -0.056146
C29   C     C_R   0.966512 0.765607 0.180555 0.074244
C30   C     C_R   0.815829 0.712477 0.183531 -0.114392
C31   C     C_R   0.824346 0.667343 0.230997 -0.185922
C32   C     C_R   0.272765 0.869859 0.174879 -0.180214
C33   C     C_R   0.111233 0.864449 0.130333 -0.220566
C34   C     C_R   0.957855 0.812032 0.133547 0.614726
H2    H     H_    0.390414 0.910342 0.172993 0.208330
C35   C     C_R   0.784081 0.182338 0.867037 -0.192428
C36   C     C_R   0.623114 0.133352 0.868139 -0.083876
C37   C     C_R   0.467149 0.131539 0.821823 -0.214986
C38   C     C_R   0.471374 0.177629 0.774698 0.119391
C39   C     C_R   0.631846 0.227796 0.774818 0.087678
C40   C     C_R   0.788078 0.230400 0.821473 0.008722
C41   C     C_R   0.317649 0.174536 0.727533 -0.203223
C42   C     C_R   0.321756 0.221302 0.681283 -0.084422
C43   C     C_R   0.479364 0.272242 0.681470 0.168105
C44   C     C_R   0.635834 0.275457 0.728316 -0.109304
C45   C     C_R   0.795831 0.326258 0.728870 -0.158584
C46   C     C_R   0.949123 0.329392 0.776897 0.671632
C47   C     C_R   0.944999 0.281607 0.822267 -0.296583
C48   C     C_R   0.483297 0.319517 0.635300 -0.241760
C49   C     C_R   0.643268 0.368887 0.634037 -0.225697
C50   C     C_R   0.798704 0.372460 0.681425 0.614985
H3    H     H_    0.343027 0.093430 0.821853 0.123666
H4    H     H_    0.193498 0.136195 0.726658 0.123920
H5    H     H_    0.200689 0.218036 0.645658 0.114205
C51   C     C_R   0.542189 0.408758 0.248287 0.564047
C52   C     C_R   0.480956 0.420213 0.184413 -0.173090
C53   C     C_R   0.463673 0.355382 0.121356 -0.212966
C54   C     C_R   0.508913 0.278254 0.121223 -0.151268
C55   C     C_R   0.569658 0.263876 0.185118 0.012873
C56   C     C_R   0.584707 0.330184 0.250567 -0.046503
C57   C     C_R   0.620572 0.185188 0.183768 -0.115775
C58   C     C_R   0.687299 0.172397 0.247756 -0.016971
C59   C     C_R   0.698208 0.237842 0.313577 0.060872
C60   C     C_R   0.645879 0.316541 0.315267 -0.159920
C61   C     C_R   0.741518 0.094678 0.247852 -0.241992
C62   C     C_R   0.807286 0.082100 0.310680 0.725001
C63   C     C_R   0.815252 0.145727 0.375121 -0.204543
C64   C     C_R   0.760012 0.222546 0.377014 -0.261456
H6    H     H_    0.766721 0.269513 0.428863 0.124111
O11   O     O_R   0.775200 0.060470 0.937800 -0.547877
O12   O     O_R   0.441110 0.093720 0.087350 -0.541177
O13   O     O_R   0.266330 0.939630 0.062280 -0.546668
C65   C     C_R   0.609773 0.116571 0.115087 0.687605
O14   O     O_R   0.445750 0.069950 0.939820 -0.548118
O15   O     O_R   0.271000 0.915700 0.913700 -0.540283
C66   C     C_R   0.614913 0.084703 0.917932 0.689133
O16   O     O_R   0.770530 0.084400 0.086380 -0.541757
O17   O     O_3   0.602830 0.949510 0.991680 -0.350454
V3    V     V_3+5 0.329710 0.009370 0.001550 1.437736
O18   O     O_R   0.940990 0.906170 0.912570 -0.535883
C67   C     C_R   0.110077 0.883163 0.885196 0.683517
O19   O     O_R   0.936350 0.929940 0.060100 -0.498836
C68   C     C_R   0.104130 0.914311 0.081339 0.763661
V4    V     V_3+5 0.829160 0.990450 0.998310 1.500783
O20   O     O_3   0.105910 0.050480 0.008320 -0.380754
F1    F     F_    0.463913 0.693743 0.408827 -0.658786
H7    H     H_    0.575976 0.792185 0.349409 0.217190
F2    F     F_    0.591083 0.881592 0.266780 -0.634812
F3    F     F_    0.801763 0.804962 0.090161 -0.690690
H8    H     H_    0.690005 0.706069 0.149553 0.166120
H9    H     H_    0.705317 0.627332 0.232475 0.144794
H10   H     H_    0.904286 0.184405 0.902790 0.127416
H11   H     H_    0.270410 0.546657 0.701868 0.140785
H12   H     H_    0.363445 0.316605 0.599187 0.161010
F4    F     F_    0.951039 0.422080 0.682048 -0.655709
F5    F     F_    0.104369 0.378218 0.780157 -0.650089
H13   H     H_    0.065459 0.284659 0.858122 0.159942
H14   H     H_    0.864189 0.135590 0.424062 0.148702
F6    F     F_    0.564586 0.475954 0.306370 -0.718041
H15   H     H_    0.448847 0.480274 0.183660 0.137599
H16   H     H_    0.417563 0.365060 0.071891 0.148857
H17   H     H_    0.497549 0.230357 0.070092 0.121038
H18   H     H_    0.358049 0.527529 0.815430 0.170747
H19   H     H_    0.733806 0.042708 0.199581 0.152361
F7    F     F_    0.863230 0.007642 0.309050 -0.630388
H20   H     H_    0.336940 0.639682 0.930483 0.132837
H21   H     H_    0.227646 0.771651 0.932449 0.108851
H22   H     H_    0.994494 0.954820 0.798931 0.121621
H23   H     H_    0.909317 0.976313 0.686350 0.149463
F8    F     F_    0.048083 0.723018 0.552144 -0.705883
H24   H     H_    0.874103 0.589016 0.326059 0.209064

loop_
_geom_bond_atom_site_label_1
_geom_bond_atom_site_label_2
_ccdc_geom_bond_type
C41   C42   A    
O18   C67   A    
C28   C29   A    
C19   H24   S    
O19   C68   A    
C1    O6    A    
V4    O20   S    
C31   H9    S    
V3    O20   S    
C43   C48   A    
C32   C33   A    
C53   H16   S    
C12   C15   A    
C1    C49   S    
C52   H15   S    
C13   C14   A    
C48   C49   A    
C15   C16   A    
O12   C65   A    
C5    C6    A    
C8    H21   S    
C51   F6    S    
C17   C18   A    
O13   C68   A    
C35   C40   A    
C62   F7    S    
C42   C43   A    
C21   C22   A    
C37   H3    S    
C46   F5    S    
O9    C4    A    
O8    V2    S    
C6    C7    A    
C51   C52   A    
C26   F2    S    
C53   C54   A    
O1    V2    S    
C10   C14   A    
C4    C14   S    
O7    V1    S    
O16   V4    S    
C38   C41   A    
C2    C60   S    
C13   C18   A    
C34   F3    S    
C8    C9    A    
H1    C17   S    
C23   C28   A    
C47   H13   S    
C12   C13   A    
O13   V3    S    
C50   F4    S    
C59   C60   A    
C27   C32   A    
O11   C66   A    
O15   C67   A    
C57   C58   A    
C5    C10   A    
O15   V3    S    
C61   H19   S    
C11   C12   A    
C25   H7    S    
C65   O16   A    
O17   V3    S    
O4    C2    A    
C15   H22   S    
C55   C56   A    
C35   H10   S    
C48   H12   S    
C36   C37   A    
C51   C56   A    
C39   C40   A    
C64   H6    S    
C37   C38   A    
C46   C47   A    
C22   C23   A    
O2    C1    A    
C58   C59   A    
C5    H11   S    
C16   C17   A    
C11   C67   S    
C36   C66   S    
O8    C3    A    
C16   H23   S    
C22   C25   A    
C21   F1    S    
C45   C50   A    
C54   H17   S    
C19   C24   A    
O17   V4    S    
O3    C4    A    
C55   C57   A    
C27   C28   A    
O6    V2    S    
O14   C66   A    
C30   C31   A    
C9    C11   A    
C62   C63   A    
C29   C30   A    
O2    V1    S    
O18   V4    S    
C26   C27   A    
C41   H4    S    
C38   C39   A    
C32   H2    S    
C33   C34   A    
C23   C24   A    
O1    C2    A    
C63   C64   A    
C59   C64   A    
O5    V1    S    
C39   C44   A    
O19   V4    S    
C40   C47   A    
C57   C65   S    
C42   H5    S    
C19   C20   A    
C24   C31   A    
O9    V2    S    
C44   C45   A    
C18   F8    S    
O4    V1    S    
O3    V1    S    
V1    O10   S    
O5    C3    A    
C61   C62   A    
C43   C44   A    
C25   C26   A    
C6    H18   S    
C63   H14   S    
C20   C21   A    
C29   C34   A    
O7    V2    S    
C52   C53   A    
C58   C61   A    
C30   H8    S    
C49   C50   A    
C45   C46   A    
C33   C68   S    
C7    C8    A    
C35   C36   A    
O11   V4    S    
C56   C60   A    
C9    C10   A    
O12   V3    S    
C54   C55   A    
C3    C20   S    
O14   V3    S    
C7    H20   S    
V2    O10   S    
