data_mof_unit_62755.cif
_audit_creation_date              2012-12-11T18:34:27-0500
_audit_creation_method            fapswitch 2.2
_symmetry_space_group_name_H-M    P1
_symmetry_Int_Tables_number       1
_space_group_crystal_system       triclinic
_cell_length_a                    8.268235
_cell_length_b                    14.296751
_cell_length_c                    22.859272
_cell_angle_alpha                 94.109318
_cell_angle_beta                  89.478603
_cell_angle_gamma                 92.018935
_cell_volume                      2693.49074378

loop_
_atom_site_label
_atom_site_type_symbol
_atom_type_description
_atom_site_fract_x
_atom_site_fract_y
_atom_site_fract_z
_atom_type_partial_charge
Ba1   Ba    Ba6+2 0.846250 0.544220 0.470860 1.724014
Ba2   Ba    Ba6+2 0.343570 0.455860 0.529140 1.696942
C1    C     C_3   0.647049 0.888522 0.327062 0.293102
C2    C     C_3   0.578335 0.792006 0.304350 0.785454
C3    C     C_3   0.559094 0.317892 0.348552 0.639328
C4    C     C_3   0.658438 0.303087 0.291968 -0.338947
C5    C     C_3   0.070312 0.237724 0.695424 0.333835
C6    C     C_3   0.094466 0.208089 0.757263 -0.353317
C7    C     C_3   0.541109 0.207593 0.675464 0.373322
C8    C     C_3   0.513820 0.119118 0.707981 -0.364911
C9    C     C_R   0.331861 0.534286 0.333031 -0.163223
C10   C     C_R   0.188537 0.507134 0.925678 -0.020480
C11   C     C_R   0.145754 0.499017 0.865579 0.590404
C12   C     C_3   0.145715 0.786432 0.304546 0.679145
C13   C     C_R   0.866739 0.476476 0.891924 0.594262
C14   C     C_R   0.909135 0.469383 0.951630 -0.168259
C15   C     C_R   0.069630 0.491402 0.968864 -0.089886
C16   C     C_R   0.348276 0.529690 0.943587 -0.038989
C17   C     C_R   0.389551 0.535247 0.002913 0.009338
C18   C     C_R   0.273042 0.517552 0.046367 -0.000316
C19   C     C_R   0.112013 0.497314 0.029414 -0.102659
C20   C     C_R   0.796431 0.440703 0.994840 0.386302
C21   C     C_R   0.837441 0.448594 0.054670 0.446075
C22   C     C_R   0.993921 0.482931 0.072861 -0.174871
C23   C     C_3   0.084732 0.776610 0.241753 -0.208623
C24   C     C_R   0.036096 0.503343 0.132912 0.588055
C25   C     C_R   0.315557 0.517612 0.106195 0.612219
C26   C     C_2   0.830990 0.411401 0.765832 -0.120824
C27   C     C_3   0.792772 0.395085 0.701389 -0.091560
C28   C     C_1   0.994940 0.521002 0.684481 0.046827
C29   C     C_2   0.016874 0.542077 0.741928 0.364390
C30   C     C_2   0.940507 0.478697 0.786205 0.134547
C31   C     C_R   0.383107 0.574063 0.233276 -0.052461
C32   C     C_R   0.432729 0.574175 0.291736 -0.024337
C33   C     C_R   0.190257 0.484740 0.315972 0.123562
C34   C     C_3   0.170433 0.747247 0.593199 0.514902
C35   C     C_R   0.149340 0.475057 0.255847 -0.078203
C36   C     C_R   0.241935 0.522208 0.213040 0.189415
C37   C     C_2   0.882648 0.460289 0.663048 -0.350592
C38   C     C_R   0.693054 0.935600 0.530504 -0.041698
C39   C     C_R   0.512316 0.800064 0.496414 0.053076
C40   C     C_R   0.374028 0.767301 0.465326 -0.220521
C41   C     C_R   0.275759 0.829201 0.438727 0.035936
C42   C     C_R   0.323900 0.923209 0.437664 -0.127737
C43   C     C_R   0.464620 0.957523 0.467056 0.006878
C44   C     C_R   0.558264 0.896932 0.498335 -0.032062
C45   C     C_3   0.187534 0.852011 0.611918 0.587348
C46   C     C_R   0.641296 0.091302 0.499319 -0.024724
C47   C     C_R   0.737224 0.031326 0.530005 0.002970
C48   C     C_R   0.683270 0.188116 0.500961 0.096767
C49   C     C_R   0.820844 0.223006 0.531247 -0.226635
C50   C     C_R   0.922960 0.162845 0.557151 -0.011562
C51   C     C_R   0.879299 0.067538 0.558133 -0.135705
C52   C     C_R   0.507578 0.052838 0.467519 -0.047305
C53   C     C_3   0.043057 0.244596 0.402015 0.650819
C54   C     C_3   0.152690 0.160260 0.396046 0.190516
C55   C     C_3   0.673902 0.662089 0.641478 0.317883
C56   C     C_3   0.678777 0.685347 0.707411 -0.333074
H1    H     H_    0.295224 0.862863 0.641150 -0.011857
H2    H     H_    0.069612 0.283827 0.444747 -0.002200
H3    H     H_    0.140802 0.121898 0.436472 0.062335
H4    H     H_    0.279595 0.184917 0.391438 0.067120
H5    H     H_    0.796230 0.643488 0.625774 -0.007540
H6    H     H_    0.588546 0.601229 0.632615 0.076864
H7    H     H_    0.703138 0.882668 0.370669 0.032911
H8    H     H_    0.771944 0.741669 0.718171 0.147156
H9    H     H_    0.708511 0.622198 0.730091 0.073404
H10   H     H_    0.558745 0.709187 0.723389 0.143934
H11   H     H_    0.546820 0.938458 0.332421 -0.011080
H12   H     H_    0.619674 0.236417 0.267294 0.101596
H13   H     H_    0.641536 0.362136 0.263809 0.113584
H14   H     H_    0.788699 0.299978 0.301816 0.120729
H15   H     H_    0.186425 0.759801 0.211185 0.091740
H16   H     H_    0.940132 0.227342 0.684930 -0.048100
H17   H     H_    0.014322 0.247983 0.788407 0.067427
H18   H     H_    0.064508 0.131983 0.758963 0.112126
H19   H     H_    0.673332 0.215440 0.667555 -0.099426
H20   H     H_    0.480248 0.198018 0.632271 0.087265
H21   H     H_    0.566157 0.058599 0.682099 0.072638
H22   H     H_    0.382853 0.103805 0.714470 0.144125
H23   H     H_    0.198519 0.718548 0.313818 -0.612383
H24   H     H_    0.573864 0.127880 0.751386 0.115692
H25   H     H_    0.513369 0.554440 0.014802 0.139600
H26   H     H_    0.457225 0.614098 0.204313 0.144557
H27   H     H_    0.441816 0.544046 0.911730 0.171048
H28   H     H_    0.778230 0.361686 0.794877 0.116051
H29   H     H_    0.047363 0.429055 0.242946 0.107092
H30   H     H_    0.369112 0.536421 0.378359 0.063068
H31   H     H_    0.239794 0.843828 0.308468 0.015339
H32   H     H_    0.856814 0.451880 0.616491 0.091781
H33   H     H_    0.247782 0.969915 0.416060 0.100858
H34   H     H_    0.957768 0.021727 0.579361 0.131114
H35   H     H_    0.855023 0.296743 0.530903 0.055823
H36   H     H_    0.765715 0.892505 0.556032 0.138748
H37   H     H_    0.434690 0.096487 0.442995 0.076020
H38   H     H_    0.991359 0.718907 0.236674 0.162208
H39   H     H_    0.288130 0.721925 0.576486 -0.175326
H40   H     H_    0.077636 0.735510 0.558486 0.031523
N1    N     N_R   0.984950 0.486328 0.848796 -0.429538
N2    N     N_R   0.197481 0.514423 0.150123 -0.428827
O1    O     O_2   0.901900 0.448470 0.362340 -0.478911
O2    O     O_3   0.623301 0.740733 0.614286 -0.631326
O3    O     O_3   0.017157 0.809678 0.342673 -0.554622
O4    O     O_2   0.287790 0.551560 0.637690 -0.444024
O5    O     O_3   0.047460 0.550640 0.566640 -0.522061
O6    O     O_3   0.544140 0.380990 0.608030 -0.490700
O7    O     O_3   0.124178 0.701033 0.642735 -0.608149
O8    O     O_3   0.640350 0.387150 0.474440 -0.481733
O9    O     O_3   0.136890 0.332750 0.580830 -0.483999
O10   O     O_2   0.257091 0.166261 0.547329 -0.504284
O11   O     O_3   0.163632 0.182505 0.655886 -0.605319
O12   O     O_3   0.142240 0.449440 0.433360 -0.492666
O13   O     O_3   0.549340 0.612930 0.525560 -0.493082
O14   O     O_2   0.396530 0.270940 0.479440 -0.482327
O15   O     O_3   0.571245 0.239189 0.381945 -0.639132
O16   O     O_2   0.475535 0.470506 0.710915 -0.423660
O17   O     O_3   0.478139 0.285370 0.708602 -0.577519
O18   O     O_2   0.252190 0.502608 0.828300 -0.539924
O19   O     O_2   0.724097 0.476979 0.878671 -0.583157
O20   O     O_2   0.928337 0.515114 0.169259 -0.556128
O21   O     O_2   0.458688 0.518599 0.118608 -0.538801
O22   O     O_3   0.645560 0.619080 0.391970 -0.488409
O23   O     O_2   0.767204 0.549869 0.291588 -0.437531
O24   O     O_3   0.068486 0.298980 0.353810 -0.655141
O25   O     O_3   0.704713 0.728349 0.296752 -0.577371
O26   O     O_2   0.793170 0.729090 0.520590 -0.469287
O27   O     O_3   0.052800 0.667320 0.419180 -0.453775
O28   O     O_2   0.941787 0.833714 0.453510 -0.466106
P1    P     P_3+3 0.074990 0.420800 0.372080 1.035481
P2    P     P_3+3 0.618830 0.715330 0.538180 0.988832
P3    P     P_3+3 0.073250 0.787784 0.413779 1.049177
P4    P     P_3+3 0.114710 0.579280 0.627920 1.050613
P5    P     P_3+3 0.119396 0.210653 0.584729 0.931816
P6    P     P_3+3 0.636312 0.617228 0.315806 1.027779
P7    P     P_3+3 0.576762 0.270551 0.457923 0.991775
P8    P     P_3+3 0.571793 0.386883 0.683749 1.002003
H41   H     H_    0.487553 0.771203 0.337712 -0.175386
O29   O     O_3   0.208992 0.903498 0.562518 -0.786015
H42   H     H_    0.249792 0.967061 0.576923 0.298970
O30   O     O_3   0.047363 0.880668 0.642298 -0.719502
H43   H     H_    0.075471 0.942088 0.663447 0.288605
O31   O     O_3   0.882882 0.211281 0.402280 -0.786589
H44   H     H_    0.858289 0.180474 0.362911 0.333194
O32   O     O_3   0.110305 0.098350 0.347729 -0.744291
H45   H     H_    0.152776 0.127229 0.312219 0.312443
O33   O     O_3   0.498899 0.798626 0.250842 -0.776469
H46   H     H_    0.583267 0.806265 0.220206 0.333160
O34   O     O_3   0.397357 0.328348 0.334240 -0.802140
H47   H     H_    0.360920 0.270973 0.310213 0.294452
H48   H     H_    0.605140 0.384372 0.371352 0.071607
O35   O     O_3   0.762872 0.921936 0.287860 -0.702075
H49   H     H_    0.804951 0.982985 0.306062 0.328171
H50   H     H_    0.108402 0.312986 0.694460 0.061762
H51   H     H_    0.221714 0.222576 0.771070 0.159041
O36   O     O_3   0.725910 0.413165 0.093314 -0.616963
H52   H     H_    0.784932 0.382903 0.123974 0.315105
O37   O     O_3   0.649914 0.396398 0.980145 -0.676213
H53   H     H_    0.664181 0.357472 0.942962 0.323447
O38   O     O_3   0.084557 0.629166 0.759597 -0.693408
H54   H     H_    0.061833 0.642032 0.801939 0.308979
H55   H     H_    0.336147 0.694115 0.465560 0.054219
H56   H     H_    0.031940 0.843149 0.230206 0.124218

loop_
_geom_bond_atom_site_label_1
_geom_bond_atom_site_label_2
_ccdc_geom_bond_type
O25   P6    S    
C53   C54   S    
Ba2   O9    S    
O37   H53   S    
C21   O36   S    
C7    O17   S    
C39   C40   A    
C17   C18   A    
C11   O18   D    
C25   O21   D    
C40   H55   S    
C5    C6    S    
C43   C44   A    
C42   C43   A    
C4    H14   S    
C55   O2    S    
C18   C25   A    
Ba2   O12   S    
C2    O25   S    
C3    C4    S    
C26   C27   S    
C1    H11   S    
C22   C24   A    
Ba1   Ba2   S    
Ba1   P1    S    
C48   P7    S    
Ba1   O12   S    
C28   C29   D    
Ba2   O13   S    
C28   P4    S    
O26   P2    D    
C13   C14   A    
C6    H18   S    
C34   C45   S    
C16   C17   A    
Ba1   O22   S    
O22   P6    S    
C2    H41   S    
C56   H8    S    
O38   H54   S    
C5    O11   S    
C14   C15   A    
C45   O30   S    
O24   P1    S    
Ba2   P4    S    
C39   C44   A    
C34   H39   S    
O12   P1    S    
C5    H16   S    
C6    H51   S    
C7    C8    S    
C9    H30   S    
C37   H32   S    
C46   C48   A    
O35   H49   S    
C53   O31   S    
C53   H2    S    
C3    O15   S    
C34   O7    S    
C50   P5    S    
C1    H7    S    
Ba1   O13   S    
C17   H25   S    
C55   H5    S    
O5    P4    S    
C55   C56   S    
C20   C21   A    
C4    H13   S    
C25   N2    Am   
C16   H27   S    
O13   P2    S    
O23   P6    D    
O9    P5    S    
C49   C50   A    
O2    P2    S    
C26   C30   D    
Ba1   O26   S    
O8    P7    S    
C36   N2    S    
Ba1   P2    S    
C13   N1    Am   
C8    H22   S    
O11   P5    S    
C48   C49   A    
C45   H1    S    
C8    H24   S    
C6    H17   S    
C15   C19   A    
C3    H48   S    
C11   N1    Am   
C46   C52   A    
C41   C42   A    
C12   H31   S    
C35   C36   A    
C24   N2    Am   
C29   C30   S    
C5    H50   S    
Ba2   O4    S    
C23   H56   S    
C21   C22   A    
C2    O33   S    
C27   C37   S    
C51   H34   S    
C31   C32   A    
C7    H19   S    
O30   H43   S    
C52   H37   S    
C42   H33   S    
C41   P3    S    
C49   H35   S    
C56   H10   S    
C46   C47   A    
O14   P7    D    
C43   C52   A    
C26   H28   S    
C54   H4    S    
C40   C41   A    
C38   C44   A    
C1    C2    S    
O28   P3    D    
Ba1   O1    S    
C50   C51   A    
C55   H6    S    
O33   H46   S    
C4    H12   S    
C33   P1    S    
C53   O24   S    
C14   C20   A    
C33   C35   A    
O31   H44   S    
C35   H29   S    
C9    C32   A    
Ba1   O27   S    
C38   H36   S    
O7    P4    S    
C8    H21   S    
O16   P8    D    
C20   O37   S    
Ba2   O5    S    
C1    O35   S    
C31   C36   A    
C30   N1    S    
O32   H45   S    
C9    C33   A    
C10   C15   A    
Ba2   O14   S    
C12   O3    S    
C39   P2    S    
O15   P7    S    
C47   C51   A    
C45   O29   S    
Ba2   O8    S    
C13   O19   D    
C28   C37   D    
C23   H15   S    
C7    H20   S    
C12   C23   S    
C31   H26   S    
O27   P3    S    
O29   H42   S    
Ba1   O8    S    
Ba2   O6    S    
C54   O32   S    
C56   H9    S    
C27   P8    S    
C18   C19   A    
C23   H38   S    
O4    P4    D    
C19   C22   A    
C10   C16   A    
O36   H52   S    
C3    O34   S    
C24   O20   D    
C32   P6    S    
C54   H3    S    
O10   P5    D    
C34   H40   S    
C12   H23   S    
C10   C11   A    
O17   P8    S    
O3    P3    S    
O34   H47   S    
C29   O38   S    
C38   C47   A    
Ba1   O5    S    
O6    P8    S    
O1    P1    D    
