data_mof_unit_5368.cif
_audit_creation_date              2012-12-10T18:58:08-0500
_audit_creation_method            fapswitch 2.2
_symmetry_space_group_name_H-M    P1
_symmetry_Int_Tables_number       1
_space_group_crystal_system       triclinic
_cell_length_a                    10.732203
_cell_length_b                    9.850749
_cell_length_c                    15.781235
_cell_angle_alpha                 89.789924
_cell_angle_beta                  90.490784
_cell_angle_gamma                 89.759874
_cell_volume                      1668.30862531

loop_
_atom_site_label
_atom_site_type_symbol
_atom_type_description
_atom_site_fract_x
_atom_site_fract_y
_atom_site_fract_z
_atom_type_partial_charge
C1    C     C_R   0.873683 0.500188 0.496984 -0.470260
C2    C     C_R   0.128860 0.500510 0.499269 -0.463008
C3    C     C_R   0.260501 0.500252 0.499302 0.943152
C4    C     C_R   0.740425 0.499868 0.498831 0.965682
C5    C     C_R   0.499188 0.500281 0.339362 0.864299
C6    C     C_R   0.499194 0.499719 0.660622 0.867818
C7    C     C_R   0.465776 0.621917 0.955409 0.356067
C8    C     C_R   0.502661 0.376843 0.044362 0.355553
C9    C     C_R   0.453130 0.619999 0.043117 0.360730
C10   C     C_R   0.489369 0.374164 0.956575 0.359105
C11   C     C_R   0.478328 0.497898 0.912551 -0.260794
C12   C     C_R   0.478913 0.498890 0.087201 -0.257949
C13   C     C_1   0.484644 0.497999 0.823514 0.066874
C14   C     C_1   0.485008 0.500707 0.176274 0.064039
C15   C     C_1   0.491889 0.500956 0.251104 -0.210526
C16   C     C_1   0.491716 0.498843 0.748779 -0.210634
C17   C     C_R   0.558077 0.071215 0.563397 -0.105461
C18   C     C_R   0.440705 0.928767 0.437083 -0.067117
C19   C     C_R   0.441045 0.072566 0.436968 -0.038382
C20   C     C_R   0.558817 0.927451 0.563110 -0.073672
C21   C     C_R   0.065310 0.390257 0.463488 0.336205
C22   C     C_R   0.938968 0.621264 0.514838 0.368167
C23   C     C_R   0.939605 0.380161 0.477629 0.376376
C24   C     C_R   0.064023 0.611547 0.533298 0.363066
H1    H     H_    0.604647 0.124989 0.614128 0.122681
H2    H     H_    0.393073 0.874988 0.386791 0.128986
H3    H     H_    0.394169 0.127525 0.386506 0.137514
H4    H     H_    0.606357 0.872650 0.613440 0.139663
N1    N     N_R   0.500000 0.857200 0.500000 -0.081187
N2    N     N_R   0.500000 0.142800 0.500000 -0.075772
O1    O     O_R   0.316770 0.614620 0.499990 -0.590229
O2    O     O_R   0.683230 0.385380 0.500010 -0.592170
O3    O     O_R   0.683230 0.614620 0.500010 -0.595574
O4    O     O_R   0.316770 0.385380 0.499990 -0.584682
O5    O     O_R   0.499980 0.614630 0.378020 -0.627372
O6    O     O_R   0.500020 0.385370 0.621980 -0.624215
O7    O     O_R   0.500020 0.614630 0.621980 -0.625451
O8    O     O_R   0.499980 0.385370 0.378020 -0.618804
Zn1   Zn    Zn3+2 0.500000 0.653120 0.500000 0.951246
Zn2   Zn    Zn3+2 0.500000 0.346880 0.500000 0.961174
O9    O     O_3   0.428840 0.740523 0.085073 -0.613390
C25   C     C_3   0.304028 0.742316 0.113878 0.110678
H5    H     H_    0.294757 0.830204 0.157354 0.167333
H6    H     H_    0.280610 0.650410 0.151673 0.120838
C26   C     C_3   0.210216 0.759853 0.040515 -0.348688
H7    H     H_    0.241765 0.842230 0.997902 0.267447
H8    H     H_    0.205159 0.664488 0.003255 0.213961
C27   C     C_3   0.080203 0.793682 0.072856 -0.999870
H9    H     H_    0.047706 0.713237 0.116856 0.268680
H10   H     H_    0.014241 0.800383 0.018445 0.277659
H11   H     H_    0.080711 0.892828 0.106183 0.269598
O10   O     O_3   0.501906 0.251502 0.914526 -0.622035
C28   C     C_3   0.384693 0.209221 0.882255 0.110727
H12   H     H_    0.402560 0.132025 0.832607 0.163547
H13   H     H_    0.331595 0.292917 0.850699 0.125740
C29   C     C_3   0.305016 0.144076 0.951510 -0.329063
H14   H     H_    0.357087 0.058116 0.981028 0.260093
H15   H     H_    0.284476 0.220033 0.001353 0.225743
C30   C     C_3   0.181619 0.092987 0.915089 -0.999292
H16   H     H_    0.198530 0.011816 0.867811 0.275451
H17   H     H_    0.129206 0.177569 0.884360 0.267759
H18   H     H_    0.123762 0.051152 0.966857 0.276728
O11   O     O_3   0.454158 0.744411 0.912289 -0.624442
C31   C     C_3   0.572165 0.787621 0.882976 0.103774
H19   H     H_    0.555463 0.863732 0.831947 0.159118
H20   H     H_    0.627462 0.704320 0.853972 0.129622
C32   C     C_3   0.648897 0.854756 0.953573 -0.315535
H21   H     H_    0.595874 0.941961 0.979730 0.258860
H22   H     H_    0.667005 0.780683 0.005506 0.225185
C33   C     C_3   0.774108 0.903732 0.920069 -1.004644
H23   H     H_    0.759681 0.983938 0.871252 0.275987
H24   H     H_    0.826956 0.817986 0.891986 0.266707
H25   H     H_    0.830473 0.946076 0.972885 0.278907
O12   O     O_3   0.527648 0.256635 0.087420 -0.618668
C34   C     C_3   0.653143 0.253978 0.116475 0.115100
H26   H     H_    0.662464 0.166743 0.160940 0.173772
H27   H     H_    0.678594 0.345945 0.153271 0.127373
C35   C     C_3   0.745603 0.234321 0.043779 -0.345096
H28   H     H_    0.713547 0.150318 0.002717 0.267545
H29   H     H_    0.749577 0.328283 0.004731 0.211195
C36   C     C_3   0.876413 0.202501 0.077341 -0.993767
H30   H     H_    0.876787 0.105668 0.113674 0.272413
H31   H     H_    0.909670 0.285699 0.119009 0.271734
H32   H     H_    0.941470 0.192360 0.023412 0.276198
O13   O     O_3   0.124696 0.287202 0.419796 -0.599040
C37   C     C_3   0.151971 0.332931 0.336739 0.127144
H33   H     H_    0.247296 0.376229 0.336209 0.147346
H34   H     H_    0.085411 0.412014 0.312525 0.097192
C38   C     C_3   0.146322 0.212758 0.275932 -0.335133
H35   H     H_    0.201347 0.126347 0.302212 0.222696
H36   H     H_    0.047809 0.180452 0.268894 0.233625
C39   C     C_3   0.196792 0.249681 0.188740 -0.979968
H37   H     H_    0.144750 0.337481 0.161498 0.259421
H38   H     H_    0.186103 0.161647 0.145555 0.274031
H39   H     H_    0.297226 0.275426 0.193487 0.293170
O14   O     O_3   0.883519 0.748459 0.517025 -0.609403
C40   C     C_3   0.865637 0.797129 0.432767 0.149038
H40   H     H_    0.805254 0.888779 0.436125 0.164476
H41   H     H_    0.815030 0.722783 0.392276 0.133696
C41   C     C_3   0.988294 0.836113 0.389359 -0.355978
H42   H     H_    0.040932 0.908472 0.429372 0.255590
H43   H     H_    0.047054 0.744413 0.379973 0.202777
C42   C     C_3   0.963313 0.899870 0.302599 -0.991954
H44   H     H_    0.911516 0.828045 0.261333 0.266277
H45   H     H_    0.053209 0.923953 0.271844 0.263095
H46   H     H_    0.908016 0.994731 0.309283 0.282745
O15   O     O_3   0.882893 0.256075 0.464171 -0.591809
C43   C     C_3   0.873812 0.185551 0.542559 0.125198
H47   H     H_    0.812760 0.096714 0.531404 0.164954
H48   H     H_    0.828170 0.248395 0.592096 0.121726
C44   C     C_3   0.000257 0.133409 0.576213 -0.339025
H49   H     H_    0.050763 0.079858 0.525253 0.266865
H50   H     H_    0.058206 0.219850 0.598042 0.208762
C45   C     C_3   0.983158 0.037272 0.651044 -0.943785
H51   H     H_    0.936894 0.090792 0.704119 0.249973
H52   H     H_    0.075598 0.999895 0.673305 0.277850
H53   H     H_    0.925442 0.949253 0.631750 0.299541
O16   O     O_3   0.122139 0.719897 0.573114 -0.595267
C46   C     C_3   0.164213 0.680767 0.655236 0.159696
H54   H     H_    0.230539 0.759649 0.677348 0.169972
H55   H     H_    0.217121 0.583383 0.655215 0.107089
C47   C     C_3   0.056940 0.671547 0.718822 -0.405458
H56   H     H_    0.001394 0.766603 0.717412 0.245633
H57   H     H_    0.994570 0.586078 0.701493 0.207205
C48   C     C_3   0.106321 0.648367 0.808820 -0.953358
H58   H     H_    0.161241 0.552600 0.812342 0.263038
H59   H     H_    0.027022 0.640889 0.853314 0.264448
H60   H     H_    0.166305 0.734381 0.828789 0.279798

loop_
_geom_bond_atom_site_label_1
_geom_bond_atom_site_label_2
_ccdc_geom_bond_type
O9    C25   S    
C28   H13   S    
C44   H49   S    
C18   H2    S    
C10   O10   S    
C40   C41   S    
C40   H40   S    
C28   H12   S    
C43   H47   S    
C7    C11   A    
O3    Zn1   S    
O4    Zn2   S    
C37   H34   S    
C28   C29   S    
C17   C20   A    
C29   H14   S    
C18   C19   A    
O16   C46   S    
C41   H42   S    
C36   H31   S    
C27   H11   S    
C6    O6    A    
C48   H60   S    
O15   C43   S    
C33   H23   S    
C29   H15   S    
C38   H36   S    
C19   H3    S    
C46   H55   S    
C1    C22   A    
C5    O8    A    
C17   N2    A    
C25   H6    S    
C2    C21   A    
C8    O12   S    
C40   H41   S    
C45   H51   S    
C20   N1    A    
C26   H8    S    
C21   O13   S    
C30   H17   S    
O12   C34   S    
C32   H21   S    
C31   C32   S    
O6    Zn2   S    
C44   H50   S    
C10   C11   A    
C37   H33   S    
C20   H4    S    
C3    O4    A    
O13   C37   S    
C41   C42   S    
C36   H30   S    
C32   H22   S    
C25   C26   S    
C31   H20   S    
C42   H46   S    
O5    Zn1   S    
C34   H26   S    
O1    Zn1   S    
C8    C12   A    
C23   O15   S    
O14   C40   S    
N1    Zn1   S    
C33   H25   S    
C39   H38   S    
C6    O7    A    
N2    Zn2   S    
C42   H45   S    
C18   N1    A    
C38   C39   S    
C3    O1    A    
C34   H27   S    
C7    O11   S    
C4    O2    A    
C27   H9    S    
C12   C14   S    
C1    C23   A    
O2    Zn2   S    
C21   C23   A    
C2    C24   A    
C48   H58   S    
C22   C24   A    
C25   H5    S    
C47   H57   S    
C36   H32   S    
O10   C28   S    
C41   H43   S    
C26   C27   S    
C7    C9    A    
C4    O3    A    
C30   H18   S    
C35   H28   S    
C22   O14   S    
C37   C38   S    
C45   H52   S    
C46   H54   S    
C43   C44   S    
C9    O9    S    
C24   O16   S    
C29   C30   S    
C32   C33   S    
C17   H1    S    
C31   H19   S    
C1    C4    S    
C47   C48   S    
C2    C3    S    
C38   H35   S    
O7    Zn1   S    
O8    Zn2   S    
C11   C13   S    
C35   C36   S    
C5    O5    A    
C27   H10   S    
C39   H37   S    
C46   C47   S    
C43   H48   S    
C44   C45   S    
C35   H29   S    
C39   H39   S    
C34   C35   S    
C5    C15   S    
C45   H53   S    
C9    C12   A    
C6    C16   S    
O11   C31   S    
C26   H7    S    
C30   H16   S    
C8    C10   A    
C13   C16   T    
C42   H44   S    
C48   H59   S    
C14   C15   T    
C33   H24   S    
C47   H56   S    
C19   N2    A    
