data_mof_unit_9549.cif
_audit_creation_date              2012-12-10T17:05:18-0500
_audit_creation_method            fapswitch 2.2
_symmetry_space_group_name_H-M    P1
_symmetry_Int_Tables_number       1
_space_group_crystal_system       triclinic
_cell_length_a                    10.171808
_cell_length_b                    10.740825
_cell_length_c                    15.401883
_cell_angle_alpha                 90.332823
_cell_angle_beta                  68.665269
_cell_angle_gamma                 89.872841
_cell_volume                      1567.3531609

loop_
_atom_site_label
_atom_site_type_symbol
_atom_type_description
_atom_site_fract_x
_atom_site_fract_y
_atom_site_fract_z
_atom_type_partial_charge
Br1   Br    Br    0.044153 0.442894 0.153071 -0.485260
Br2   Br    Br    0.922462 0.781478 0.042395 -0.292670
Br3   Br    Br    0.725674 0.123753 0.575814 -0.397086
Br4   Br    Br    0.299218 0.928016 0.601609 -0.417405
Br5   Br    Br    0.496405 0.307579 0.206610 -0.485468
Br6   Br    Br    0.818404 0.721164 0.263448 -0.401063
Br7   Br    Br    0.906412 0.686299 0.852110 -0.434420
Br8   Br    Br    0.621125 0.353491 0.763710 -0.413168
C1    C     C_R   0.497092 0.736540 0.504601 0.907160
C2    C     C_R   0.706427 0.598131 0.037894 -0.101074
C3    C     C_R   0.587609 0.522717 0.086799 -0.020531
C4    C     C_R   0.411699 0.492600 0.675441 0.918250
C5    C     C_R   0.782458 0.652890 0.090112 0.280986
C6    C     C_R   0.742609 0.624709 0.185762 0.215800
C7    C     C_R   0.576529 0.471606 0.172008 0.177138
C8    C     C_2   0.599802 0.063622 0.517135 0.354508
C9    C     C_2   0.511014 0.131353 0.489738 -0.324973
C10   C     C_2   0.603542 0.932250 0.501517 -0.267466
C11   C     C_2   0.484915 0.866179 0.525277 0.082849
C12   C     C_R   0.415276 0.483409 0.915200 0.011873
C13   C     C_2   0.094827 0.413619 0.460789 0.124255
C14   C     C_2   0.958648 0.434776 0.444708 0.028276
C15   C     C_R   0.501279 0.263046 0.499460 0.963077
C16   C     C_R   0.588753 0.505531 0.324878 0.966430
C17   C     C_R   0.358807 0.477412 0.776866 -0.134606
C18   C     C_R   0.643337 0.529719 0.225051 -0.212559
C19   C     C_R   0.170050 0.477177 0.929036 -0.068654
C20   C     C_R   0.214434 0.485477 0.831788 -0.158359
C21   C     C_R   0.455674 0.457745 0.820556 0.199336
C22   C     C_3   0.170259 0.289653 0.432136 -0.316970
C23   C     C_R   0.270903 0.476808 0.972049 0.048481
C24   C     C_3   0.111397 0.200898 0.377298 -0.808561
C25   C     C_3   0.855395 0.562337 0.582966 -0.183110
C26   C     C_3   0.876909 0.702745 0.567700 -0.785152
C27   C     C_R   0.515951 0.515043 0.954117 0.047843
C28   C     C_R   0.481706 0.501629 0.049815 0.084113
C29   C     C_R   0.339420 0.479628 0.107122 -0.170367
C30   C     C_R   0.233929 0.470795 0.069219 0.280084
C31   C     C_R   0.644653 0.570842 0.900490 -0.178217
C32   C     C_R   0.737507 0.615938 0.940939 0.319207
H1    H     H_    0.445344 0.087787 0.456126 0.166497
H2    H     H_    0.119579 0.242869 0.309775 0.284682
H3    H     H_    0.174307 0.113386 0.362045 0.279645
H4    H     H_    0.280617 0.308130 0.386860 0.272952
H5    H     H_    0.166697 0.240398 0.496125 0.251951
H6    H     H_    0.943593 0.724025 0.494400 0.255776
H7    H     H_    0.773825 0.750656 0.584481 0.274701
H8    H     H_    0.928032 0.740938 0.614669 0.275381
H9    H     H_    0.926640 0.519514 0.614098 0.176584
H10   H     H_    0.755251 0.550968 0.641024 0.241579
H11   H     H_    0.706935 0.889681 0.467820 0.197722
H12   H     H_    0.114681 0.587998 0.496419 0.196632
H13   H     H_    0.942013 0.385131 0.388240 0.172398
H14   H     H_    0.058045 0.477254 0.969640 0.201166
H15   H     H_    0.136476 0.494322 0.799588 0.210793
H16   H     H_    0.307393 0.478288 0.182248 0.196949
H17   H     H_    0.669418 0.588415 0.827099 0.181745
H18   H     H_    0.000140 0.176859 0.418398 0.284909
N1    N     N_2   0.148330 0.498670 0.499030 -0.225513
N2    N     N_2   0.852680 0.498640 0.499000 -0.071741
O1    O     O_R   0.386950 0.680940 0.500010 -0.584312
O2    O     O_R   0.613110 0.680900 0.499990 -0.616924
O3    O     O_R   0.322330 0.500030 0.632270 -0.596350
O4    O     O_R   0.548480 0.499990 0.632240 -0.605037
O5    O     O_R   0.386890 0.319100 0.500010 -0.643013
O6    O     O_R   0.613050 0.319060 0.499990 -0.565280
O7    O     O_R   0.451520 0.500010 0.367760 -0.616763
O8    O     O_R   0.677670 0.499970 0.367730 -0.564351
Zn1   Zn    Zn3+2 0.349000 0.500030 0.500020 0.985393
Zn2   Zn    Zn3+2 0.651000 0.499970 0.499980 1.029301

loop_
_geom_bond_atom_site_label_1
_geom_bond_atom_site_label_2
_ccdc_geom_bond_type
C27   C31   A    
Br7   C32   S    
C2    C5    A    
C29   C30   A    
C26   H6    S    
H12   N1    S    
O4    Zn2   S    
Br6   C6    S    
C13   C22   S    
C22   H5    S    
C27   C28   A    
C23   C30   A    
C24   H18   S    
C4    C17   S    
O8    Zn2   S    
C15   O5    A    
C25   C26   S    
C19   H14   S    
C29   H16   S    
C9    C15   S    
C5    C6    A    
C6    C18   A    
C17   C20   A    
C22   C24   S    
C25   N2    S    
C12   C27   A    
C22   H4    S    
N2    Zn2   S    
O6    Zn2   S    
C3    C7    A    
Br1   C30   S    
N1    Zn1   S    
C1    O1    A    
Br8   C21   S    
C15   O6    A    
C8    C10   S    
C28   C29   A    
C20   H15   S    
C16   C18   S    
C10   H11   S    
C13   N1    D    
C14   H13   S    
C9    H1    S    
C12   C21   A    
C14   N2    D    
C4    O4    A    
O5    Zn1   S    
Br5   C7    S    
C26   H8    S    
C2    C3    A    
C16   O8    A    
C19   C23   A    
C1    O2    A    
C31   H17   S    
C31   C32   A    
O2    Zn2   S    
C17   C21   A    
C2    C32   A    
C10   C11   D    
O1    Zn1   S    
C19   C20   A    
C4    O3    A    
Br2   C5    S    
C24   H2    S    
C3    C28   A    
C7    C18   A    
C26   H7    S    
C16   O7    A    
C25   H10   S    
C13   C14   S    
Br4   C11   S    
C25   H9    S    
C24   H3    S    
Br3   C8    S    
O3    Zn1   S    
C1    C11   S    
C8    C9    D    
O7    Zn1   S    
C12   C23   A    
