data_mof_unit_9574.cif
_audit_creation_date              2012-10-26T19:52:46-0400
_audit_creation_method            fapswitch 2.2
_symmetry_space_group_name_H-M    P1
_symmetry_Int_Tables_number       1
_space_group_crystal_system       triclinic
_cell_length_a                    14.999124
_cell_length_b                    10.859565
_cell_length_c                    9.632334
_cell_angle_alpha                 90.003529
_cell_angle_beta                  89.272072
_cell_angle_gamma                 91.718405
_cell_volume                      1568.12049025

loop_
_atom_site_label
_atom_site_type_symbol
_atom_type_description
_atom_site_fract_x
_atom_site_fract_y
_atom_site_fract_z
_atom_type_partial_charge
C1    C     C_R   0.502082 0.262963 0.500019 0.563754
C2    C     C_R   0.183630 0.414226 0.581019 -0.114490
C3    C     C_R   0.232351 0.498651 0.498801 0.021715
C4    C     C_R   0.329018 0.499501 0.500229 0.558970
C5    C     C_R   0.188894 0.578507 0.409784 -0.098388
C6    C     C_R   0.508050 0.061747 0.620988 0.027674
C7    C     C_R   0.506879 0.130237 0.499030 0.012071
C8    C     C_R   0.511123 0.064762 0.372517 -0.148526
C9    C     C_R   0.509990 0.935618 0.372017 -0.157244
C10   C     C_R   0.506820 0.869708 0.498281 0.014511
C11   C     C_R   0.508661 0.937435 0.620191 0.001218
C12   C     C_R   0.908953 0.575874 0.404623 0.014811
C13   C     C_3   0.508264 0.925600 0.774238 -0.270002
C14   C     C_3   0.506691 0.067589 0.776328 -0.047255
C15   C     C_R   0.559678 0.572589 0.072089 0.126360
C16   C     C_R   0.502137 0.736990 0.499803 0.540432
C17   C     C_R   0.435640 0.436894 0.075988 0.159529
C18   C     C_R   0.433663 0.440676 0.927858 0.164709
C19   C     C_R   0.560209 0.571519 0.925559 0.125803
C20   C     C_3   0.659273 0.565751 0.918323 -0.261875
C21   C     C_3   0.658920 0.567383 0.075796 -0.268904
C22   C     C_R   0.670949 0.499994 0.499246 0.536964
C23   C     C_R   0.948411 0.337227 0.673783 -0.122241
C24   C     C_R   0.815986 0.574939 0.404964 -0.134768
C25   C     C_R   0.767517 0.498694 0.497584 -0.005965
C26   C     C_R   0.811124 0.421027 0.588729 -0.134695
C27   C     C_R   0.903964 0.417890 0.586702 0.012452
C28   C     C_R   0.953156 0.496684 0.495463 0.062308
C29   C     C_2   0.588796 0.129894 0.835872 0.591152
C30   C     C_2   0.370215 0.354596 0.149158 0.636293
C31   C     C_2   0.354927 0.382991 0.861166 0.606372
C32   C     C_R   0.041337 0.334642 0.670850 -0.124272
C33   C     C_R   0.090747 0.414539 0.582949 0.011594
C34   C     C_R   0.046611 0.496391 0.495215 0.060677
C35   C     C_R   0.095926 0.577415 0.406650 0.018629
C36   C     C_R   0.051462 0.656066 0.317239 -0.118492
C37   C     C_R   0.958432 0.654765 0.315629 -0.126992
Cu1   Cu    Cu3+1 0.500000 0.499980 0.640670 1.014004
Cu2   Cu    Cu3+1 0.500000 0.500020 0.359330 0.992622
H1    H     H_    0.781244 0.635371 0.335802 0.109430
H2    H     H_    0.689828 0.653018 0.119363 0.122309
H3    H     H_    0.911296 0.275854 0.743582 0.130734
H4    H     H_    0.074587 0.271322 0.738440 0.116281
H5    H     H_    0.218218 0.346410 0.640096 0.145734
H6    H     H_    0.227583 0.641597 0.343791 0.129271
H7    H     H_    0.088621 0.718337 0.248511 0.122970
H8    H     H_    0.925176 0.715948 0.245553 0.115609
H9    H     H_    0.515184 0.112313 0.273981 0.204007
H10   H     H_    0.638332 0.253944 0.972710 0.323681
H11   H     H_    0.340340 0.183891 0.220812 0.327410
H12   H     H_    0.511278 0.888200 0.273111 0.146028
H13   H     H_    0.220266 0.368203 0.868424 0.325917
H14   H     H_    0.445571 0.880595 0.814359 0.133137
H15   H     H_    0.570673 0.885495 0.812811 0.159882
H16   H     H_    0.443305 0.101591 0.819993 0.175907
H17   H     H_    0.682592 0.477490 0.874447 0.159235
H18   H     H_    0.690561 0.650209 0.871284 0.135450
H19   H     H_    0.682455 0.480302 0.121449 0.159702
H20   H     H_    0.772583 0.361559 0.659024 0.137898
N1    N     N_R   0.500570 0.500930 0.147930 -0.274264
N2    N     N_R   0.500570 0.500890 0.852020 -0.260885
O1    O     O_R   0.500000 0.319640 0.618810 -0.456009
O2    O     O_R   0.579052 0.217489 0.940790 -0.687617
O3    O     O_2   0.294901 0.389562 0.173760 -0.493451
O4    O     O_R   0.391252 0.232512 0.174515 -0.700637
O5    O     O_2   0.361951 0.292370 0.787622 -0.534160
O6    O     O_R   0.270712 0.427563 0.893964 -0.686302
O7    O     O_R   0.500010 0.319680 0.381230 -0.484439
O8    O     O_R   0.370250 0.499950 0.618800 -0.479765
O9    O     O_R   0.370260 0.499990 0.381220 -0.479529
O10   O     O_R   0.499990 0.680320 0.618770 -0.506363
O11   O     O_R   0.500000 0.680360 0.381190 -0.517119
O12   O     O_R   0.629740 0.500010 0.618780 -0.512416
O13   O     O_R   0.629750 0.500050 0.381200 -0.513982
O14   O     O_2   0.663162 0.104655 0.792855 -0.534169

loop_
_geom_bond_atom_site_label_1
_geom_bond_atom_site_label_2
_ccdc_geom_bond_type
C31   O5    D    
C29   O2    S    
H10   O2    S    
C30   O3    D    
Cu2   O7    S    
C35   C36   A    
C9    H12   S    
C20   H17   S    
C1    O1    A    
C4    O9    A    
C7    C8    A    
C15   C19   A    
C26   C27   A    
C23   H3    S    
C12   C28   A    
C36   C37   A    
Cu1   Cu2   S    
C1    O7    A    
C34   C35   A    
C15   N1    A    
Cu2   O13   S    
C12   C37   A    
Cu2   O9    S    
C19   C20   S    
C2    H5    S    
C8    C9    A    
C22   C25   S    
C16   O11   A    
Cu2   O11   S    
C36   H7    S    
C23   C27   A    
C37   H8    S    
C9    C10   A    
Cu1   N2    S    
C14   H16   S    
Cu1   O8    S    
C28   C34   A    
C13   C14   S    
C17   C30   S    
C16   O10   A    
C4    O8    A    
C17   C18   A    
C13   H14   S    
C24   C25   A    
C6    C11   A    
C25   C26   A    
C5    H6    S    
C31   O6    S    
C8    H9    S    
C6    C14   S    
C33   C34   A    
H13   O6    S    
C21   H2    S    
C2    C33   A    
C22   O13   A    
C14   C29   S    
C3    C4    S    
C13   H15   S    
C26   H20   S    
Cu1   O10   S    
C1    C7    S    
C3    C5    A    
C18   N2    A    
C6    C7    A    
C29   O14   D    
C12   C24   A    
C23   C32   A    
C2    C3    A    
C21   H19   S    
C10   C16   S    
C32   C33   A    
C11   C13   S    
C19   N2    A    
Cu2   N1    S    
C5    C35   A    
C24   H1    S    
C32   H4    S    
H11   O4    S    
C30   O4    S    
C10   C11   A    
C17   N1    A    
C15   C21   S    
C20   C21   S    
C27   C28   A    
C18   C31   S    
C22   O12   A    
C20   H18   S    
Cu1   O1    S    
Cu1   O12   S    
