data_mof_unit_5374.cif
_audit_creation_date              2012-12-11T17:41:17-0500
_audit_creation_method            fapswitch 2.2
_symmetry_space_group_name_H-M    P1
_symmetry_Int_Tables_number       1
_space_group_crystal_system       triclinic
_cell_length_a                    15.523033
_cell_length_b                    15.012783
_cell_length_c                    15.049317
_cell_angle_alpha                 109.270267
_cell_angle_beta                  120.566143
_cell_angle_gamma                 58.785496
_cell_volume                      2572.09311708

loop_
_atom_site_label
_atom_site_type_symbol
_atom_type_description
_atom_site_fract_x
_atom_site_fract_y
_atom_site_fract_z
_atom_type_partial_charge
C1    C     C_R   0.776460 0.974187 0.787451 0.184952
C2    C     C_R   0.307296 0.305301 0.122173 -0.118706
C3    C     C_R   0.617450 0.687999 0.819416 -0.137694
C4    C     C_R   0.376136 0.200996 0.103511 -0.113744
C5    C     C_R   0.650208 0.742820 0.917412 0.103611
C6    C     C_R   0.330970 0.134444 0.026474 0.113802
C7    C     C_R   0.763140 0.704371 0.986437 -0.140486
C8    C     C_R   0.215443 0.174396 0.967621 -0.174229
C9    C     C_R   0.841506 0.613591 0.957422 -0.057392
C10   C     C_R   0.146797 0.278994 0.985991 -0.066634
C11   C     C_R   0.808059 0.560344 0.859565 -0.087688
C12   C     C_R   0.194333 0.074524 0.236294 0.148904
C13   C     C_R   0.192710 0.344387 0.063314 -0.048185
C14   C     C_R   0.569190 0.858109 0.044415 -0.237912
C15   C     C_R   0.398887 0.005270 0.902193 -0.233505
C16   C     C_R   0.244195 0.290049 0.491320 -0.062963
C17   C     C_R   0.800413 0.725165 0.558469 -0.102929
C18   C     C_R   0.491660 0.951312 0.072171 0.069385
C19   C     C_R   0.483115 0.919054 0.877701 0.062200
C20   C     C_R   0.405355 0.026303 0.000302 0.015791
C21   C     C_R   0.566677 0.840976 0.946433 0.028678
C22   C     C_2   0.150749 0.397732 0.614143 -0.209601
C23   C     C_R   0.212435 0.299706 0.566585 0.129657
C24   C     C_2   0.978118 0.652133 0.536829 -0.210483
C25   C     C_2   0.134265 0.489233 0.598948 -0.103275
C26   C     C_2   0.038618 0.583194 0.607560 -0.094877
C27   C     C_2   0.881134 0.085242 0.887869 -0.189224
C28   C     C_2   0.016642 0.056995 0.159916 -0.169139
C29   C     C_R   0.233119 0.778783 0.565671 -0.110411
C30   C     C_R   0.774547 0.123344 0.322329 -0.121462
C31   C     C_R   0.320822 0.698439 0.541388 -0.130081
C32   C     C_R   0.679408 0.212421 0.325610 -0.133900
C33   C     C_R   0.301679 0.656289 0.438267 0.101710
C34   C     C_R   0.862910 0.725344 0.517978 0.142664
C35   C     C_R   0.687931 0.293615 0.404812 0.115645
C36   C     C_R   0.192972 0.693227 0.360379 -0.171126
C37   C     C_R   0.793849 0.284557 0.480230 -0.173937
C38   C     C_R   0.105413 0.773433 0.385055 -0.126440
C39   C     C_R   0.888932 0.195506 0.476548 -0.096724
C40   C     C_R   0.591749 0.215900 0.485374 -0.128960
C41   C     C_R   0.406638 0.771261 0.445357 -0.114944
C42   C     C_R   0.125516 0.816359 0.487543 -0.113984
C43   C     C_R   0.879291 0.114919 0.397714 -0.099758
C44   C     C_R   0.394495 0.474138 0.385760 -0.246286
C45   C     C_R   0.499612 0.295217 0.425385 0.052072
C46   C     C_R   0.582467 0.486485 0.422465 -0.239336
C47   C     C_R   0.493039 0.383207 0.397362 0.044803
C48   C     C_R   0.490596 0.576751 0.431559 0.067415
C49   C     C_R   0.586470 0.388005 0.407975 0.029528
C50   C     C_R   0.394857 0.570329 0.412650 0.028634
C51   C     C_2   0.885876 0.087049 0.979357 -0.082183
C52   C     C_2   0.985435 0.085055 0.069039 -0.052547
C53   C     C_R   0.404338 0.984247 0.709922 -0.145126
C54   C     C_R   0.592628 0.955637 0.267555 -0.142382
C55   C     C_R   0.408642 0.284598 0.406178 -0.133017
C56   C     C_R   0.497115 0.675793 0.464084 0.040537
C57   C     C_R   0.591496 0.693122 0.528750 -0.130871
C58   C     C_R   0.587151 0.911827 0.787980 -0.091257
C59   C     C_R   0.407014 0.022912 0.195883 -0.091346
C60   C     C_R   0.242843 0.199628 0.583144 -0.145693
C61   C     C_R   0.801421 0.815077 0.467191 -0.147522
C62   C     C_R   0.766813 0.074826 0.696855 -0.177945
C63   C     C_R   0.194033 0.976193 0.318920 -0.186125
C64   C     C_R   0.808375 0.048453 0.794868 0.095400
C65   C     C_R   0.130677 0.035323 0.235264 0.102295
C66   C     C_R   0.492614 0.930773 0.792456 0.035438
C67   C     C_R   0.498569 0.969071 0.174697 0.032132
C68   C     C_R   0.696089 0.597516 0.790608 -0.114527
H1    H     H_    0.964590 0.039450 0.173145 0.137070
H2    H     H_    0.178863 0.124766 0.906981 0.110433
H3    H     H_    0.928327 0.584832 0.010649 0.106110
H4    H     H_    0.058016 0.309337 0.940353 0.107164
H5    H     H_    0.631828 0.799828 0.099511 0.131662
H6    H     H_    0.336007 0.066074 0.849827 0.128030
H7    H     H_    0.007865 0.585872 0.659415 0.135695
H8    H     H_    0.176758 0.492566 0.561786 0.130647
H9    H     H_    0.009922 0.648226 0.485135 0.140187
H10   H     H_    0.106982 0.395431 0.650707 0.130553
H11   H     H_    0.057647 0.878431 0.506462 0.103767
H12   H     H_    0.937736 0.102574 0.881689 0.132426
H13   H     H_    0.952936 0.046110 0.394914 0.098869
H14   H     H_    0.231917 0.351449 0.457884 0.100582
H15   H     H_    0.827458 0.674251 0.613043 0.096994
H16   H     H_    0.248563 0.811734 0.645083 0.111355
H17   H     H_    0.767034 0.061047 0.261114 0.109002
H18   H     H_    0.403691 0.669265 0.602447 0.105574
H19   H     H_    0.599100 0.218705 0.266345 0.103089
H20   H     H_    0.176496 0.660618 0.280708 0.122295
H21   H     H_    0.802825 0.345764 0.542482 0.104775
H22   H     H_    0.021966 0.802346 0.324738 0.109869
H23   H     H_    0.868919 0.490312 0.837186 0.093705
H24   H     H_    0.970119 0.188915 0.534938 0.101912
H25   H     H_    0.320936 0.472326 0.374673 0.129048
H26   H     H_    0.652949 0.492659 0.431123 0.131879
H27   H     H_    0.677790 0.194517 0.508761 0.111035
H28   H     H_    0.321287 0.788440 0.393946 0.122953
H29   H     H_    0.318467 0.001145 0.682706 0.092242
H30   H     H_    0.678018 0.919188 0.278585 0.099128
H31   H     H_    0.324602 0.321998 0.349649 0.124709
H32   H     H_    0.676658 0.635597 0.560025 0.096099
H33   H     H_    0.670027 0.861271 0.834929 0.150914
H34   H     H_    0.139534 0.425281 0.077581 0.100342
H35   H     H_    0.321096 0.045216 0.142013 0.132341
H36   H     H_    0.229765 0.179124 0.636286 0.097567
H37   H     H_    0.831796 0.846180 0.439507 0.093850
H38   H     H_    0.782012 0.125208 0.674802 0.113631
H39   H     H_    0.163398 0.948570 0.349810 0.115924
H40   H     H_    0.043803 0.090731 0.054251 0.150226
H41   H     H_    0.826700 0.073927 0.985761 0.153255
H42   H     H_    0.670158 0.556299 0.714763 0.110985
H43   H     H_    0.342871 0.356148 0.181309 0.118759
H44   H     H_    0.531036 0.715676 0.765251 0.106229
H45   H     H_    0.464718 0.171863 0.147689 0.102534
H46   H     H_    0.790908 0.745562 0.061894 0.110154
I1    I     I_    0.872498 0.852984 0.887548 -0.520368
I2    I     I_    0.133544 0.226297 0.196193 -0.523055
N1    N     N_R   0.705410 0.966550 0.689210 -0.062580
N2    N     N_R   0.556610 0.796750 0.548620 -0.037810
N3    N     N_R   0.556610 0.951620 0.703500 -0.043367
N4    N     N_R   0.443390 0.048380 0.296500 -0.035136
N5    N     N_R   0.294590 0.131500 0.522480 -0.043755
N6    N     N_R   0.705410 0.868500 0.477520 -0.042640
N7    N     N_R   0.705410 0.023370 0.632390 -0.052970
N8    N     N_R   0.294590 0.976630 0.367610 -0.052433
N9    N     N_R   0.294590 0.033450 0.310790 -0.059211
N10   N     N_R   0.294590 0.188320 0.465660 -0.037243
N11   N     N_R   0.705410 0.811680 0.534340 -0.043755
N12   N     N_R   0.556610 0.157790 0.497330 -0.042385
N13   N     N_R   0.443390 0.842210 0.502670 -0.043828
N14   N     N_R   0.443390 0.997080 0.657540 -0.040457
N15   N     N_R   0.556610 0.002920 0.342460 -0.040359
N16   N     N_R   0.443390 0.203250 0.451380 -0.038566
Ni1   Ni    Ni4+2 0.629830 0.882720 0.617850 0.235280
Ni2   Ni    Ni4+2 0.370170 0.117280 0.382150 0.246597
Ni3   Ni    Ni4+2 0.629830 0.013030 0.487540 0.212490
Ni4   Ni    Ni4+2 0.370170 0.986970 0.512460 0.211288

loop_
_geom_bond_atom_site_label_1
_geom_bond_atom_site_label_2
_ccdc_geom_bond_type
N9    Ni2   S    
C41   N13   A    
C63   C65   A    
C59   N4    A    
C29   C42   A    
N4    N15   A    
C14   C18   A    
C3    C68   A    
N1    Ni1   S    
C33   C36   A    
C63   N8    A    
C47   C49   A    
C36   H20   S    
C15   C19   A    
C54   N15   A    
C46   C49   A    
N3    Ni1   S    
C7    H46   S    
C35   C37   A    
C24   C26   D    
C38   C42   A    
N15   Ni3   S    
C41   H28   S    
C40   N12   A    
N3    N14   A    
C56   C57   A    
C19   C66   S    
C48   C56   S    
N6    N11   A    
C2    C13   A    
C62   C64   A    
C44   H25   S    
C59   C67   A    
C58   C66   A    
C28   H1    S    
C22   C25   D    
C35   C49   S    
C31   C33   A    
C61   H37   S    
N4    Ni2   S    
C44   C47   A    
C48   C50   A    
C42   H11   S    
C51   H41   S    
C31   H18   S    
C23   C60   A    
C15   C20   A    
N12   N16   A    
C62   N7    A    
C27   C51   D    
C45   C47   S    
C40   C45   A    
C37   C39   A    
C46   C48   A    
C2    H43   S    
N8    N9    A    
N8    Ni4   S    
C51   C52   S    
C14   H5    S    
C9    H3    S    
C4    H45   S    
C22   H10   S    
C29   H16   S    
C4    C6    A    
C27   H12   S    
N12   Ni3   S    
C5    C7    A    
C17   N11   A    
C39   C43   A    
C54   C67   A    
C53   H29   S    
C33   C50   S    
C57   H32   S    
C34   C61   A    
C24   C34   S    
N7    Ni3   S    
C61   N6    A    
C17   H15   S    
C2    C4    A    
C32   C35   A    
C41   C56   A    
N13   Ni4   S    
C46   H26   S    
C3    H44   S    
C16   H14   S    
C26   H7    S    
C58   H33   S    
C68   H42   S    
C30   H17   S    
C53   C66   A    
C9    C11   A    
C45   C55   A    
N2    Ni1   S    
C62   H38   S    
N16   Ni2   S    
C16   C23   A    
C43   H13   S    
C30   C43   A    
C17   C34   A    
C40   H27   S    
C63   H39   S    
C1    C64   A    
C39   H24   S    
C11   C68   A    
C14   C21   A    
C44   C50   A    
C7    C9    A    
C19   C21   A    
N14   Ni4   S    
N11   Ni1   S    
C3    C5    A    
C10   C13   A    
C6    C8    A    
C12   N9    A    
C6    C20   S    
C12   C65   A    
C38   H22   S    
C8    H2    S    
C37   H21   S    
C25   H8    S    
C59   H35   S    
C36   C38   A    
C28   C65   S    
C25   C26   S    
N5    N10   A    
C29   C31   A    
N2    N13   A    
C60   H36   S    
C30   C32   A    
C28   C52   D    
C58   N3    A    
C18   C20   A    
N5    Ni4   S    
N1    N7    A    
C60   N5    A    
N6    Ni3   S    
C27   C64   S    
C11   H23   S    
C24   H9    S    
C32   H19   S    
C15   H6    S    
C5    C21   S    
N10   Ni2   S    
C8    C10   A    
C55   N16   A    
C55   H31   S    
C18   C67   S    
C22   C23   S    
C54   H30   S    
C52   H40   S    
C53   N14   A    
C1    I1    S    
C13   H34   S    
C1    N1    A    
C16   N10   A    
C57   N2    A    
C12   I2    S    
C10   H4    S    
