data_mof_unit_60821.cif
_audit_creation_date              2012-12-10T19:37:01-0500
_audit_creation_method            fapswitch 2.2
_symmetry_space_group_name_H-M    P1
_symmetry_Int_Tables_number       1
_space_group_crystal_system       triclinic
_cell_length_a                    30.500229
_cell_length_b                    30.707946
_cell_length_c                    24.61663
_cell_angle_alpha                 89.560918
_cell_angle_beta                  127.92581
_cell_angle_gamma                 90.017273
_cell_volume                      18185.8600378

loop_
_atom_site_label
_atom_site_type_symbol
_atom_type_description
_atom_site_fract_x
_atom_site_fract_y
_atom_site_fract_z
_atom_type_partial_charge
C1    C     C_R   0.810510 0.809893 0.500839 0.893233
C2    C     C_R   0.534263 0.748635 0.069139 0.301094
C3    C     C_R   0.912777 0.099879 0.498664 -0.220770
C4    C     C_R   0.599031 0.595898 0.451492 0.001949
C5    C     C_R   0.407738 0.601203 0.552233 -0.011556
C6    C     C_R   0.098835 0.096026 0.451345 0.002985
C7    C     C_R   0.923643 0.113147 0.559852 0.169980
C8    C     C_3   0.618699 0.559203 0.431578 -0.257138
C9    C     C_3   0.432424 0.585401 0.623479 -0.295283
C10   C     C_3   0.118288 0.059351 0.431123 -0.256210
C11   C     C_3   0.937017 0.089154 0.621910 -0.264304
C12   C     C_3   0.659451 0.592063 0.437043 -0.117208
C13   C     C_R   0.962997 0.248894 0.929847 0.301735
C14   C     C_3   0.393761 0.619428 0.621814 -0.141801
C15   C     C_3   0.159036 0.092182 0.436530 -0.117079
C16   C     C_3   0.899052 0.122604 0.621702 -0.158036
C17   C     C_R   0.441487 0.561716 0.499686 0.828376
C18   C     C_R   0.559000 0.560884 0.499603 0.821442
C19   C     C_R   0.941411 0.061979 0.499641 0.838148
C20   C     C_R   0.058975 0.060919 0.499614 0.822887
C21   C     C_R   0.938980 0.941048 0.500275 0.859015
C22   C     C_R   0.060585 0.940608 0.499994 0.861728
C23   C     C_R   0.439007 0.441017 0.500265 0.855856
C24   C     C_R   0.033954 0.248768 0.069193 0.300897
C25   C     C_R   0.560599 0.440618 0.499995 0.858925
C26   C     C_R   0.816961 0.749681 0.634839 0.871802
C27   C     C_R   0.183124 0.749987 0.365143 0.868671
C28   C     C_R   0.316974 0.249686 0.634869 0.872077
C29   C     C_R   0.683183 0.249938 0.365180 0.875852
C30   C     C_R   0.609417 0.786997 0.251131 -0.005732
C31   C     C_R   0.376880 0.789935 0.746595 -0.016230
C32   C     C_R   0.109618 0.287158 0.251228 -0.005431
C33   C     C_R   0.877929 0.289932 0.746693 -0.015068
C34   C     C_R   0.573706 0.785679 0.179459 -0.181717
C35   C     C_R   0.867777 0.836778 0.470110 0.079590
C36   C     C_R   0.412694 0.788802 0.818346 -0.174864
C37   C     C_R   0.073810 0.285866 0.179559 -0.182304
C38   C     C_R   0.913569 0.288813 0.818449 -0.174940
C39   C     C_R   0.572168 0.749077 0.144692 0.061845
C40   C     C_R   0.425374 0.749238 0.854215 0.062003
C41   C     C_R   0.071977 0.249185 0.144728 0.062063
C42   C     C_R   0.924849 0.249459 0.854309 0.062278
C43   C     C_R   0.607260 0.713552 0.182471 -0.142525
C44   C     C_R   0.401068 0.710629 0.817471 -0.138951
C45   C     C_R   0.106897 0.213566 0.182417 -0.143346
C46   C     C_R   0.101457 0.838390 0.465283 0.058028
C47   C     C_R   0.899216 0.211085 0.817581 -0.134599
C48   C     C_R   0.643528 0.714682 0.254113 -0.181614
C49   C     C_R   0.364769 0.711543 0.745824 -0.170968
C50   C     C_R   0.143287 0.214677 0.254058 -0.182034
C51   C     C_R   0.863075 0.211997 0.745935 -0.175305
C52   C     C_1   0.609777 0.826411 0.283135 0.226621
C53   C     C_1   0.363706 0.831752 0.712312 0.195242
C54   C     C_1   0.110282 0.326645 0.283317 0.225832
C55   C     C_1   0.866234 0.331620 0.712492 0.198486
C56   C     C_1   0.788875 0.794209 0.716925 0.242489
C57   C     C_R   0.367939 0.336711 0.470324 0.080300
C58   C     C_1   0.210150 0.797497 0.283212 0.247185
C59   C     C_1   0.289522 0.295152 0.717009 0.243718
C60   C     C_1   0.715098 0.290337 0.284044 0.240999
C61   C     C_1   0.862744 0.788335 0.861660 0.213613
C62   C     C_1   0.137850 0.791654 0.138612 0.212663
C63   C     C_1   0.364025 0.290254 0.861847 0.214366
C64   C     C_1   0.641323 0.286543 0.139073 0.213552
C65   C     C_2   0.998683 0.705790 0.847776 0.429177
C66   C     C_2   0.004294 0.704359 0.151789 0.423093
C67   C     C_2   0.497891 0.204297 0.848020 0.430360
C68   C     C_R   0.601452 0.338443 0.465142 0.057676
C69   C     C_2   0.500492 0.211225 0.151453 0.423178
C70   C     C_1   0.661280 0.699955 0.593106 0.303829
C71   C     C_1   0.309312 0.687100 0.382612 0.284356
C72   C     C_1   0.161980 0.199715 0.593746 0.299128
C73   C     C_1   0.792529 0.175063 0.373792 0.280131
C74   C     C_2   0.582910 0.637858 0.582681 0.447415
C75   C     C_2   0.386032 0.627328 0.386690 0.461700
C76   C     C_2   0.083506 0.137726 0.583343 0.483202
C77   C     C_2   0.871569 0.120090 0.375460 0.472835
C78   C     C_2   0.572807 0.542759 0.360689 0.479407
C79   C     C_R   0.845809 0.842334 0.505030 -0.134948
C80   C     C_2   0.493938 0.594085 0.673350 0.523180
C81   C     C_2   0.072230 0.043031 0.360218 0.477953
C82   C     C_2   0.997796 0.090397 0.683682 0.481630
C83   C     C_2   0.719795 0.581179 0.494180 0.494862
C84   C     C_2   0.351223 0.599024 0.626505 0.444218
C85   C     C_2   0.219392 0.081187 0.493450 0.494733
C86   C     C_2   0.847735 0.103186 0.608372 0.448524
C87   C     C_1   0.649441 0.603668 0.371933 0.102155
C88   C     C_1   0.421455 0.657074 0.667878 0.088636
C89   C     C_1   0.148854 0.103870 0.371343 0.101140
C90   C     C_R   0.158309 0.843581 0.501623 -0.140442
C91   C     C_1   0.927353 0.153779 0.679152 0.106899
C92   C     C_2   0.898685 0.954080 0.581890 0.457254
C93   C     C_2   0.178117 0.959754 0.563923 0.447392
C94   C     C_2   0.398147 0.454337 0.581117 0.453927
C95   C     C_2   0.678235 0.459673 0.564272 0.448167
C96   C     C_1   0.837822 0.894573 0.344471 0.294797
C97   C     C_1   0.030114 0.843777 0.519424 0.210543
C98   C     C_1   0.338126 0.394287 0.344564 0.293604
C99   C     C_1   0.529974 0.343759 0.519072 0.209972
C100  C     C_1   0.780922 0.824761 0.351320 0.228422
C101  C     C_R   0.345819 0.342346 0.505052 -0.135390
C102  C     C_1   0.097127 0.776188 0.527178 0.278774
C103  C     C_1   0.281225 0.324510 0.351477 0.227723
C104  C     C_1   0.596883 0.276142 0.526702 0.279072
C105  C     C_R   0.190719 0.810023 0.501612 0.882033
C106  C     C_R   0.658326 0.343581 0.501641 -0.141175
C107  C     C_R   0.858733 0.879573 0.544743 -0.162949
C108  C     C_R   0.182664 0.884111 0.530891 -0.151789
C109  C     C_R   0.358538 0.379691 0.544500 -0.162990
C110  C     C_R   0.682730 0.384069 0.531076 -0.151850
C111  C     C_R   0.889093 0.913380 0.543747 -0.036420
C112  C     C_R   0.151334 0.917512 0.530790 -0.052929
C113  C     C_R   0.388861 0.413494 0.543423 -0.035210
C114  C     C_R   0.651403 0.417477 0.530969 -0.052438
C115  C     C_R   0.905783 0.908884 0.501544 -0.168722
C116  C     C_R   0.310525 0.309896 0.500868 0.893707
C117  C     C_R   0.094724 0.909454 0.499246 -0.150765
C118  C     C_R   0.405777 0.408872 0.501489 -0.170415
C119  C     C_R   0.594751 0.409468 0.499254 -0.150039
C120  C     C_R   0.896197 0.869948 0.467158 0.066816
C121  C     C_R   0.070003 0.871143 0.462961 0.097983
C122  C     C_R   0.396369 0.369864 0.467343 0.067557
C123  C     C_R   0.570009 0.371200 0.462834 0.098855
C124  C     C_3   0.873223 0.859547 0.394501 -0.272397
C125  C     C_3   0.030673 0.840080 0.460012 -0.294223
C126  C     C_3   0.373525 0.359335 0.394772 -0.271981
C127  C     C_R   0.690723 0.310022 0.501616 0.885711
C128  C     C_3   0.530591 0.340142 0.459695 -0.294702
C129  C     C_3   0.842224 0.821800 0.398511 -0.270966
C130  C     C_3   0.066586 0.803216 0.463791 -0.254505
C131  C     C_3   0.342528 0.321610 0.398823 -0.271036
C132  C     C_3   0.566472 0.303273 0.463425 -0.254520
C133  C     C_R   0.682812 0.750414 0.365241 0.871794
C134  C     C_R   0.316621 0.750325 0.634480 0.856187
C135  C     C_R   0.182826 0.250430 0.365247 0.871722
C136  C     C_R   0.816582 0.250378 0.634505 0.850466
C137  C     C_R   0.840792 0.770533 0.749689 -0.055801
C138  C     C_R   0.644782 0.751000 0.289380 -0.082826
C139  C     C_R   0.159278 0.772664 0.250355 -0.048427
C140  C     C_R   0.341260 0.271210 0.749785 -0.055072
C141  C     C_R   0.661385 0.269800 0.250704 -0.043013
C142  C     C_R   0.878204 0.768829 0.821886 -0.063714
C143  C     C_R   0.122620 0.770912 0.178169 -0.064735
C144  C     C_R   0.378843 0.269775 0.822002 -0.064246
C145  C     C_R   0.624441 0.268605 0.178482 -0.064145
C146  C     C_R   0.929945 0.747425 0.855482 0.002433
C147  C     C_R   0.071975 0.748185 0.144438 0.002844
C148  C     C_R   0.430165 0.247731 0.855610 0.002884
C149  C     C_R   0.353107 0.750876 0.709832 -0.066151
C150  C     C_R   0.571852 0.248979 0.144550 0.002897
C151  C     C_R   0.943961 0.726860 0.816766 -0.004291
C152  C     C_R   0.058191 0.726602 0.183041 -0.001764
C153  C     C_R   0.443691 0.226351 0.816935 -0.004366
C154  C     C_R   0.556215 0.230154 0.182956 -0.000322
C155  C     C_R   0.905457 0.727351 0.745122 -0.272868
C156  C     C_R   0.096038 0.727121 0.254711 -0.283208
C157  C     C_R   0.405170 0.226857 0.745268 -0.272444
C158  C     C_R   0.594067 0.230317 0.254658 -0.282481
C159  C     C_R   0.854441 0.749319 0.710852 -0.085585
C160  C     C_R   0.144792 0.251058 0.289395 -0.082596
C161  C     C_R   0.146091 0.750120 0.289108 -0.083496
C162  C     C_R   0.354504 0.249382 0.710939 -0.085724
C163  C     C_R   0.646136 0.250168 0.289199 -0.079715
C164  C     C_R   0.034408 0.747440 0.069244 0.367086
C165  C     C_R   0.968361 0.747085 0.930663 0.368463
C166  C     C_R   0.534381 0.248213 0.069353 0.367706
C167  C     C_R   0.468603 0.247490 0.930788 0.369406
C168  C     C_R   0.634581 0.625351 0.455668 0.033814
C169  C     C_R   0.373670 0.629790 0.550301 0.114899
C170  C     C_R   0.134384 0.125461 0.455474 0.032633
C171  C     C_R   0.852928 0.251050 0.709898 -0.066748
C172  C     C_R   0.889591 0.142256 0.559302 0.032080
C173  C     C_R   0.657863 0.658085 0.504509 -0.120636
C174  C     C_R   0.340974 0.658156 0.495764 -0.141990
C175  C     C_R   0.157902 0.158075 0.504522 -0.116530
C176  C     C_R   0.842901 0.158644 0.497617 -0.119283
C177  C     C_R   0.640428 0.663812 0.545796 -0.053706
C178  C     C_R   0.342796 0.656829 0.439764 -0.073014
C179  C     C_R   0.140765 0.163708 0.546128 -0.050103
C180  C     C_R   0.836687 0.152603 0.436485 -0.058556
C181  C     C_R   0.691129 0.690096 0.502702 0.875142
C182  C     C_R   0.463524 0.748702 0.929773 0.302173
C183  C     C_R   0.309879 0.690245 0.499814 0.891443
C184  C     C_R   0.191116 0.190095 0.502658 0.873756
C185  C     C_R   0.810343 0.190218 0.500495 0.874360
C186  C     C_R   0.604292 0.633002 0.542290 -0.068030
C187  C     C_R   0.378458 0.626359 0.441068 -0.064262
C188  C     C_R   0.104607 0.132931 0.542641 -0.097848
C189  C     C_R   0.873197 0.123856 0.437034 -0.074436
C190  C     C_R   0.587575 0.597052 0.497969 -0.152901
C191  C     C_R   0.410215 0.597007 0.498285 -0.192860
C192  C     C_R   0.087586 0.097094 0.498024 -0.150933
H1    H     H_    0.857974 0.789203 0.398355 0.159945
H2    H     H_    0.421395 0.550966 0.623957 0.195103
H3    H     H_    0.138578 0.032926 0.470653 0.185074
H4    H     H_    0.920547 0.055444 0.609410 0.162870
H5    H     H_    0.546840 0.813425 0.150744 0.158989
H6    H     H_    0.430873 0.818945 0.846161 0.161543
H7    H     H_    0.047078 0.313682 0.150894 0.158911
H8    H     H_    0.932756 0.318790 0.846286 0.161407
H9    H     H_    0.607111 0.685056 0.156713 0.162172
H10   H     H_    0.409854 0.679763 0.844020 0.158462
H11   H     H_    0.106524 0.185017 0.156582 0.161299
H12   H     H_    0.044600 0.783652 0.416009 0.151331
H13   H     H_    0.906880 0.180405 0.844148 0.156434
H14   H     H_    0.670365 0.686855 0.281995 0.178677
H15   H     H_    0.346739 0.681289 0.718389 0.156922
H16   H     H_    0.170003 0.186787 0.281887 0.178503
H17   H     H_    0.844043 0.181892 0.718556 0.148176
H18   H     H_    0.843261 0.882854 0.574100 0.200604
H19   H     H_    0.226432 0.889040 0.555886 0.207908
H20   H     H_    0.342912 0.383064 0.573673 0.200625
H21   H     H_    0.726529 0.388954 0.556202 0.207332
H22   H     H_    0.905684 0.848285 0.390636 0.138686
H23   H     H_    0.358361 0.289006 0.398857 0.159805
H24   H     H_    0.988673 0.841867 0.409547 0.148271
H25   H     H_    0.406049 0.348041 0.391055 0.138587
H26   H     H_    0.488627 0.342003 0.409195 0.148207
H27   H     H_    0.002967 0.683524 0.817225 0.070345
H28   H     H_    0.000676 0.681167 0.182345 0.067604
H29   H     H_    0.501877 0.182083 0.817155 0.070114
H30   H     H_    0.494696 0.190079 0.182112 0.066803
H31   H     H_    0.543848 0.622921 0.564489 0.038760
H32   H     H_    0.426274 0.619510 0.399903 0.055956
H33   H     H_    0.044426 0.122878 0.565242 0.072216
H34   H     H_    0.544502 0.283783 0.415569 0.150422
H35   H     H_    0.909946 0.115441 0.382235 0.063067
H36   H     H_    0.546556 0.565397 0.318156 0.082000
H37   H     H_    0.510572 0.625232 0.672856 0.085784
H38   H     H_    0.045952 0.065742 0.317810 0.080590
H39   H     H_    0.010458 0.078147 0.732901 0.066889
H40   H     H_    0.749116 0.578653 0.483136 0.061619
H41   H     H_    0.364326 0.586063 0.675597 0.077078
H42   H     H_    0.248598 0.078694 0.482218 0.061338
H43   H     H_    0.836360 0.111647 0.641008 0.058892
H44   H     H_    0.914720 0.982818 0.573909 0.055603
H45   H     H_    0.916393 0.711567 0.715645 0.164083
H46   H     H_    0.154280 0.986285 0.563060 0.074990
H47   H     H_    0.413900 0.483106 0.572731 0.063082
H48   H     H_    0.654407 0.486214 0.563407 0.074788
H49   H     H_    0.085329 0.710409 0.284045 0.161930
H50   H     H_    0.415768 0.210515 0.715820 0.164222
H51   H     H_    0.581945 0.215878 0.283949 0.159346
H52   H     H_    0.638975 0.532846 0.471222 0.184977
N1    N     N_R   0.521619 0.710888 0.034109 -0.163803
N2    N     N_R   0.018705 0.709174 0.035006 -0.110489
N3    N     N_R   0.486630 0.285712 0.964976 -0.147767
N4    N     N_R   0.516592 0.209887 0.035251 -0.110393
N5    N     N_R   0.016897 0.785421 0.033251 -0.150636
N6    N     N_R   0.985730 0.708994 0.966557 -0.109757
N7    N     N_R   0.519115 0.286066 0.033242 -0.149241
N8    N     N_R   0.483776 0.209543 0.966811 -0.110458
N9    N     N_1   0.610022 0.858030 0.308610 -0.165044
N10   N     N_1   0.353105 0.865245 0.684878 -0.155562
N11   N     N_1   0.110772 0.358322 0.308861 -0.166326
N12   N     N_R   0.486759 0.710914 0.965598 -0.162703
N13   N     N_1   0.856818 0.365015 0.685132 -0.155001
N14   N     N_1   0.747703 0.813329 0.691210 -0.155422
N15   N     N_1   0.250615 0.817363 0.309105 -0.165349
N16   N     N_1   0.248464 0.314448 0.691262 -0.154352
N17   N     N_1   0.757872 0.306710 0.310378 -0.168752
N18   N     N_1   0.850418 0.803833 0.893287 -0.138264
N19   N     N_1   0.149999 0.808139 0.107160 -0.140578
N20   N     N_1   0.352221 0.306527 0.893543 -0.135712
N21   N     N_1   0.654778 0.300797 0.107725 -0.137944
N22   N     N_1   0.677883 0.728774 0.630901 -0.151665
N23   N     N_R   0.020514 0.210944 0.034137 -0.165264
N24   N     N_1   0.282566 0.711152 0.336851 -0.170614
N25   N     N_1   0.178900 0.228428 0.631776 -0.149797
N26   N     N_1   0.757203 0.192712 0.323505 -0.178774
N27   N     N_1   0.641551 0.612703 0.320850 -0.197356
N28   N     N_1   0.443388 0.686602 0.703916 -0.169936
N29   N     N_1   0.140823 0.112961 0.320194 -0.198713
N30   N     N_1   0.949853 0.178193 0.724180 -0.162879
N31   N     N_1   0.810090 0.921978 0.305271 -0.166852
N32   N     N_1   0.029824 0.846659 0.566048 -0.176426
N33   N     N_1   0.310396 0.421633 0.305223 -0.170767
N34   N     N_R   0.985541 0.211000 0.965631 -0.164529
N35   N     N_1   0.529650 0.346576 0.565677 -0.173772
N36   N     N_1   0.732940 0.827257 0.314178 -0.201819
N37   N     N_1   0.121058 0.755023 0.576801 -0.184078
N38   N     N_1   0.233242 0.326958 0.314207 -0.202567
N39   N     N_1   0.620710 0.254899 0.576239 -0.185339
N40   N     N_R   0.476352 0.786353 0.964896 -0.164683
N41   N     N_R   0.510943 0.786305 0.033220 -0.163856
N42   N     N_R   0.976616 0.286620 0.964994 -0.164157
N43   N     N_R   0.011310 0.286543 0.033316 -0.163572
N44   N     N_R   0.984348 0.785245 0.965000 -0.150059
O1    O     O_R   0.821670 0.769930 0.500000 -0.620707
O2    O     O_R   0.074580 0.954200 0.557500 -0.622802
O3    O     O_R   0.425420 0.454200 0.442500 -0.612397
O4    O     O_R   0.574580 0.454200 0.557500 -0.621441
O5    O     O_R   0.982890 0.954220 0.557510 -0.622977
O6    O     O_R   0.017110 0.954220 0.442490 -0.589572
O7    O     O_R   0.482890 0.454220 0.557510 -0.610269
O8    O     O_R   0.517110 0.454220 0.442490 -0.590200
O9    O     O_R   0.769920 0.821660 0.500020 -0.612198
O10   O     O_R   0.230080 0.821660 0.499980 -0.617502
O11   O     O_R   0.269920 0.321660 0.500020 -0.612957
O12   O     O_R   0.178330 0.769930 0.500000 -0.622164
O13   O     O_R   0.730080 0.321660 0.499980 -0.616684
O14   O     O_R   0.724940 0.724130 0.398140 -0.623420
O15   O     O_R   0.275060 0.724130 0.601860 -0.612419
O16   O     O_R   0.224940 0.224130 0.398140 -0.623454
O17   O     O_R   0.775060 0.224130 0.601860 -0.624203
O18   O     O_R   0.673180 0.775850 0.398150 -0.609162
O19   O     O_R   0.326820 0.775850 0.601850 -0.609011
O20   O     O_R   0.173180 0.275850 0.398150 -0.609372
O21   O     O_R   0.826820 0.275850 0.601850 -0.607381
O22   O     O_R   0.730060 0.678320 0.499990 -0.617579
O23   O     O_R   0.321670 0.269930 0.500000 -0.620409
O24   O     O_R   0.269940 0.678320 0.500010 -0.566623
O25   O     O_R   0.230060 0.178320 0.499990 -0.617555
O26   O     O_R   0.769940 0.178320 0.500010 -0.599473
O27   O     O_R   0.678300 0.730040 0.500010 -0.624273
O28   O     O_R   0.321700 0.730040 0.499990 -0.626154
O29   O     O_R   0.178300 0.230040 0.500010 -0.624181
O30   O     O_R   0.821700 0.230040 0.499990 -0.617007
O31   O     O_R   0.826790 0.724120 0.601860 -0.617444
O32   O     O_R   0.173210 0.724120 0.398140 -0.623507
O33   O     O_R   0.326790 0.224120 0.601860 -0.617394
O34   O     O_R   0.678330 0.269930 0.500000 -0.620734
O35   O     O_R   0.673210 0.224120 0.398140 -0.620195
O36   O     O_R   0.775040 0.775850 0.601880 -0.617394
O37   O     O_R   0.224960 0.775850 0.398120 -0.615003
O38   O     O_R   0.275040 0.275850 0.601880 -0.617214
O39   O     O_R   0.724960 0.275850 0.398120 -0.614583
O40   O     O_R   0.425360 0.545810 0.442460 -0.623250
O41   O     O_R   0.574640 0.545810 0.557540 -0.617610
O42   O     O_R   0.925360 0.045810 0.442460 -0.627492
O43   O     O_R   0.074640 0.045810 0.557540 -0.613188
O44   O     O_2   0.039891 0.714071 0.906001 -0.538252
O45   O     O_R   0.482840 0.545830 0.557470 -0.611657
O46   O     O_2   0.962949 0.712709 0.093357 -0.539205
O47   O     O_2   0.539013 0.211583 0.906766 -0.537916
O48   O     O_2   0.460144 0.220093 0.092609 -0.539899
O49   O     O_2   0.608593 0.657745 0.636775 -0.542732
O50   O     O_2   0.347604 0.636120 0.326795 -0.539243
O51   O     O_2   0.109434 0.157472 0.637576 -0.510293
O52   O     O_2   0.827819 0.121508 0.317053 -0.538056
O53   O     O_2   0.564504 0.503722 0.350764 -0.550601
O54   O     O_2   0.525599 0.565908 0.714343 -0.534569
O55   O     O_2   0.063824 0.004012 0.350143 -0.550746
O56   O     O_R   0.517160 0.545830 0.442530 -0.616505
O57   O     O_2   0.032889 0.104736 0.679296 -0.515179
O58   O     O_2   0.736280 0.574659 0.553054 -0.528914
O59   O     O_2   0.302400 0.596535 0.576208 -0.528628
O60   O     O_2   0.236015 0.074546 0.552356 -0.528744
O61   O     O_2   0.818407 0.077938 0.560980 -0.531947
O62   O     O_2   0.888238 0.956148 0.622399 -0.553346
O63   O     O_2   0.227432 0.965629 0.592430 -0.523958
O64   O     O_2   0.387741 0.456498 0.621660 -0.555304
O65   O     O_2   0.727581 0.465502 0.592923 -0.524104
O66   O     O_R   0.982840 0.045830 0.557470 -0.604676
O67   O     O_R   0.017160 0.045830 0.442530 -0.617120
O68   O     O_R   0.925420 0.954200 0.442500 -0.609755
Zn1   Zn    Zn3+2 0.784540 0.715450 0.500000 0.980903
Zn2   Zn    Zn3+2 0.538410 0.500000 0.576790 1.048953
Zn3   Zn    Zn3+2 0.961590 1.000000 0.423210 1.023949
Zn4   Zn    Zn3+2 0.038410 1.000000 0.576790 1.027467
Zn5   Zn    Zn3+2 0.215460 0.715450 0.500000 1.026917
Zn6   Zn    Zn3+2 0.284540 0.215450 0.500000 0.980688
Zn7   Zn    Zn3+2 0.715460 0.215450 0.500000 0.998177
Zn8   Zn    Zn3+2 0.715430 0.784520 0.500010 1.021048
Zn9   Zn    Zn3+2 0.284570 0.784520 0.499990 1.020329
Zn10  Zn    Zn3+2 0.215430 0.284520 0.500010 1.020547
Zn11  Zn    Zn3+2 0.784570 0.284520 0.499990 1.021493
Zn12  Zn    Zn3+2 0.461590 0.500000 0.423210 1.025320

loop_
_geom_bond_atom_site_label_1
_geom_bond_atom_site_label_2
_ccdc_geom_bond_type
C33   C55   S    
C82   H39   S    
C30   C138  A    
O9    Zn8   S    
C133  O14   A    
C29   C163  S    
O31   Zn1   S    
C23   C118  S    
C17   O45   A    
O32   Zn5   S    
O17   Zn7   S    
C17   C191  S    
C68   C106  A    
O1    Zn1   S    
C165  N44   A    
N40   N41   A    
C154  C158  A    
C64   N21   T    
C3    C189  A    
C182  N40   A    
C83   H40   S    
C8    H52   S    
C127  O34   A    
C142  C146  A    
C19   O42   A    
C152  C156  A    
O39   Zn11  S    
C135  O20   A    
C63   C144  S    
C3    C19   S    
C151  C155  A    
C76   C188  S    
C141  C145  A    
C15   C85   S    
C28   O33   A    
C24   N43   A    
C7    C172  A    
C89   N29   T    
C24   C41   S    
O45   Zn2   S    
C25   C119  S    
C13   C42   S    
C47   H13   S    
C131  H23   S    
C184  O25   A    
C179  C188  A    
C2    C39   S    
C50   C160  A    
C74   H31   S    
C92   H44   S    
O68   Zn3   S    
C177  C186  A    
C4    C168  A    
C186  C190  A    
C52   N9    T    
C6    C10   S    
C60   C141  S    
C51   H17   S    
C136  C171  S    
C45   H11   S    
C1    O1    A    
C65   O44   D    
C24   N23   A    
O43   Zn4   S    
C1    C79   S    
C38   H8    S    
C59   N16   T    
C53   N10   T    
C128  H26   S    
O33   Zn6   S    
C18   C190  S    
C29   O35   A    
C102  C130  S    
C90   C105  S    
C98   N33   T    
C62   N19   T    
C175  C179  A    
C92   C111  S    
C99   C128  S    
C119  C123  A    
C69   C154  S    
C48   C138  A    
C147  C164  S    
C166  N4    A    
C14   C88   S    
C59   C140  S    
O66   Zn4   S    
C19   O66   A    
C66   O46   D    
C93   C112  S    
C94   H47   S    
C16   C91   S    
C148  C167  S    
C41   C45   A    
C31   C36   A    
C157  C162  A    
N4    N8    A    
O42   Zn3   S    
C50   H16   S    
O67   Zn3   S    
C137  C142  A    
O40   Zn12  S    
C71   N24   T    
C34   C39   A    
C135  O16   A    
C107  H18   S    
C66   C152  S    
C81   O55   D    
C45   C50   A    
C2    N1    A    
C23   O3    A    
C180  C189  A    
C104  N39   T    
C140  C162  A    
C150  C166  S    
O4    Zn2   S    
C118  C122  A    
C67   H29   S    
C139  C143  A    
O15   Zn5   S    
C183  O24   A    
C173  C177  A    
C110  C114  A    
C145  C150  A    
C95   H48   S    
C75   H32   S    
C44   H10   S    
C102  N37   T    
C35   C120  A    
C68   C123  A    
C94   C113  S    
C13   N34   A    
C70   N22   T    
C11   C82   S    
C30   C34   A    
C155  C159  A    
C165  N6    A    
C4    C190  A    
C21   O5    A    
C5    C191  A    
C17   O40   A    
C65   H27   S    
C69   O48   D    
C183  O28   A    
C134  C149  S    
O2    Zn4   S    
C167  N8    A    
C15   C170  S    
C65   C151  S    
C157  H50   S    
C121  C125  S    
C132  H34   S    
C15   C89   S    
C8    C12   S    
C32   C37   A    
C158  C163  A    
C2    N41   A    
C105  O12   A    
C146  C165  S    
C156  C161  A    
C72   N25   T    
C134  O15   A    
C6    C170  A    
C30   C52   S    
C76   H33   S    
C107  C111  A    
C91   N30   T    
C46   C130  S    
O5    Zn4   S    
C70   C177  S    
C84   O59   D    
N3    N7    A    
C57   C101  A    
N23   N34   A    
O27   Zn8   S    
C188  C192  A    
C77   C189  S    
C90   C108  A    
C27   C161  S    
C56   C137  S    
O35   Zn7   S    
C76   O51   D    
C35   C79   A    
C37   C41   A    
C133  O18   A    
C146  C151  A    
C116  O23   A    
C176  C180  A    
C67   O47   D    
C105  O10   A    
C21   O68   A    
C43   H9    S    
C33   C38   A    
O36   Zn8   S    
C181  O22   A    
C103  C131  S    
C172  C176  A    
C136  O21   A    
C44   C49   A    
O18   Zn8   S    
O22   Zn1   S    
C14   C84   S    
O34   Zn7   S    
C21   C115  S    
C92   O62   D    
C176  C185  S    
O8    Zn12  S    
C94   O64   D    
C185  O26   A    
C71   C178  S    
C1    O9    A    
O10   Zn9   S    
C36   H6    S    
C3    C7    A    
C73   N26   T    
C106  C110  A    
C112  C117  A    
C31   C149  A    
C95   C114  S    
C101  C109  A    
C68   C132  S    
C83   O58   D    
C66   H28   S    
C57   C122  A    
C73   C180  S    
O30   Zn11  S    
C116  O11   A    
N5    N44   A    
C95   O65   D    
O11   Zn10  S    
C174  C178  A    
C103  N38   T    
C144  C148  A    
C26   O36   A    
O25   Zn6   S    
C181  O27   A    
C173  C181  S    
C133  C138  S    
O19   Zn9   S    
C63   N20   T    
C16   C86   S    
C14   C169  S    
C23   O7    A    
C32   C54   S    
C40   C182  S    
C170  C175  A    
O14   Zn1   S    
C27   O32   A    
C137  C159  A    
C25   O4    A    
C85   H42   S    
C139  C161  A    
C11   H4    S    
C97   C125  S    
C100  C129  S    
C47   C51   A    
C108  C112  A    
C12   C83   S    
C55   N13   T    
C143  C147  A    
C9    C14   S    
C127  O13   A    
O6    Zn3   S    
C11   C16   S    
O20   Zn10  S    
C79   C107  A    
C26   C159  S    
C75   O50   D    
C178  C187  A    
C77   H35   S    
C81   H38   S    
C22   O6    A    
O7    Zn2   S    
C80   O54   D    
C135  C160  S    
C9    H2    S    
C75   C187  S    
C140  C144  A    
C5    C9    S    
C174  C183  S    
C20   C192  S    
O13   Zn11  S    
C38   C42   A    
C46   C90   A    
C10   C81   S    
C166  N7    A    
C27   O37   A    
C58   N15   T    
C67   C153  S    
C164  N5    A    
C93   O63   D    
C167  N3    A    
C106  C127  S    
C85   O60   D    
C124  C129  S    
C84   H41   S    
C158  H51   S    
C153  C157  A    
C97   N32   T    
C156  H49   S    
C13   N42   A    
C98   C126  S    
C155  H45   S    
C104  C132  S    
C6    C192  A    
C101  C116  S    
C5    C169  A    
C77   O52   D    
C18   O56   A    
C175  C184  S    
C74   C186  S    
C58   C139  S    
C22   C117  S    
C26   O31   A    
C86   O61   D    
C64   C145  S    
C54   N11   T    
C80   H37   S    
C4    C8    S    
C28   C162  S    
C124  H22   S    
O12   Zn5   S    
C7    C11   S    
C78   O53   D    
C61   N18   T    
O26   Zn7   S    
C18   O41   A    
C10   C15   S    
N42   N43   A    
C125  H24   S    
C74   O49   D    
O37   Zn9   S    
C69   H30   S    
C117  C121  A    
C184  O29   A    
O28   Zn9   S    
O38   Zn10  S    
C87   N27   T    
C136  O17   A    
C88   N28   T    
C28   O38   A    
C49   H15   S    
C62   C143  S    
C109  H20   S    
C164  N2    A    
C43   C48   A    
C35   C129  S    
C187  C191  A    
C126  H25   S    
C109  C113  A    
O21   Zn11  S    
C185  O30   A    
C100  N36   T    
C8    C78   S    
C20   O67   A    
C99   N35   T    
O29   Zn10  S    
C128  C132  S    
C78   H36   S    
C168  C173  A    
N1    N12   A    
O16   Zn6   S    
C96   C124  S    
O23   Zn6   S    
C36   C40   A    
C110  H21   S    
C39   C43   A    
C29   O39   A    
C9    C80   S    
C122  C126  S    
C169  C174  A    
C134  O19   A    
C16   C172  S    
C40   C44   A    
C93   H46   S    
C46   C121  A    
C31   C53   S    
C82   O57   D    
O41   Zn2   S    
C141  C163  A    
C25   O8    A    
C150  C154  A    
C108  H19   S    
C130  H12   S    
N2    N6    A    
C12   C87   S    
C60   N17   T    
C57   C131  S    
C56   N14   T    
C114  C119  A    
C12   C168  S    
C129  H1    S    
C86   H43   S    
C49   C149  A    
C51   C171  A    
C147  C152  A    
C10   H3    S    
C34   H5    S    
C123  C128  S    
C126  C131  S    
C42   C47   A    
C37   H7    S    
C22   O2    A    
O24   Zn5   S    
C125  C130  S    
C113  C118  A    
O56   Zn12  S    
C61   C142  S    
C115  C120  A    
C148  C153  A    
C48   H14   S    
C96   N31   T    
C111  C115  A    
C72   C179  S    
C182  N12   A    
O3    Zn12  S    
C120  C124  S    
C20   O43   A    
C32   C160  A    
C33   C171  A    
