data_mof_unit_63296.cif
_audit_creation_date              2013-03-05T15:55:26-0500
_audit_creation_method            fapswitch 2.2
_symmetry_space_group_name_H-M    P1
_symmetry_Int_Tables_number       1
_space_group_crystal_system       triclinic
_cell_length_a                    8.420015
_cell_length_b                    16.551202
_cell_length_c                    18.661231
_cell_angle_alpha                 96.807953
_cell_angle_beta                  92.166554
_cell_angle_gamma                 94.451921
_cell_volume                      2571.62238062

loop_
_atom_site_label
_atom_site_type_symbol
_atom_site_description
_atom_site_fract_x
_atom_site_fract_y
_atom_site_fract_z
_atom_type_partial_charge
P1    P     P_3+3 0.048660 0.430750 0.339650 0.553824
O1    O     O_2   0.875590 0.454550 0.328720 -0.309262
O2    O     O_3   0.127960 0.455900 0.416100 -0.329325
O3    O     O_3   0.634460 0.601950 0.371690 -0.308092
O4    O     O_2   0.776554 0.555937 0.253421 -0.263463
O5    O     O_3   0.014588 0.324495 0.335035 -0.578654
O6    O     O_3   0.619342 0.678167 0.240370 -0.500627
C1    C     C_3   0.532089 0.810963 0.241352 -0.001259
H1    H     H_    0.640710 0.825351 0.212811 0.200575
H2    H     H_    0.437014 0.791027 0.199382 0.185502
P2    P     P_3+3 0.638170 0.686040 0.555200 0.522955
P3    P     P_3+3 0.085242 0.749502 0.406529 0.624146
O7    O     O_2   0.810360 0.697790 0.534100 -0.351597
O8    O     O_3   0.049190 0.643760 0.407000 -0.240148
O9    O     O_2   0.975909 0.787445 0.463525 -0.324937
O10   O     O_3   0.642658 0.714346 0.648885 -0.680833
O11   O     O_3   0.000838 0.774525 0.325232 -0.503710
C2    C     C_3   0.113424 0.782296 0.272469 0.601507
H3    H     H_    0.222935 0.816704 0.297091 -0.001862
C3    C     C_3   0.044052 0.830491 0.213237 0.613516
C4    C     C_3   0.289195 0.717442 0.674683 0.830238
H4    H     H_    0.370372 0.682556 0.640950 0.102613
C5    C     C_3   0.350840 0.737332 0.753281 -0.702296
H5    H     H_    0.352254 0.680820 0.779733 0.249231
H6    H     H_    0.472838 0.768293 0.756271 0.228168
H7    H     H_    0.273116 0.779086 0.783553 0.274650
Ba1   Ba    Ba6+2 0.843980 0.537940 0.465850 1.746735
C6    C     C_3   0.129901 0.284573 0.294722 0.417211
H8    H     H_    0.245446 0.321895 0.297672 0.125493
C7    C     C_3   0.073405 0.264957 0.215127 -0.919240
H9    H     H_    0.971412 0.217858 0.208579 0.246645
H10   H     H_    0.171998 0.241552 0.182903 0.245998
H11   H     H_    0.034916 0.319859 0.193181 0.255112
C8    C     C_3   0.755674 0.679068 0.689230 0.681101
H12   H     H_    0.834624 0.641292 0.655765 0.066761
C9    C     C_3   0.851625 0.749189 0.737387 0.042502
H13   H     H_    0.934292 0.782745 0.704180 0.137049
H14   H     H_    0.769424 0.793196 0.761362 0.139470
P4    P     P_3+3 0.141040 0.569320 0.660360 0.511793
O12   O     O_2   0.314110 0.545480 0.671320 -0.356247
O13   O     O_3   0.061730 0.544170 0.583900 -0.357232
O14   O     O_3   0.555240 0.398120 0.628310 -0.394325
O15   O     O_3   0.137956 0.676179 0.671331 -0.588776
P5    P     P_3+3 0.103177 0.249012 0.582734 0.452457
O16   O     O_3   0.629280 0.402460 0.464250 -0.352204
O17   O     O_3   0.140510 0.356300 0.593010 -0.405200
O18   O     O_2   0.252441 0.211180 0.551968 -0.340673
O19   O     O_3   0.098897 0.217615 0.669265 -0.574890
Ba2   Ba    Ba6+2 0.345840 0.462130 0.534150 1.666668
P6    P     P_3+3 0.614577 0.585104 0.277178 0.658479
C10   C     C_3   0.554835 0.740275 0.285828 0.743765
H15   H     H_    0.439433 0.718437 0.306077 -0.006421
O20   O     O_3   0.560420 0.597610 0.535760 -0.302969
C11   C     C_3   0.635638 0.272496 0.298604 0.819180
H16   H     H_    0.747912 0.282523 0.331695 0.035672
C12   C     C_3   0.620312 0.184491 0.259078 -0.384759
H17   H     H_    0.705427 0.181667 0.214819 0.173545
P7    P     P_3+3 0.548906 0.302849 0.432678 0.504758
O21   O     O_2   0.379340 0.302240 0.465940 -0.313155
O22   O     O_3   0.501913 0.289750 0.339216 -0.604171
C13   C     C_3   0.141868 0.284886 0.721477 0.414301
H18   H     H_    0.259089 0.313974 0.710202 0.174081
H19   H     H_    0.053014 0.331030 0.721335 0.021631
C14   C     C_3   0.150107 0.256085 0.796316 -0.603005
H20   H     H_    0.027246 0.245200 0.815107 0.203550
H21   H     H_    0.207511 0.197665 0.793495 0.244230
P8    P     P_3+3 0.577276 0.399863 0.721696 0.537998
C15   C     C_3   0.581533 0.241881 0.691227 0.462299
O23   O     O_2   0.444775 0.450379 0.754777 -0.317024
O24   O     O_3   0.532469 0.301008 0.744845 -0.508598
H22   H     H_    0.540340 0.252541 0.635979 0.112153
H23   H     H_    0.542567 0.109809 0.663065 0.217682
C16   C     C_3   0.504184 0.158257 0.703623 -0.866647
H24   H     H_    0.372794 0.157437 0.697442 0.274116
H25   H     H_    0.537616 0.144262 0.758702 0.266086
N1    N     N_R   0.163106 0.552967 0.958005 -0.012356
N2    N     N_R   0.220892 0.555298 0.026050 0.026011
C17   C     C_2   0.326133 0.491941 0.291953 -0.373626
C18   C     C_3   0.453001 0.504941 0.238477 0.170708
C19   C     C_2   0.387609 0.515539 0.163386 0.381001
C20   C     C_2   0.227989 0.501759 0.146191 -0.084303
C21   C     C_2   0.118282 0.480318 0.204356 -0.208727
C22   C     C_1   0.174522 0.472637 0.270609 0.218934
N3    N     N_R   0.037959 0.447283 0.043858 -0.055673
N4    N     N_R   0.980846 0.444835 0.975864 -0.018439
C23   C     C_R   0.041023 0.497640 0.931138 0.238742
C24   C     C_R   0.160174 0.502212 0.070513 0.273140
C25   C     C_R   0.075680 0.525567 0.801480 -0.213716
C26   C     C_R   0.024849 0.517842 0.727803 0.289833
C27   C     C_R   0.777553 0.445202 0.755934 0.212101
C28   C     C_R   0.825653 0.454021 0.829916 0.395421
C29   C     C_R   0.979142 0.492492 0.853559 -0.112567
C30   C     C_R   0.879287 0.474757 0.705697 -0.501019
H26   H     H_    0.991442 0.468454 0.191055 0.206687
H27   H     H_    0.190677 0.557458 0.818057 0.186083
H28   H     H_    0.369472 0.479437 0.344694 0.197217
H29   H     H_    0.840154 0.468612 0.649287 0.182310
C31   C     C_R   0.393246 0.731363 0.463425 0.165208
C32   C     C_R   0.529443 0.759362 0.508212 0.230267
C33   C     C_R   0.572030 0.844675 0.522934 -0.122961
C34   C     C_R   0.480801 0.899897 0.490375 0.305842
C35   C     C_R   0.336153 0.870624 0.452781 -0.233194
C36   C     C_R   0.291059 0.786819 0.439845 0.067008
C37   C     C_R   0.612122 0.145573 0.469362 0.361795
C38   C     C_R   0.667416 0.228261 0.470942 0.081654
C39   C     C_R   0.712644 0.090956 0.498662 0.053957
N5    N     N_2   0.524087 0.985677 0.498313 -0.000433
N6    N     N_2   0.670181 0.005035 0.495813 -0.017991
C40   C     C_R   0.818015 0.257166 0.502069 -0.507848
H30   H     H_    0.258190 0.913408 0.433696 0.185201
C41   C     C_R   0.917484 0.204939 0.531029 0.277862
C42   C     C_R   0.865778 0.121619 0.528041 -0.347854
H31   H     H_    0.942640 0.080855 0.551000 0.195936
H32   H     H_    0.857900 0.321261 0.504662 0.191942
Cl1   Cl    Cl    0.686207 0.776788 0.360948 -0.562683
N7    N     N_3   0.156539 0.208591 0.324278 -0.181466
H33   H     H_    0.051372 0.170073 0.317912 0.108375
H34   H     H_    0.179572 0.222035 0.379913 0.193952
Cl2   Cl    Cl    0.646822 0.616797 0.744739 -0.601872
Cl3   Cl    Cl    0.961664 0.716074 0.810720 -0.548589
Cl4   Cl    Cl    0.491913 0.904637 0.293332 -0.644115
Cl5   Cl    Cl    0.647722 0.340655 0.231489 -0.657439
N8    N     N_3   0.459154 0.162933 0.226775 -0.154573
H35   H     H_    0.463879 0.114086 0.186049 0.174159
H36   H     H_    0.386665 0.141140 0.265644 0.213614
N9    N     N_3   0.662140 0.125563 0.307696 -0.169208
H37   H     H_    0.780349 0.139922 0.326910 0.084000
H38   H     H_    0.659197 0.068053 0.277390 0.215439
Cl6   Cl    Cl    0.192332 0.861209 0.154134 -0.524563
N10   N     N_3   0.243254 0.316575 0.847631 -0.129279
H39   H     H_    0.244025 0.294799 0.897988 0.182263
H40   H     H_    0.183714 0.369760 0.853275 0.136262
N11   N     N_3   0.754992 0.241240 0.696116 -0.188328
H41   H     H_    0.802216 0.288310 0.668624 0.043354
H42   H     H_    0.787699 0.187400 0.667532 0.129313
Cl7   Cl    Cl    0.158270 0.682964 0.233829 -0.610663
Cl8   Cl    Cl    0.528711 0.528930 0.097071 -0.472220
Cl9   Cl    Cl    0.687173 0.421194 0.891617 -0.514478
Cl10  Cl    Cl    0.422666 0.112098 0.426716 -0.625906
N12   N     N_3   0.699497 0.876754 0.574070 -0.196660
H43   H     H_    0.805054 0.852359 0.558444 0.193622
H44   H     H_    0.672117 0.860560 0.624836 0.150718
Cl11  Cl    Cl    0.349108 0.626678 0.436210 -0.568624
Cl12  Cl    Cl    0.894437 0.768535 0.156545 -0.427822
N13   N     N_3   0.976592 0.904564 0.245479 -0.193718
H45   H     H_    0.879993 0.889054 0.276060 0.172706
H46   H     H_    0.062828 0.938950 0.280740 0.115681
Cl13  Cl    Cl    0.270562 0.811016 0.638105 -0.719248

loop_
_geom_bond_atom_site_label_1
_geom_bond_atom_site_label_2
_geom_bond_distance
_ccdc_geom_bond_type
C34   N5    1.426969 S    
C34   C35   1.404815 A    
C21   H26   1.084726 S    
N1    C23   1.361104 A    
C31   Cl11  1.753652 S    
C16   H24   1.106826 S    
C3    Cl12  1.788650 S    
C41   C42   1.407539 A    
N3    C24   1.357112 A    
C3    Cl6   1.781076 S    
P6    C18   1.884450 S    
C37   C39   1.426003 A    
N13   H45   1.044298 S    
O2    Ba2   2.800081 S    
N8    H35   1.046136 S    
P4    O13   1.548894 S    
C39   C42   1.414099 A    
N4    C23   1.361386 A    
N7    H33   1.044564 S    
O17   Ba2   2.719052 S    
N9    H37   1.044892 S    
C6    H8    1.107125 S    
N12   H44   1.043845 S    
C2    H3    1.100042 S    
C40   C41   1.389117 A    
C7    H9    1.107107 S    
C1    Cl4   1.791317 S    
N8    H36   1.044075 S    
P7    O22   1.757945 S    
C31   C36   1.402189 A    
C12   H17   1.113008 S    
P2    C32   1.855748 S    
C8    H12   1.107317 S    
C5    H7    1.109326 S    
C13   H19   1.109987 S    
C42   H31   1.083029 S    
C33   N12   1.434715 S    
O10   C8    1.396289 S    
C4    O15   1.393134 S    
C17   C22   1.326059 D    
O5    C6    1.407920 S    
C25   C29   1.421860 A    
C17   H28   1.085135 S    
C1    H1    1.099967 S    
P3    O11   1.758225 S    
N5    N6    1.250883 D    
C37   Cl10  1.774064 S    
C2    Cl7   1.789256 S    
O1    Ba1   2.792045 S    
C12   N9    1.461979 S    
O8    Ba1   2.718246 S    
C6    N7    1.461141 S    
C2    C3    1.559440 S    
P2    O20   1.552347 S    
P5    O18   1.546851 D    
Ba1   O16   2.765474 S    
C15   N11   1.460866 S    
C11   Cl5   1.782808 S    
C25   H27   1.082197 S    
C4    H4    1.097498 S    
C16   H25   1.110869 S    
C13   H18   1.102806 S    
O13   Ba2   2.966766 S    
C37   C38   1.407530 A    
N13   H46   1.046455 S    
P5    O17   1.765476 S    
C20   C21   1.507865 S    
N1    N2    1.337680 A    
C11   C12   1.546379 S    
O16   P7    1.757731 S    
C10   H15   1.105996 S    
C12   N8    1.464250 S    
N12   H43   1.041825 S    
P3    C36   1.852717 S    
P4    O12   1.551442 D    
C17   C18   1.509673 S    
C19   C20   1.365199 D    
C11   O22   1.409545 S    
P7    O21   1.578011 D    
P8    C27   1.850268 S    
C10   Cl1   1.769768 S    
P1    O5    1.751138 S    
O3    P6    1.752229 S    
P1    O2    1.548700 S    
C14   H21   1.110733 S    
C13   C14   1.529092 S    
N10   H40   1.042999 S    
C4    Cl13  1.780295 S    
C28   Cl9   1.769734 S    
P2    O10   1.753693 S    
Ba1   O13   2.799399 S    
C19   Cl8   1.768452 S    
C32   C33   1.421214 A    
P3    O9    1.542262 D    
P2    Ba1   3.420622 S    
C5    H5    1.108789 S    
O16   Ba2   2.944226 S    
N3    N4    1.334739 A    
C1    C10   1.532097 S    
O12   Ba2   2.792598 S    
C20   C24   1.504238 S    
C40   H32   1.082512 S    
C15   O24   1.411168 S    
P4    Ba2   3.385207 S    
C14   N10   1.458944 S    
C21   C22   1.330904 D    
C4    C5    1.526616 S    
N11   H41   1.044196 S    
O4    P6    1.544944 D    
C35   H30   1.083281 S    
C27   C28   1.411452 A    
C9    H14   1.110927 S    
C30   H29   1.081767 S    
C28   C29   1.425791 A    
O3    Ba1   2.796313 S    
C27   C30   1.398678 A    
N11   H42   1.044487 S    
C8    Cl2   1.775830 S    
C38   C40   1.399459 A    
C11   H16   1.099888 S    
C9    H13   1.109569 S    
N9    H38   1.046016 S    
C7    H11   1.105612 S    
O6    P6    1.757631 S    
P3    O8    1.754040 S    
H23   C16   1.111373 S    
P4    O15   1.758515 S    
Ba1   O20   2.945168 S    
P1    C22   1.861353 S    
Ba2   O21   2.836810 S    
O11   C2    1.402257 S    
P7    C38   1.837381 S    
C14   H20   1.113139 S    
P8    O24   1.757867 S    
O2    Ba1   2.965831 S    
N10   H39   1.045575 S    
C15   C16   1.529932 S    
O6    C10   1.409294 S    
C23   C29   1.510456 S    
C7    H10   1.110523 S    
P2    O7    1.520675 D    
O19   C13   1.404838 S    
O14   P8    1.742136 S    
C39   N6    1.433426 S    
C15   H22   1.113542 S    
Ba2   O20   2.764859 S    
P1    O1    1.551144 D    
C6    C7    1.531733 S    
C33   C34   1.414208 A    
N7    H34   1.043235 S    
C8    C9    1.536088 S    
C5    H6    1.108180 S    
C26   C30   1.391847 A    
C35   C36   1.399401 A    
C9    Cl3   1.786733 S    
O14   Ba2   2.795668 S    
C18   C19   1.520681 S    
P5    C41   1.857355 S    
Ba1   Ba2   4.556069 S    
C25   C26   1.412533 A    
N2    C24   1.362717 A    
C1    H2    1.101575 S    
C31   C32   1.407694 A    
P1    Ba1   3.384504 S    
C3    N13   1.465196 S    
O7    Ba1   2.836670 S    
P8    O23   1.548997 D    
P4    C26   1.866810 S    
P5    O19   1.754783 S    
