data_mof_unit_17389.cif
_audit_creation_date              2012-10-26T20:00:55-0400
_audit_creation_method            fapswitch 2.2
_symmetry_space_group_name_H-M    P1
_symmetry_Int_Tables_number       1
_space_group_crystal_system       triclinic
_cell_length_a                    11.782813
_cell_length_b                    13.037933
_cell_length_c                    13.421026
_cell_angle_alpha                 93.377513
_cell_angle_beta                  77.031436
_cell_angle_gamma                 99.094406
_cell_volume                      1983.35010294

loop_
_atom_site_label
_atom_site_type_symbol
_atom_type_description
_atom_site_fract_x
_atom_site_fract_y
_atom_site_fract_z
_atom_type_partial_charge
C1    C     C_R   0.520395 0.700598 0.502895 0.620288
C2    C     C_R   0.400781 0.501416 0.808583 0.013896
C3    C     C_R   0.463483 0.185979 0.506168 -0.015703
C4    C     C_R   0.437485 0.500160 0.695933 0.601782
C5    C     C_R   0.533704 0.814440 0.504461 0.060792
C6    C     C_R   0.657509 0.983016 0.476661 0.011595
C7    C     C_R   0.645955 0.873973 0.473411 0.173718
C8    C     C_R   0.434296 0.863271 0.541080 0.173379
C9    C     C_R   0.440158 0.969565 0.522487 0.005447
C10   C     C_R   0.553625 0.029626 0.492510 -0.017644
C11   C     C_R   0.561429 0.135762 0.479370 -0.139345
C12   C     C_R   0.455078 0.514126 0.974465 -0.039017
C13   C     C_R   0.351940 0.127498 0.535545 -0.114575
C14   C     C_R   0.337669 0.018772 0.534158 0.003612
C15   C     C_R   0.953358 0.624076 0.570869 0.168391
C16   C     C_R   0.478372 0.299423 0.501107 0.516188
C17   C     C_R   0.831362 0.604879 0.567679 0.044339
C18   C     C_R   0.861008 0.455430 0.462363 0.159388
C19   C     C_R   0.985193 0.479952 0.454913 -0.034028
C20   C     C_R   0.028844 0.552473 0.522842 -0.020932
C21   C     C_R   0.147798 0.551875 0.535130 0.385330
C22   C     C_R   0.170836 0.412997 0.411818 0.126734
C23   C     C_R   0.478807 0.545740 0.871913 0.042367
C24   C     C_R   0.066178 0.428184 0.384984 0.177157
C25   C     C_R   0.563511 0.511088 0.304889 0.549154
C26   C     C_R   0.711081 0.660946 0.065181 -0.135260
C27   C     C_R   0.600845 0.542041 0.196939 0.060236
C28   C     C_R   0.289672 0.448069 0.853264 -0.134886
C29   C     C_R   0.256999 0.434018 0.958610 0.002812
C30   C     C_R   0.340267 0.464733 0.018300 -0.112424
C31   C     C_3   0.759468 0.689758 0.236047 -0.269636
C32   C     C_3   0.877984 0.653097 0.227731 -0.407682
C33   C     C_3   0.779175 0.047845 0.470494 -0.265750
C34   C     C_R   0.542184 0.541441 0.033167 -0.006381
C35   C     C_3   0.789192 0.102136 0.572994 -0.439543
C36   C     C_3   0.213930 0.959927 0.538623 -0.266194
C37   C     C_3   0.154511 0.996917 0.459654 -0.448533
C38   C     C_3   0.192615 0.300522 0.399983 -0.249348
C39   C     C_3   0.289259 0.276081 0.309209 -0.370533
C40   C     C_3   0.776206 0.723095 0.850095 -0.278037
C41   C     C_3   0.880632 0.663239 0.838767 -0.430764
C42   C     C_3   0.817620 0.344752 0.432457 -0.174863
C43   C     C_3   0.782198 0.332269 0.328298 -0.337360
C44   C     C_3   0.134242 0.383952 0.007227 -0.276641
C45   C     C_R   0.639283 0.618931 0.997571 -0.014228
C46   C     C_3   0.060358 0.465418 0.061329 -0.422301
C47   C     C_R   0.660111 0.656120 0.897035 0.012994
C48   C     C_R   0.574759 0.624875 0.837630 0.243692
C49   C     C_R   0.535819 0.493546 0.127041 0.215845
C50   C     C_R   0.689590 0.627515 0.165383 -0.052728
Cu1   Cu    Cu3+1 0.386470 0.492430 0.492410 1.018621
Cu2   Cu    Cu3+1 0.613530 0.507570 0.507590 0.964433
H1    H     H_    0.275230 0.166183 0.556699 0.116257
H2    H     H_    0.775335 0.773327 0.216670 0.120983
H3    H     H_    0.709271 0.686573 0.315816 0.214345
H4    H     H_    0.721465 0.153768 0.598786 0.151625
H5    H     H_    0.778661 0.043304 0.632275 0.163100
H6    H     H_    0.877467 0.149774 0.565489 0.116568
H7    H     H_    0.851864 0.000825 0.451727 0.159610
H8    H     H_    0.799342 0.104569 0.408325 0.115365
H9    H     H_    0.131202 0.075777 0.480000 0.129109
H10   H     H_    0.213317 0.997259 0.382319 0.157702
H11   H     H_    0.071646 0.943480 0.457563 0.156788
H12   H     H_    0.774495 0.659899 0.604074 0.178289
H13   H     H_    0.214701 0.876035 0.521177 0.237553
H14   H     H_    0.158631 0.969277 0.616428 0.142791
H15   H     H_    0.794557 0.857767 0.383311 0.302124
H16   H     H_    0.302542 0.856360 0.657333 0.321537
H17   H     H_    0.128568 0.620494 0.667818 0.333670
H18   H     H_    0.271735 0.298246 0.236344 0.151540
H19   H     H_    0.376824 0.314952 0.317012 0.244274
H20   H     H_    0.291832 0.191142 0.305138 0.112738
H21   H     H_    0.204310 0.274048 0.472755 0.148247
H22   H     H_    0.110932 0.248684 0.390188 0.118897
H23   H     H_    0.780577 0.725449 0.043408 0.123867
H24   H     H_    0.940313 0.762808 0.629505 0.315377
H25   H     H_    0.108150 0.366092 0.249204 0.321486
H26   H     H_    0.888145 0.633833 0.912386 0.142411
H27   H     H_    0.871176 0.595751 0.785295 0.165293
H28   H     H_    0.963831 0.715310 0.808466 0.173773
H29   H     H_    0.777779 0.748559 0.772591 0.145732
H30   H     H_    0.789498 0.795629 0.896317 0.123716
H31   H     H_    0.804075 0.257355 0.291132 0.110672
H32   H     H_    0.686886 0.330283 0.335017 0.167658
H33   H     H_    0.830181 0.395188 0.276208 0.183592
H34   H     H_    0.228186 0.417077 0.805964 0.121572
H35   H     H_    0.885924 0.294237 0.429196 0.132413
H36   H     H_    0.753741 0.308759 0.497772 0.136711
H37   H     H_    0.474098 0.355841 0.083738 0.320206
H38   H     H_    0.101241 0.507929 0.121703 0.176503
H39   H     H_    0.052165 0.521905 0.005429 0.146755
H40   H     H_    0.970809 0.426853 0.097444 0.153570
H41   H     H_    0.089661 0.342196 0.948590 0.136449
H42   H     H_    0.138475 0.325429 0.062709 0.139189
H43   H     H_    0.597974 0.753816 0.766266 0.310962
H44   H     H_    0.312575 0.453309 0.099861 0.161469
H45   H     H_    0.644054 0.180055 0.447143 0.117899
H46   H     H_    0.926630 0.700241 0.280762 0.156747
H47   H     H_    0.865171 0.570566 0.248647 0.178968
H48   H     H_    0.931632 0.662109 0.148491 0.135164
N1    N     N_R   0.215880 0.481050 0.481000 -0.238368
N2    N     N_R   0.784100 0.518950 0.519000 -0.258147
O1    O     O_R   0.419710 0.645650 0.494620 -0.416250
O2    O     O_3   0.338510 0.807734 0.604394 -0.645169
O3    O     O_3   0.193185 0.614412 0.607299 -0.572398
O4    O     O_3   0.001158 0.716347 0.611260 -0.726354
O5    O     O_3   0.036457 0.384096 0.296494 -0.756251
O6    O     O_3   0.475257 0.395317 0.149031 -0.761293
O7    O     O_3   0.575701 0.678798 0.751858 -0.697114
O8    O     O_R   0.611450 0.658430 0.507430 -0.461495
O9    O     O_R   0.357340 0.490460 0.641450 -0.477520
O10   O     O_R   0.549080 0.503250 0.654260 -0.461143
O11   O     O_R   0.388550 0.341570 0.492570 -0.534153
O12   O     O_R   0.580290 0.354350 0.505380 -0.528567
O13   O     O_R   0.450920 0.496750 0.345740 -0.482572
O14   O     O_R   0.642660 0.509540 0.358550 -0.532770
O15   O     O_3   0.743838 0.824453 0.445601 -0.719557

loop_
_geom_bond_atom_site_label_1
_geom_bond_atom_site_label_2
_ccdc_geom_bond_type
C40   C47   S    
C43   H31   S    
C7    O15   S    
C19   C20   A    
C17   N2    A    
C16   O11   A    
C41   H28   S    
C37   H10   S    
C12   C23   A    
Cu2   N2    S    
Cu1   O11   S    
C22   N1    A    
C35   H6    S    
C1    C5    S    
C15   O4    S    
C28   C29   A    
C26   C50   A    
C17   H12   S    
C14   C36   S    
C38   C39   S    
C36   H14   S    
C25   O13   A    
C46   H40   S    
Cu2   O10   S    
Cu1   O1    S    
C22   C38   S    
C18   C19   A    
C18   N2    A    
C30   H44   S    
C44   H41   S    
C26   C45   A    
C31   C32   S    
C8    C9    A    
Cu1   O9    S    
C39   H20   S    
C9    C10   A    
C1    O1    A    
C3    C13   A    
C27   C50   A    
C21   N1    A    
Cu2   O14   S    
C48   O7    S    
C4    O10   A    
C33   H7    S    
C13   C14   A    
C43   H32   S    
C37   H11   S    
C44   C46   S    
C49   O6    S    
C13   H1    S    
C45   C47   A    
C15   C20   A    
Cu1   Cu2   S    
C43   H33   S    
C40   H30   S    
H25   O5    S    
C3    C11   A    
H43   O7    S    
C25   O14   A    
C41   H26   S    
C34   C45   A    
H17   O3    S    
C36   H13   S    
C46   H39   S    
Cu1   O13   S    
C32   H48   S    
C2    C4    S    
C9    C14   A    
C6    C10   A    
C29   C30   A    
C1    O8    A    
C8    O2    S    
C47   C48   A    
Cu2   O8    S    
C26   H23   S    
C24   O5    S    
H15   O15   S    
C40   C41   S    
C4    O9    A    
C33   H8    S    
C29   C44   S    
C28   H34   S    
C25   C27   S    
C22   C24   A    
C42   H36   S    
C42   C43   S    
C31   C50   S    
C12   C34   A    
C5    C7    A    
C38   H22   S    
C15   C17   A    
C36   C37   S    
C34   C49   A    
H24   O4    S    
C23   C48   A    
C12   C30   A    
C35   H4    S    
C40   H29   S    
H16   O2    S    
C16   O12   A    
C41   H27   S    
C5    C8    A    
C37   H9    S    
C32   H47   S    
C6    C7    A    
C46   H38   S    
Cu2   O12   S    
Cu1   N1    S    
C6    C33   S    
C11   H45   S    
C35   H5    S    
C18   C42   S    
C19   C24   A    
H37   O6    S    
C33   C35   S    
C39   H18   S    
C32   H46   S    
C31   H2    S    
C44   H42   S    
C10   C11   A    
C20   C21   A    
C2    C23   A    
C39   H19   S    
C2    C28   A    
C42   H35   S    
C31   H3    S    
C21   O3    S    
C3    C16   S    
C27   C49   A    
C38   H21   S    
