data_mof_unit_46967.cif
_audit_creation_date              2012-12-10T18:03:35-0500
_audit_creation_method            fapswitch 2.2
_symmetry_space_group_name_H-M    P1
_symmetry_Int_Tables_number       1
_space_group_crystal_system       triclinic
_cell_length_a                    10.82431
_cell_length_b                    9.51627
_cell_length_c                    19.364974
_cell_angle_alpha                 90.432693
_cell_angle_beta                  90.196661
_cell_angle_gamma                 89.999163
_cell_volume                      1994.66034054

loop_
_atom_site_label
_atom_site_type_symbol
_atom_type_description
_atom_site_fract_x
_atom_site_fract_y
_atom_site_fract_z
_atom_type_partial_charge
C1    C     C_R   0.871795 0.500024 0.500302 0.030105
C2    C     C_R   0.128239 0.500027 0.500201 -0.015163
C3    C     C_R   0.484615 0.626661 0.963285 -0.081141
C4    C     C_R   0.475246 0.375019 0.036935 -0.083494
C5    C     C_R   0.485742 0.629849 0.035248 -0.075782
C6    C     C_R   0.475909 0.371731 0.964974 -0.072530
C7    C     C_R   0.480922 0.504033 0.072181 0.212405
C8    C     C_R   0.480468 0.497565 0.928000 0.208283
C9    C     C_R   0.262059 0.500013 0.500119 0.832557
C10   C     C_R   0.737943 0.500012 0.500193 0.903224
C11   C     C_R   0.497611 0.499434 0.367866 0.937342
C12   C     C_R   0.496908 0.500609 0.632150 0.923568
C13   C     C_R   0.063885 0.372317 0.499270 -0.152465
C14   C     C_R   0.936147 0.627737 0.501231 -0.168350
C15   C     C_R   0.936137 0.372314 0.499378 -0.145901
C16   C     C_R   0.063901 0.627738 0.501207 -0.167632
C17   C     C_R   0.594432 0.446964 0.745927 -0.155025
C18   C     C_R   0.600865 0.535358 0.254367 -0.157459
C19   C     C_R   0.381607 0.466664 0.257261 -0.163547
C20   C     C_R   0.386321 0.551145 0.742666 -0.158546
C21   C     C_R   0.587290 0.442545 0.818161 0.557660
C22   C     C_R   0.594034 0.540839 0.182117 0.558573
C23   C     C_R   0.378528 0.470719 0.184955 0.563249
C24   C     C_R   0.383038 0.547499 0.814940 0.561455
C25   C     C_R   0.483115 0.494549 0.852371 -0.214259
C26   C     C_R   0.484125 0.506766 0.147760 -0.219092
C27   C     C_R   0.420876 0.073769 0.458358 -0.006929
C28   C     C_R   0.579068 0.926209 0.541691 0.006352
C29   C     C_R   0.579082 0.075071 0.541690 -0.009920
C30   C     C_R   0.420866 0.924933 0.458360 -0.003205
C31   C     C_R   0.493537 0.502335 0.707819 -0.333274
C32   C     C_R   0.493994 0.497717 0.292245 -0.331976
Cu1   Cu    Cu3+1 0.500000 0.640660 0.500000 1.003000
Cu2   Cu    Cu3+1 0.500000 0.359340 0.500000 1.004346
H1    H     H_    0.357487 0.129309 0.425010 0.165813
H2    H     H_    0.642370 0.870588 0.575095 0.132100
H3    H     H_    0.642396 0.131714 0.575102 0.132104
H4    H     H_    0.357481 0.868309 0.424996 0.126953
H5    H     H_    0.111959 0.272483 0.498410 0.162460
H6    H     H_    0.888070 0.727569 0.501997 0.152955
H7    H     H_    0.888053 0.272481 0.498665 0.151920
H8    H     H_    0.111987 0.727570 0.501988 0.166621
H9    H     H_    0.488656 0.724379 0.935041 0.159566
H10   H     H_    0.471935 0.277301 0.065210 0.156628
H11   H     H_    0.490265 0.729920 0.062178 0.158097
H12   H     H_    0.472704 0.271563 0.938073 0.161240
N1    N     N_R   0.500000 0.852070 0.500000 -0.163347
N2    N     N_R   0.500000 0.147930 0.500000 -0.171270
O1    O     O_R   0.319640 0.618740 0.500000 -0.581516
O2    O     O_R   0.680360 0.381260 0.500000 -0.586788
O3    O     O_R   0.680360 0.618740 0.500000 -0.598770
O4    O     O_R   0.319640 0.381260 0.500000 -0.582264
O5    O     O_R   0.500020 0.618830 0.400190 -0.597280
O6    O     O_R   0.499980 0.381170 0.599810 -0.591591
O7    O     O_R   0.499980 0.618830 0.599810 -0.534531
O8    O     O_R   0.500020 0.381170 0.400190 -0.533963
C33   C     C_2   0.709435 0.396395 0.711916 0.932826
O9    O     O_2   0.749450 0.456039 0.660974 -0.642662
O10   O     O_R   0.773615 0.281798 0.739124 -0.670280
H13   H     H_    0.850526 0.257798 0.711712 0.337583
C34   C     C_2   0.721304 0.566028 0.288644 0.933622
O11   O     O_2   0.752604 0.501438 0.340135 -0.638259
O12   O     O_R   0.800561 0.666943 0.260994 -0.659772
H14   H     H_    0.879932 0.677455 0.288524 0.340570
C35   C     C_2   0.265226 0.433339 0.294469 0.904126
O13   O     O_2   0.266846 0.358727 0.345524 -0.630334
O14   O     O_R   0.152640 0.485581 0.269994 -0.665711
H15   H     H_    0.080030 0.456069 0.299501 0.342954
C36   C     C_2   0.274144 0.600733 0.705486 0.910770
O15   O     O_2   0.282926 0.680004 0.656411 -0.594398
O16   O     O_R   0.157308 0.558812 0.728056 -0.668055
H16   H     H_    0.088015 0.598982 0.698872 0.343487
F1    F     F_    0.684480 0.394382 0.855857 -0.586788
F2    F     F_    0.696101 0.572382 0.144529 -0.582983
F3    F     F_    0.272922 0.437652 0.150220 -0.586662
F4    F     F_    0.282416 0.596696 0.849361 -0.591600

loop_
_geom_bond_atom_site_label_1
_geom_bond_atom_site_label_2
_ccdc_geom_bond_type
C27   N2    A    
Cu1   O7    S    
C28   N1    A    
Cu2   O8    S    
C3    H9    S    
C7    C26   S    
C28   C29   A    
C33   O10   S    
C10   O3    A    
Cu1   O1    S    
C21   F1    S    
C30   H4    S    
C36   O16   S    
C23   C26   A    
C34   O12   S    
C2    C13   A    
C20   C24   A    
C35   O14   S    
C1    C15   A    
C2    C16   A    
C11   O5    A    
O10   H13   S    
C27   C30   A    
C8    C25   S    
C34   O11   D    
C9    O4    A    
C4    C7    A    
C19   C32   A    
Cu1   O5    S    
Cu2   O2    S    
C29   N2    A    
O14   H15   S    
C30   N1    A    
C9    O1    A    
C24   C25   A    
C15   H7    S    
C4    C6    A    
C3    C8    A    
C5    C7    A    
C24   F4    S    
C6    C8    A    
C4    H10   S    
C27   H1    S    
C5    H11   S    
C17   C21   A    
C19   C23   A    
Cu1   Cu2   S    
C11   C32   S    
Cu2   O6    S    
C13   C15   A    
C12   C31   S    
C17   C31   A    
C14   C16   A    
C20   C36   S    
Cu2   N2    S    
C22   F2    S    
C10   O2    A    
C16   H8    S    
C21   C25   A    
C6    H12   S    
C18   C22   A    
C1    C10   S    
C23   F3    S    
C3    C5    A    
C18   C34   S    
Cu1   O3    S    
Cu2   O4    S    
O16   H16   S    
C33   O9    D    
Cu1   N1    S    
C19   C35   S    
C36   O15   D    
C13   H5    S    
C12   O7    A    
C14   H6    S    
O12   H14   S    
C18   C32   A    
C28   H2    S    
C35   O13   D    
C22   C26   A    
C29   H3    S    
C1    C14   A    
C2    C9    S    
C12   O6    A    
C11   O8    A    
C17   C33   S    
C20   C31   A    
