data_mof_unit_61847.cif
_audit_creation_date              2013-03-05T16:10:52-0500
_audit_creation_method            fapswitch 2.2
_symmetry_space_group_name_H-M    P1
_symmetry_Int_Tables_number       1
_space_group_crystal_system       triclinic
_cell_length_a                    37.04781
_cell_length_b                    30.383703
_cell_length_c                    21.62501
_cell_angle_alpha                 90.005027
_cell_angle_beta                  55.06723
_cell_angle_gamma                 89.986654
_cell_volume                      19956.3185808

loop_
_atom_site_label
_atom_site_type_symbol
_atom_site_description
_atom_site_fract_x
_atom_site_fract_y
_atom_site_fract_z
_atom_type_partial_charge
O1    O     O_R   0.935720 0.537180 0.564270 -0.518103
O2    O     O_R   0.064280 0.537180 0.435730 -0.517706
O3    O     O_R   0.435720 0.037180 0.564270 -0.518882
O4    O     O_R   0.564280 0.037180 0.435730 -0.518068
O5    O     O_R   0.935680 0.462770 0.564310 -0.555838
O6    O     O_R   0.064320 0.462770 0.435690 -0.555512
O7    O     O_R   0.435680 0.962770 0.564310 -0.554386
O8    O     O_R   0.564320 0.962770 0.435690 -0.556039
C1    C     C_R   0.914714 0.499944 0.584995 0.873840
C2    C     C_R   0.085287 0.499929 0.415028 0.874679
C3    C     C_R   0.414706 0.999942 0.584939 0.874595
C4    C     C_R   0.585287 0.999929 0.415006 0.874813
O9    O     O_R   0.999990 0.537180 0.408860 -0.539764
O10   O     O_R   0.000010 0.537180 0.591140 -0.541835
O11   O     O_R   0.499990 0.037180 0.408860 -0.539296
O12   O     O_R   0.500010 0.037180 0.591140 -0.544426
O13   O     O_R   0.999950 0.462770 0.408890 -0.573738
O14   O     O_R   0.000050 0.462770 0.591110 -0.566166
O15   O     O_R   0.499950 0.962770 0.408890 -0.573850
O16   O     O_R   0.500050 0.962770 0.591110 -0.568794
C5    C     C_R   0.001285 0.499906 0.378652 0.843975
C6    C     C_R   0.998617 0.499909 0.621445 0.845405
C7    C     C_R   0.501325 0.999907 0.378615 0.844167
C8    C     C_R   0.499025 0.999948 0.621056 0.840878
Cu1   Cu    Cu3+1 0.000000 0.544030 0.500000 1.225275
Cu2   Cu    Cu3+1 0.500000 0.044030 0.500000 1.222915
Cu3   Cu    Cu3+1 0.000000 0.455920 0.500000 1.114841
Cu4   Cu    Cu3+1 0.500000 0.955920 0.500000 1.112272
C9    C     C_3   0.961492 0.525835 0.325264 -0.492711
C10   C     C_3   0.038712 0.525448 0.674389 -0.489941
C11   C     C_3   0.461351 0.025539 0.325424 -0.493360
C12   C     C_3   0.538662 0.026250 0.674642 -0.430988
H1    H     H_    0.959619 0.559537 0.346377 0.271377
H2    H     H_    0.040798 0.559200 0.653325 0.271081
H3    H     H_    0.459256 0.059234 0.346734 0.271381
H4    H     H_    0.541216 0.059189 0.650282 0.272660
H5    H     H_    0.931209 0.509541 0.372861 0.179527
H6    H     H_    0.068842 0.509044 0.626586 0.179448
H7    H     H_    0.431182 0.009055 0.372952 0.178768
H8    H     H_    0.569130 0.008875 0.629689 0.164660
C13   C     C_3   0.959571 0.525902 0.255553 -0.046195
C14   C     C_3   0.040856 0.525149 0.743859 -0.064283
C15   C     C_3   0.459412 0.025562 0.255735 -0.045974
C16   C     C_3   0.538778 0.029630 0.746115 -0.067376
H9    H     H_    0.930385 0.505639 0.271041 0.170600
H10   H     H_    0.069531 0.504052 0.728554 0.172492
H11   H     H_    0.430377 0.005073 0.271105 0.170666
H12   H     H_    0.569991 0.014125 0.731873 0.151578
C17   C     C_3   0.046264 0.524190 0.241784 0.300449
C18   C     C_3   0.954030 0.525054 0.758034 0.298222
C19   C     C_3   0.546134 0.024496 0.241878 0.300776
C20   C     C_3   0.454283 0.024716 0.757508 0.306475
C21   C     C_3   0.998223 0.452006 0.285185 -0.008291
C22   C     C_3   0.001412 0.452096 0.715598 -0.059534
C23   C     C_3   0.498600 0.951972 0.284832 -0.007826
C24   C     C_3   0.502417 0.952376 0.714373 -0.074314
C25   C     C_3   0.002918 0.500184 0.308001 -0.054560
C26   C     C_3   0.996990 0.500251 0.692094 -0.036200
C27   C     C_3   0.502958 0.000188 0.307963 -0.054324
C28   C     C_3   0.497475 0.000418 0.691613 -0.052436
H13   H     H_    0.964455 0.440982 0.331844 0.144514
H14   H     H_    0.035570 0.441410 0.670097 0.156162
H15   H     H_    0.464900 0.940724 0.331392 0.144796
H16   H     H_    0.535345 0.940459 0.666184 0.156647
C29   C     C_3   0.001512 0.502600 0.187035 -0.065996
C30   C     C_3   0.998457 0.502844 0.813000 -0.034723
C31   C     C_3   0.501522 0.002568 0.187026 -0.067587
C32   C     C_3   0.498665 0.003132 0.812733 -0.046092
C33   C     C_3   0.045571 0.524360 0.169278 0.100328
C34   C     C_3   0.954733 0.525208 0.830579 0.089212
C35   C     C_3   0.545421 0.024659 0.169391 0.099858
C36   C     C_3   0.453123 0.021222 0.831432 0.121607
C37   C     C_3   0.998295 0.453367 0.212878 -0.197194
C38   C     C_3   0.000083 0.453630 0.789224 -0.207358
C39   C     C_3   0.498694 0.953310 0.212496 -0.197155
C40   C     C_3   0.505281 0.954401 0.783845 -0.188127
H17   H     H_    0.965432 0.440626 0.230446 0.167728
H18   H     H_    0.031999 0.439621 0.774320 0.168814
H19   H     H_    0.465940 0.940310 0.229931 0.167437
H20   H     H_    0.539687 0.944956 0.762426 0.179559
H21   H     H_    0.072807 0.503238 0.126183 0.092139
H22   H     H_    0.927326 0.504320 0.874040 0.105283
H23   H     H_    0.572812 0.003745 0.126131 0.092220
H24   H     H_    0.428267 0.996237 0.868681 0.087818
C41   C     C_R   0.796332 0.466022 0.733189 0.225788
C42   C     C_R   0.203697 0.465869 0.267054 0.225531
C43   C     C_R   0.296248 0.965915 0.732642 0.225665
C44   C     C_R   0.703694 0.965986 0.266740 0.225481
C45   C     C_R   0.842542 0.464918 0.684738 0.211343
C46   C     C_R   0.157488 0.464769 0.315528 0.210531
C47   C     C_R   0.342454 0.964732 0.684113 0.210308
C48   C     C_R   0.657484 0.964866 0.315243 0.210620
C49   C     C_R   0.865926 0.499930 0.633517 -0.324024
C50   C     C_R   0.134079 0.499883 0.366541 -0.323501
C51   C     C_R   0.365903 0.999933 0.633376 -0.325959
C52   C     C_R   0.634079 0.999884 0.366488 -0.323619
C53   C     C_R   0.842348 0.535791 0.630956 0.280251
C54   C     C_R   0.157640 0.535816 0.368924 0.280602
C55   C     C_R   0.342364 0.035994 0.631238 0.279056
C56   C     C_R   0.657640 0.035740 0.369074 0.281224
C57   C     C_R   0.796139 0.536843 0.680034 0.038665
C58   C     C_R   0.203846 0.536859 0.319823 0.038837
C59   C     C_R   0.296159 0.037112 0.680390 0.038119
C60   C     C_R   0.703846 0.036811 0.319945 0.038678
C61   C     C_R   0.773415 0.502068 0.730539 -0.127396
C62   C     C_R   0.226589 0.502001 0.269490 -0.127021
C63   C     C_R   0.273383 0.002189 0.730502 -0.127039
C64   C     C_R   0.726591 0.002045 0.269383 -0.127201
C65   C     C_R   0.702326 0.527355 0.843946 -0.116967
C66   C     C_R   0.297645 0.527275 0.156063 -0.116996
C67   C     C_R   0.202267 0.027919 0.843429 -0.112810
C68   C     C_R   0.797681 0.027603 0.156309 -0.117710
H25   H     H_    0.720299 0.546626 0.860103 0.152361
H26   H     H_    0.279649 0.546518 0.139914 0.152524
H27   H     H_    0.220223 0.047529 0.859230 0.152632
H28   H     H_    0.779706 0.047080 0.140384 0.152289
C69   C     C_R   0.656265 0.527219 0.889884 0.129104
C70   C     C_R   0.343705 0.527160 0.110122 0.129155
C71   C     C_R   0.156203 0.027747 0.889378 0.124949
C72   C     C_R   0.843745 0.027484 0.110409 0.129667
C73   C     C_R   0.633086 0.502132 0.868381 -0.017023
C74   C     C_R   0.366914 0.502110 0.131620 -0.017113
C75   C     C_R   0.133056 0.002195 0.868359 -0.019558
C76   C     C_R   0.866924 0.002131 0.131614 -0.019225
C77   C     C_R   0.656360 0.478042 0.800870 -0.225097
C78   C     C_R   0.343670 0.478035 0.199124 -0.224725
C79   C     C_R   0.156333 0.977706 0.801292 -0.221335
C80   C     C_R   0.843662 0.977766 0.198800 -0.225859
H29   H     H_    0.639038 0.458668 0.783561 0.169930
H30   H     H_    0.361015 0.458688 0.216427 0.170118
H31   H     H_    0.139014 0.957986 0.784366 0.170280
H32   H     H_    0.860996 0.958191 0.215869 0.169489
C81   C     C_R   0.702190 0.477921 0.756032 -0.104334
C82   C     C_R   0.297841 0.477896 0.243967 -0.104031
C83   C     C_R   0.202159 0.977631 0.756437 -0.103582
C84   C     C_R   0.797832 0.977633 0.243601 -0.103234
H33   H     H_    0.719812 0.458747 0.704511 0.154727
H34   H     H_    0.280243 0.458737 0.295488 0.154970
H35   H     H_    0.219788 0.958135 0.705277 0.155066
H36   H     H_    0.780217 0.958250 0.294871 0.154649
C85   C     C_R   0.725161 0.502430 0.777680 0.198290
C86   C     C_R   0.274841 0.502370 0.222328 0.197988
C87   C     C_R   0.225122 0.002588 0.777613 0.197276
C88   C     C_R   0.774850 0.002404 0.222247 0.198419
O17   O     O_R   0.962770 0.564220 0.037230 -0.578453
O18   O     O_R   0.037230 0.564220 0.962770 -0.575909
O19   O     O_R   0.462770 0.064220 0.037230 -0.571422
O20   O     O_R   0.537230 0.064220 0.962770 -0.588915
C89   C     C_R   0.999994 0.585074 0.000021 0.881937
C90   C     C_R   0.499993 0.085073 0.999898 0.859602
O21   O     O_R   0.962780 0.499950 0.128370 -0.593538
O22   O     O_R   0.037220 0.499950 0.871630 -0.596856
O23   O     O_R   0.462780 0.999950 0.128370 -0.591821
O24   O     O_R   0.537220 0.999950 0.871630 -0.617274
O25   O     O_R   0.037180 0.500000 0.053970 -0.580395
O26   O     O_R   0.962820 0.500000 0.946030 -0.562399
O27   O     O_R   0.537180 0.000000 0.053970 -0.579016
O28   O     O_R   0.462820 0.000000 0.946030 -0.552845
C91   C     C_R   0.000296 0.502163 0.119526 0.867439
C92   C     C_R   0.999700 0.502240 0.880496 0.920935
C93   C     C_R   0.500296 0.002124 0.119529 0.871063
C94   C     C_R   0.499706 0.002535 0.880495 0.872719
Cu5   Cu    Cu3+1 0.955920 0.499940 0.044070 1.089438
Cu6   Cu    Cu3+1 0.044080 0.499940 0.955930 1.081556
Cu7   Cu    Cu3+1 0.455920 0.999940 0.044070 1.093756
Cu8   Cu    Cu3+1 0.544080 0.999940 0.955930 1.065237
O29   O     O_R   0.962780 0.435670 0.037210 -0.534612
O30   O     O_R   0.037220 0.435670 0.962790 -0.544091
O31   O     O_R   0.462780 0.935670 0.037210 -0.535842
O32   O     O_R   0.537220 0.935670 0.962790 -0.538828
C95   C     C_R   0.000017 0.414683 0.999989 0.809612
C96   C     C_R   0.500018 0.914676 0.999791 0.820579
O33   O     O_R   0.499930 0.435710 0.947300 -0.584815
O34   O     O_R   0.500070 0.435710 0.052700 -0.584731
O35   O     O_R   0.999930 0.935710 0.947300 -0.582430
O36   O     O_R   0.000070 0.935710 0.052700 -0.583963
C97   C     C_R   0.499993 0.414929 0.000002 0.824991
C98   C     C_R   0.999998 0.914929 0.000000 0.828121
O37   O     O_R   0.564240 0.499990 0.883000 -0.590179
O38   O     O_R   0.435760 0.499990 0.117000 -0.590141
O39   O     O_R   0.064240 0.999990 0.883000 -0.598443
O40   O     O_R   0.935760 0.999990 0.117000 -0.588524
O41   O     O_R   0.564250 0.499990 0.988510 -0.551370
O42   O     O_R   0.435750 0.499990 0.011490 -0.551373
O43   O     O_R   0.064250 0.999990 0.988510 -0.547619
O44   O     O_R   0.935750 0.999990 0.011490 -0.547645
C99   C     C_R   0.584865 0.500760 0.915547 0.816290
C100  C     C_R   0.415135 0.500758 0.084453 0.816303
C101  C     C_R   0.084855 0.000777 0.915549 0.800831
C102  C     C_R   0.915139 0.000762 0.084451 0.825295
Cu9   Cu    Cu3+1 0.499970 0.499990 0.937550 1.028664
Cu10  Cu    Cu3+1 0.500030 0.499990 0.062450 1.029033
Cu11  Cu    Cu3+1 0.999970 0.999990 0.937550 1.011597
Cu12  Cu    Cu3+1 0.000030 0.999990 0.062450 1.029130
O45   O     O_R   0.500010 0.564260 0.947230 -0.564556
O46   O     O_R   0.499990 0.564260 0.052770 -0.564277
O47   O     O_R   0.000010 0.064260 0.947230 -0.595981
O48   O     O_R   0.999990 0.064260 0.052770 -0.553554
C103  C     C_R   0.499986 0.584793 0.000012 0.883048
C104  C     C_R   0.000344 0.084757 0.999634 0.843018
C105  C     C_R   0.039274 0.702591 0.971404 -0.048638
C106  C     C_R   0.960669 0.702604 0.028672 -0.048435
C107  C     C_R   0.539272 0.202591 0.971193 -0.047467
C108  C     C_R   0.460661 0.202599 0.028515 -0.047601
H37   H     H_    0.069797 0.720198 0.949140 0.153817
H38   H     H_    0.930141 0.720222 0.050935 0.153631
H39   H     H_    0.569795 0.220200 0.948920 0.153220
H40   H     H_    0.430128 0.220214 0.050813 0.153925
C109  C     C_R   0.039333 0.656741 0.971161 -0.109940
C110  C     C_R   0.960623 0.656753 0.028917 -0.109764
C111  C     C_R   0.539337 0.156742 0.970920 -0.118313
C112  C     C_R   0.460621 0.156747 0.028732 -0.108518
H41   H     H_    0.070087 0.639586 0.948834 0.179346
H42   H     H_    0.929874 0.639607 0.051240 0.178850
H43   H     H_    0.570097 0.139590 0.948565 0.178674
H44   H     H_    0.429872 0.139597 0.051080 0.180662
C113  C     C_R   0.999981 0.633438 0.000038 -0.027965
C114  C     C_R   0.499983 0.133435 0.999835 -0.033120
C115  C     C_R   0.999968 0.725601 0.000036 0.174879
C116  C     C_R   0.499959 0.225599 0.999884 0.175517
C117  C     C_R   0.493255 0.297216 0.950541 0.308127
C118  C     C_R   0.506646 0.297169 0.049384 0.308944
C119  C     C_R   0.993264 0.797193 0.950622 0.308723
C120  C     C_R   0.006674 0.797196 0.049440 0.308902
C121  C     C_R   0.492947 0.343260 0.951810 -0.212945
C122  C     C_R   0.506977 0.343216 0.048169 -0.213284
C123  C     C_R   0.992956 0.843239 0.951849 -0.213051
C124  C     C_R   0.007006 0.843240 0.048184 -0.213085
H45   H     H_    0.487805 0.361022 0.914037 0.207900
H46   H     H_    0.512129 0.360946 0.085960 0.207903
H47   H     H_    0.987805 0.860985 0.914073 0.208045
H48   H     H_    0.012165 0.860986 0.085952 0.207950
C125  C     C_R   0.499972 0.366457 0.999997 -0.153921
C126  C     C_R   0.999988 0.866458 0.000008 -0.155131
C127  C     C_R   0.499947 0.273919 0.999944 -0.168670
C128  C     C_R   0.999965 0.773921 0.000037 -0.168107
C129  C     C_R   0.036398 0.296344 0.987936 -0.161410
C130  C     C_R   0.963660 0.296174 0.014174 -0.171999
C131  C     C_R   0.536707 0.796155 0.984915 -0.161418
C132  C     C_R   0.463144 0.796295 0.014638 -0.174605
H49   H     H_    0.064598 0.278470 0.978014 0.183844
H50   H     H_    0.935505 0.278179 0.024195 0.182844
H51   H     H_    0.565183 0.778127 0.973508 0.181758
H52   H     H_    0.434630 0.778393 0.025983 0.180902
C133  C     C_R   0.037195 0.342207 0.986131 0.293176
C134  C     C_R   0.962931 0.342049 0.014999 0.302714
C135  C     C_R   0.537496 0.842028 0.983695 0.292594
C136  C     C_R   0.462606 0.842172 0.015367 0.306302
C137  C     C_R   0.000069 0.365941 0.000309 -0.289329
C138  C     C_R   0.500064 0.865918 0.999562 -0.289767
C139  C     C_R   0.000040 0.273358 0.001214 0.051979
C140  C     C_R   0.499868 0.773364 0.999910 0.057711
C141  C     C_R   0.470384 0.702248 0.067335 0.085307
C142  C     C_R   0.529319 0.702211 0.932561 0.084139
C143  C     C_R   0.968581 0.201878 0.066494 0.083875
C144  C     C_R   0.032066 0.202340 0.934825 0.141232
C145  C     C_R   0.470341 0.655928 0.067381 0.046950
C146  C     C_R   0.529492 0.655897 0.932601 0.047659
C147  C     C_R   0.968558 0.155551 0.065762 0.074254
C148  C     C_R   0.032402 0.156243 0.934066 0.045062
C149  C     C_R   0.499953 0.632966 0.000013 -0.061602
C150  C     C_R   0.000420 0.132867 0.999597 -0.103646
C151  C     C_R   0.499830 0.725100 0.999932 0.083523
C152  C     C_R   0.000230 0.225046 0.000879 0.059760
N1    N     N_3   0.030322 0.423121 0.152994 -0.538549
H53   H     H_    0.062204 0.435671 0.122256 0.251574
H54   H     H_    0.021627 0.417516 0.115423 0.241218
N2    N     N_3   0.966033 0.426076 0.851714 -0.544999
H55   H     H_    0.934400 0.434155 0.868055 0.247084
H56   H     H_    0.971951 0.393072 0.834962 0.260511
N3    N     N_3   0.530977 0.923306 0.152403 -0.539845
H57   H     H_    0.562769 0.936080 0.121825 0.250812
H58   H     H_    0.522376 0.917619 0.114722 0.241173
N4    N     N_3   0.477487 0.922540 0.844417 -0.558279
H59   H     H_    0.443976 0.928762 0.871825 0.258615
H60   H     H_    0.484403 0.890707 0.822009 0.255042
N5    N     N_3   0.085567 0.500042 0.225204 -0.542849
H61   H     H_    0.113554 0.519310 0.189826 0.269326
H62   H     H_    0.091475 0.471992 0.193229 0.220079
N6    N     N_3   0.914316 0.501680 0.774910 -0.546020
H63   H     H_    0.886718 0.521616 0.809424 0.270625
H64   H     H_    0.907597 0.473985 0.807956 0.211098
N7    N     N_3   0.585607 0.000617 0.225109 -0.543158
H65   H     H_    0.613463 0.020062 0.189803 0.269172
H66   H     H_    0.591677 0.972594 0.192991 0.219986
N8    N     N_3   0.414697 0.003607 0.769695 -0.551636
H67   H     H_    0.387358 0.023750 0.804652 0.273122
H68   H     H_    0.406677 0.974479 0.799945 0.227123
N9    N     N_R   0.772754 0.430386 0.785034 0.160852
O49   O     O_R   0.742510 0.438325 0.855836 -0.317744
O50   O     O_R   0.781755 0.389788 0.761832 -0.260699
N10   N     N_R   0.227300 0.430142 0.215401 0.160956
O51   O     O_R   0.257532 0.437950 0.144554 -0.316838
O52   O     O_R   0.218351 0.389591 0.238831 -0.259539
N11   N     N_R   0.272611 0.930133 0.784088 0.160725
O53   O     O_R   0.242384 0.937862 0.854978 -0.316119
O54   O     O_R   0.281473 0.889617 0.760405 -0.260512
N12   N     N_R   0.727295 0.930357 0.214845 0.160855
O55   O     O_R   0.757550 0.938309 0.144062 -0.317065
O56   O     O_R   0.718333 0.889755 0.237991 -0.260338
N13   N     N_R   0.865509 0.429164 0.690983 0.180005
O57   O     O_R   0.878067 0.395740 0.645435 -0.283734
O58   O     O_R   0.865952 0.425982 0.750515 -0.312446
N14   N     N_R   0.134553 0.428875 0.309573 0.180201
O59   O     O_R   0.122013 0.395614 0.355413 -0.283310
O60   O     O_R   0.134129 0.425394 0.250053 -0.306371
N15   N     N_R   0.365341 0.928608 0.689644 0.180453
O61   O     O_R   0.377886 0.895576 0.643332 -0.284093
O62   O     O_R   0.365636 0.924651 0.749232 -0.309618
N16   N     N_R   0.634538 0.929061 0.309096 0.180141
O63   O     O_R   0.621959 0.895725 0.354797 -0.284465
O64   O     O_R   0.634180 0.925711 0.249496 -0.307135
N17   N     N_R   0.864844 0.570018 0.575844 0.145441
O65   O     O_R   0.887122 0.560687 0.504318 -0.387230
O66   O     O_R   0.862573 0.610614 0.596912 -0.300375
N18   N     N_R   0.135133 0.570127 0.423898 0.145493
O67   O     O_R   0.112914 0.560929 0.495460 -0.386631
O68   O     O_R   0.137346 0.610670 0.402667 -0.299755
N19   N     N_R   0.364888 0.070349 0.576397 0.145535
O69   O     O_R   0.387066 0.061233 0.504799 -0.385275
O70   O     O_R   0.362717 0.110851 0.597783 -0.300480
N20   N     N_R   0.635132 0.069908 0.424335 0.145312
O71   O     O_R   0.612915 0.060489 0.495813 -0.390839
O72   O     O_R   0.637350 0.110535 0.403457 -0.300482
N21   N     N_3   0.771578 0.572274 0.676908 -0.555455
H69   H     H_    0.780403 0.575016 0.621678 0.258705
H70   H     H_    0.779808 0.601488 0.691531 0.273661
N22   N     N_3   0.228385 0.572371 0.322765 -0.555466
H71   H     H_    0.219572 0.575246 0.377973 0.258844
H72   H     H_    0.220123 0.601519 0.308020 0.273708
N23   N     N_3   0.271650 0.072751 0.677662 -0.553256
H73   H     H_    0.280452 0.075759 0.622479 0.259912
H74   H     H_    0.279948 0.101811 0.692558 0.274344
N24   N     N_3   0.728383 0.072238 0.323109 -0.555791
H75   H     H_    0.719584 0.074955 0.378328 0.258697
H76   H     H_    0.720109 0.101459 0.308573 0.273469
N25   N     N_3   0.633185 0.553392 0.957099 -0.563568
H77   H     H_    0.643086 0.543309 0.991474 0.247954
H78   H     H_    0.642862 0.586160 0.941853 0.221726
N26   N     N_3   0.366753 0.553317 0.042913 -0.563745
H79   H     H_    0.356863 0.543204 0.008538 0.247947
H80   H     H_    0.357039 0.586084 0.058166 0.221511
N27   N     N_3   0.133077 0.054347 0.956088 -0.569771
H81   H     H_    0.143011 0.044767 0.990635 0.250202
H82   H     H_    0.142676 0.087071 0.940204 0.221393
N28   N     N_3   0.866831 0.053944 0.043556 -0.562230
H83   H     H_    0.856951 0.044158 0.009021 0.247471
H84   H     H_    0.857142 0.086676 0.059249 0.221239
N29   N     N_R   0.487339 0.274849 0.898168 0.138757
O73   O     O_R   0.509715 0.239485 0.863331 -0.308112
O74   O     O_R   0.463455 0.292659 0.878342 -0.297073
N30   N     N_R   0.512555 0.274752 0.101726 0.138683
O75   O     O_R   0.490188 0.239385 0.136475 -0.307643
O76   O     O_R   0.536426 0.292515 0.121607 -0.298081
N31   N     N_R   0.987336 0.774800 0.898283 0.138678
O77   O     O_R   0.009702 0.739424 0.863486 -0.307708
O78   O     O_R   0.963450 0.792593 0.878449 -0.297658
N32   N     N_R   0.012591 0.774805 0.101793 0.138514
O79   O     O_R   0.990206 0.739459 0.136611 -0.309017
O80   O     O_R   0.036485 0.792578 0.121618 -0.297797
N33   N     N_R   0.075972 0.363775 0.970396 0.132889
O81   O     O_R   0.104758 0.378285 0.902554 -0.308201
O82   O     O_R   0.088071 0.357774 0.015606 -0.338939
N34   N     N_R   0.924307 0.363511 0.029875 0.147636
O83   O     O_R   0.895018 0.377827 0.097635 -0.309966
O84   O     O_R   0.913008 0.357869 0.983494 -0.345711
N35   N     N_R   0.576549 0.863464 0.966936 0.133716
O85   O     O_R   0.605049 0.877829 0.898866 -0.308282
O86   O     O_R   0.588952 0.857822 0.011789 -0.338816
N36   N     N_R   0.423876 0.863819 0.031116 0.146650
O87   O     O_R   0.394454 0.877236 0.099434 -0.311468
O88   O     O_R   0.412902 0.859643 0.984048 -0.346982
N37   N     N_3   0.441113 0.726531 0.135483 -0.572113
H85   H     H_    0.447251 0.717721 0.175368 0.236837
H86   H     H_    0.408688 0.718166 0.156224 0.232370
N38   N     N_3   0.558521 0.726454 0.864359 -0.574017
H87   H     H_    0.552395 0.717524 0.824503 0.235481
H88   H     H_    0.590970 0.718179 0.843617 0.232750
N39   N     N_3   0.937097 0.225809 0.133755 -0.571670
H89   H     H_    0.940578 0.216609 0.176644 0.236891
H90   H     H_    0.905428 0.217526 0.149963 0.231490
N40   N     N_3   0.063662 0.226484 0.867999 -0.562999
H91   H     H_    0.060451 0.217117 0.824843 0.253456
H92   H     H_    0.095201 0.217752 0.852074 0.254324
N41   N     N_3   0.439698 0.631849 0.135007 -0.570901
H93   H     H_    0.444674 0.640309 0.176437 0.238137
H94   H     H_    0.407705 0.640705 0.153666 0.223385
N42   N     N_3   0.560197 0.631793 0.865010 -0.570944
H95   H     H_    0.555189 0.640131 0.823574 0.237720
H96   H     H_    0.592167 0.640745 0.846324 0.223491
N43   N     N_3   0.935815 0.131154 0.131338 -0.569588
H97   H     H_    0.937989 0.139251 0.176069 0.236145
H98   H     H_    0.904681 0.140083 0.145557 0.221615
N44   N     N_3   0.066255 0.133902 0.866739 -0.582715
H99   H     H_    0.051730 0.116134 0.845029 0.254184
H100  H     H_    0.082543 0.112073 0.880343 0.220371
N45   N     N_3   0.951583 0.569874 0.237585 -0.499423
H101  H     H_    0.969575 0.593650 0.243616 0.316940
H102  H     H_    0.918450 0.577850 0.277138 0.235773
N46   N     N_3   0.049948 0.568829 0.760984 -0.503826
H103  H     H_    0.032232 0.593061 0.755146 0.317751
H104  H     H_    0.083177 0.576126 0.720853 0.237852
N47   N     N_3   0.451085 0.069468 0.238085 -0.497877
H105  H     H_    0.468929 0.093378 0.244216 0.316810
H106  H     H_    0.417903 0.077207 0.277742 0.236172
N48   N     N_3   0.539641 0.075681 0.765411 -0.431258
H107  H     H_    0.566733 0.091133 0.718322 0.250744
H108  H     H_    0.545934 0.076629 0.806746 0.229056
N49   N     N_R   0.048895 0.569627 0.265009 0.180855
O89   O     O_R   0.024085 0.601436 0.269269 -0.305476
O90   O     O_R   0.076349 0.578578 0.282648 -0.285995
N50   N     N_R   0.952219 0.570582 0.734140 0.180259
O91   O     O_R   0.977220 0.602037 0.730301 -0.303646
O92   O     O_R   0.925181 0.580024 0.715781 -0.285248
N51   N     N_R   0.548465 0.069956 0.265374 0.181029
O93   O     O_R   0.523401 0.101579 0.269928 -0.305364
O94   O     O_R   0.575928 0.079124 0.282909 -0.285617
N52   N     N_R   0.454329 0.071495 0.736611 0.177446
O95   O     O_R   0.477663 0.101538 0.741337 -0.251186
O96   O     O_R   0.429916 0.083708 0.714068 -0.284806
N53   N     N_R   0.056976 0.567756 0.131755 0.177910
O97   O     O_R   0.033670 0.586226 0.111357 -0.351088
O98   O     O_R   0.095435 0.584441 0.106505 -0.282257
N54   N     N_R   0.943937 0.568712 0.867638 0.174157
O99   O     O_R   0.967759 0.586955 0.887156 -0.357533
O100  O     O_R   0.905631 0.585888 0.893073 -0.281317
N55   N     N_R   0.556488 0.068136 0.132182 0.177730
O101  O     O_R   0.533047 0.086405 0.111892 -0.348033
O102  O     O_R   0.594820 0.085117 0.107035 -0.282431
N56   N     N_R   0.436447 0.061983 0.876728 0.187841
O103  O     O_R   0.459213 0.084415 0.894394 -0.332255
O104  O     O_R   0.396228 0.074314 0.904726 -0.298686
N57   N     N_3   0.028544 0.419507 0.283271 -0.481321
H109  H     H_    0.056274 0.412784 0.229533 0.275138
H110  H     H_    0.012047 0.389423 0.303581 0.246561
N58   N     N_3   0.972722 0.418773 0.714702 -0.494564
H111  H     H_    0.942084 0.415402 0.765339 0.255448
H112  H     H_    0.987893 0.387982 0.703851 0.233361
N59   N     N_3   0.529126 0.919692 0.282779 -0.481297
H113  H     H_    0.556902 0.913124 0.229014 0.275167
H114  H     H_    0.512823 0.889506 0.302947 0.246430
N60   N     N_3   0.470330 0.920628 0.720704 -0.497212
H115  H     H_    0.442729 0.916458 0.775476 0.245522
H116  H     H_    0.485288 0.889654 0.703528 0.238933

loop_
_geom_bond_atom_site_label_1
_geom_bond_atom_site_label_2
_geom_bond_distance
_ccdc_geom_bond_type
N20   O72   1.300762 A    
N55   O101  1.300408 A    
C105  C109  1.393096 A    
C57   N21   1.435754 S    
C81   H33   1.083342 S    
C34   N54   1.477099 S    
O44   Cu11  1.964830 S    
C55   C59   1.406225 A    
C60   C64   1.402020 A    
C84   H36   1.083342 S    
O9    Cu1   1.982057 S    
C66   C70   1.399080 A    
C69   N25   1.432607 S    
N25   H77   1.045577 S    
N13   O57   1.301069 A    
C83   H35   1.083349 S    
C122  C125  1.400290 A    
C145  C149  1.407754 A    
N47   H106  1.046174 S    
C23   C27   1.585839 S    
N45   H102  1.046176 S    
C14   N46   1.467963 S    
C44   C64   1.406813 A    
C51   C55   1.417325 A    
C2    C50   1.481991 S    
N3    H57   1.040889 S    
C117  C121  1.399167 A    
C132  H52   1.084182 S    
C10   H6    1.114088 S    
N4    H59   1.041883 S    
C11   C27   1.563594 S    
O16   C8    1.291713 A    
C140  C151  1.466443 S    
C22   C38   1.565198 S    
C108  H40   1.083297 S    
C146  N42   1.435980 S    
O40   Cu12  1.960690 S    
O4    C4    1.299095 A    
O45   C103  1.300295 A    
C17   C33   1.582800 S    
C135  N35   1.431371 S    
C19   C35   1.582818 S    
C120  C124  1.399177 A    
C136  C138  1.421455 A    
C62   C86   1.465598 S    
C143  C147  1.407652 A    
Cu7   O31   1.963772 S    
N16   O64   1.300467 A    
C43   C47   1.405548 A    
C142  N38   1.435779 S    
Cu9   Cu10  2.702239 S    
Cu6   O30   1.963915 S    
O19   C90   1.296297 A    
N26   H79   1.045576 S    
C105  C115  1.399822 A    
C117  N29   1.441129 S    
C42   C46   1.405517 A    
C68   C72   1.399161 A    
C78   H30   1.083383 S    
O29   C95   1.298253 A    
O16   Cu4   1.982252 S    
C54   C58   1.406133 A    
O33   Cu9   1.964341 S    
C109  H41   1.082904 S    
O7    Cu4   1.964730 S    
O23   C93   1.291678 A    
N18   O67   1.300717 A    
O44   C102  1.301258 A    
O15   C7    1.290900 A    
C20   C36   1.577982 S    
C73   C99   1.465225 S    
C74   C100  1.465180 S    
N31   O77   1.301340 A    
C32   C36   1.590777 S    
N30   O75   1.301337 A    
C108  C112  1.393154 A    
O42   Cu9   1.964830 S    
O9    C5    1.294448 A    
C89   C113  1.469489 S    
C55   N19   1.435137 S    
O34   C97   1.304202 A    
C36   H24   1.106359 S    
N46   H104  1.046155 S    
N2    H56   1.045820 S    
C71   C75   1.411154 A    
C144  C152  1.406225 A    
O8    Cu4   1.964874 S    
N48   H108  1.045384 S    
N12   O55   1.301162 A    
C63   C87   1.465869 S    
C75   C79   1.402834 A    
C64   C88   1.465792 S    
N58   H111  1.036608 S    
N56   O104  1.301408 A    
C135  C138  1.422062 A    
C111  C114  1.405222 A    
O3    Cu2   1.963669 S    
C18   N50   1.491586 S    
C6    C26   1.494108 S    
C13   C29   1.572806 S    
C36   N56   1.476938 S    
C95   C137  1.480970 S    
C109  C113  1.405211 A    
N10   O52   1.301010 A    
C18   C34   1.583846 S    
N8    H68   1.037829 S    
C30   C34   1.588847 S    
N53   O98   1.301771 A    
C147  N43   1.436141 S    
C34   H22   1.106630 S    
C79   H31   1.083397 S    
O3    C3    1.299216 A    
N44   H99   1.044429 S    
C77   H29   1.083384 S    
O37   Cu9   1.960690 S    
C78   C82   1.391945 A    
Cu11  Cu12  2.702239 S    
C37   H17   1.116700 S    
O48   C104  1.300475 A    
O40   C102  1.302093 A    
N49   O89   1.299991 A    
C15   H11   1.116227 S    
O35   Cu11  1.964341 S    
C16   H12   1.116179 S    
O28   Cu7   1.984835 S    
N41   H94   1.045072 S    
C47   N15   1.433069 S    
C123  H47   1.083078 S    
N19   O70   1.300767 A    
N53   O97   1.300411 A    
C9    H1    1.107007 S    
C56   C60   1.406176 A    
N36   O87   1.300915 A    
N11   O54   1.301017 A    
C136  N36   1.430832 S    
C7    C27   1.494052 S    
N55   O102  1.301770 A    
C39   N3    1.472932 S    
C12   H4    1.109564 S    
N18   O68   1.300767 A    
N50   O91   1.300207 A    
C24   N60   1.475295 S    
N59   H114  1.046343 S    
C20   N8    1.479685 S    
C119  C123  1.399202 A    
N17   O66   1.300767 A    
C30   C38   1.571065 S    
C18   N6    1.479197 S    
C48   C52   1.418057 A    
C17   C25   1.590151 S    
N34   O83   1.300962 A    
C67   C71   1.399203 A    
C70   C74   1.411456 A    
N21   H70   1.044679 S    
C20   C28   1.588728 S    
O5    Cu3   1.964730 S    
C21   H13   1.118018 S    
O30   C95   1.297762 A    
N51   O93   1.300001 A    
N42   H95   1.044947 S    
C23   H15   1.118023 S    
N51   O94   1.303265 A    
C66   H26   1.083880 S    
C45   N13   1.433020 S    
C23   C39   1.562805 S    
C141  C151  1.405784 A    
O36   C98   1.304143 A    
N5    H61   1.046432 S    
C107  C111  1.393085 A    
C42   C62   1.406724 A    
O46   C103  1.300442 A    
C19   N51   1.491193 S    
N38   H88   1.044954 S    
C19   C27   1.590350 S    
N52   O96   1.303143 A    
C90   C114  1.469427 S    
C15   N47   1.468059 S    
C10   H2    1.106767 S    
O25   C91   1.289473 A    
O13   Cu3   1.982292 S    
O26   C92   1.289333 A    
N6    H63   1.046421 S    
C70   N26   1.432607 S    
C98   C126  1.472732 S    
C23   N59   1.478121 S    
N24   H75   1.045533 S    
O17   Cu5   1.964188 S    
C122  H46   1.083078 S    
C58   N22   1.435762 S    
O18   Cu6   1.964044 S    
C21   N57   1.478125 S    
O21   C91   1.291708 A    
C73   C77   1.403021 A    
C60   N24   1.435759 S    
N28   H84   1.045636 S    
C17   N5    1.479420 S    
O8    C4    1.296443 A    
N9    O49   1.301153 A    
C43   C63   1.406740 A    
N2    H55   1.041214 S    
N32   O80   1.301479 A    
O15   Cu4   1.982292 S    
N1    H54   1.045308 S    
N54   O99   1.300415 A    
N31   O78   1.301475 A    
Cu8   O32   1.963915 S    
N27   H82   1.045629 S    
C44   N12   1.439248 S    
C49   C53   1.417162 A    
C68   H28   1.083872 S    
N43   H98   1.045085 S    
C133  C137  1.422119 A    
C13   H9    1.116230 S    
C9    C13   1.549345 S    
C131  C140  1.393219 A    
O14   C6    1.290915 A    
O24   C94   1.292015 A    
C10   C14   1.549152 S    
C40   H20   1.115953 S    
N22   H71   1.045534 S    
C59   C63   1.402009 A    
O1    Cu1   1.963669 S    
O43   C101  1.301298 A    
N26   H80   1.045630 S    
C32   C40   1.570651 S    
C129  H49   1.084184 S    
O10   C6    1.294592 A    
N45   H101  1.040633 S    
Cu12  O48   1.964054 S    
C39   H19   1.116684 S    
C52   C56   1.417113 A    
N4    H60   1.045726 S    
C45   C49   1.418025 A    
Cu9   O45   1.964018 S    
Cu5   Cu6   2.677894 S    
C119  C128  1.416813 A    
C47   C51   1.418261 A    
C46   N14   1.433055 S    
C31   C39   1.577459 S    
C15   C31   1.572996 S    
N7    H65   1.046428 S    
C105  H37   1.083301 S    
C65   C85   1.397800 A    
N60   H115  1.038070 S    
C16   N48   1.465631 S    
O34   Cu10  1.964303 S    
C134  C137  1.421548 A    
C13   N45   1.468053 S    
N40   H91   1.045566 S    
C56   N20   1.435054 S    
O20   Cu8   1.964044 S    
C116  C127  1.468156 S    
O43   Cu12  1.964830 S    
O41   Cu10  1.964830 S    
C76   C102  1.465002 S    
C65   C69   1.399105 A    
N39   H89   1.044971 S    
N33   O82   1.300719 A    
O5    C1    1.296438 A    
N29   O73   1.301336 A    
C110  C113  1.405215 A    
C107  C116  1.399806 A    
C108  C116  1.399850 A    
Cu10  O46   1.964054 S    
C79   C83   1.391862 A    
N52   O95   1.300986 A    
C145  N41   1.435950 S    
C80   C84   1.391986 A    
O37   C99   1.302188 A    
C50   C54   1.417211 A    
C3    C51   1.482350 S    
C131  C135  1.394046 A    
C14   H10   1.116258 S    
O38   C100  1.302183 A    
O39   C101  1.301892 A    
N35   O85   1.300971 A    
O26   Cu5   1.984835 S    
N58   H112  1.046352 S    
N57   H110  1.046347 S    
N30   O76   1.301488 A    
O39   Cu11  1.960690 S    
C29   C91   1.486192 S    
C76   C80   1.402928 A    
O23   Cu7   1.979513 S    
N20   O71   1.300693 A    
C117  C127  1.416776 A    
N12   O56   1.301013 A    
N25   H78   1.045629 S    
C22   N58   1.476251 S    
C46   C50   1.418130 A    
O35   C98   1.304168 A    
C143  N39   1.435737 S    
N13   O58   1.300462 A    
O12   Cu2   1.982091 S    
C118  C127  1.416848 A    
N15   O61   1.301079 A    
C18   C26   1.592014 S    
O1    C1    1.299045 A    
N11   O53   1.301179 A    
C41   C45   1.405517 A    
N46   H103  1.040927 S    
C22   H14   1.117499 S    
C121  H45   1.083077 S    
C24   C28   1.584212 S    
O47   C104  1.299298 A    
N59   H113  1.039328 S    
C103  C149  1.463668 S    
O41   C99   1.301283 A    
C82   C86   1.398013 A    
O18   C89   1.296262 A    
C67   H27   1.083869 S    
C31   C93   1.486165 S    
C104  C150  1.461781 S    
C133  N33   1.431692 S    
C130  C134  1.394019 A    
C148  C150  1.412159 A    
C40   N4    1.472822 S    
N35   O86   1.300688 A    
C37   N1    1.472729 S    
C17   N49   1.491184 S    
C9    C25   1.563791 S    
C132  C140  1.393277 A    
C32   C94   1.487884 S    
C11   H3    1.106985 S    
C12   C28   1.561523 S    
O27   C93   1.289442 A    
C124  H48   1.083079 S    
C72   N28   1.432601 S    
N41   H93   1.044949 S    
C123  C126  1.400308 A    
N16   O63   1.301063 A    
C21   C25   1.585798 S    
O20   C90   1.296252 A    
O6    C2    1.296457 A    
N36   O88   1.300539 A    
C41   N9    1.439241 S    
C81   C85   1.398025 A    
C121  C125  1.400334 A    
N50   O92   1.303316 A    
C120  C128  1.416802 A    
C84   C88   1.398099 A    
N17   O65   1.300700 A    
O32   C96   1.297789 A    
C29   C33   1.591110 S    
C96   C138  1.481432 S    
N34   O84   1.300558 A    
O2    Cu1   1.963519 S    
C31   C35   1.590976 S    
O10   Cu1   1.982091 S    
N21   H69   1.045532 S    
O13   C5    1.290850 A    
C33   H21   1.105062 S    
N19   O69   1.300756 A    
C143  C152  1.406733 A    
N42   H96   1.045075 S    
C38   H18   1.116446 S    
C9    H5    1.114022 S    
C132  C136  1.394010 A    
C142  C146  1.407228 A    
N48   H107  1.046215 S    
C4    C52   1.482012 S    
O36   Cu12  1.964303 S    
O17   C89   1.296306 A    
C111  H43   1.082902 S    
N27   H81   1.045567 S    
O22   C92   1.291729 A    
Cu7   Cu8   2.677894 S    
C24   C40   1.566712 S    
C130  C139  1.393771 A    
N7    H66   1.038692 S    
C11   C15   1.549286 S    
C141  N37   1.435746 S    
N47   H105  1.040659 S    
N23   H73   1.045530 S    
C147  C150  1.407424 A    
N54   O100  1.301756 A    
C30   C92   1.486546 S    
N43   H97   1.044933 S    
C48   N16   1.433060 S    
O7    C3    1.296504 A    
N10   O51   1.301156 A    
N6    H64   1.037911 S    
C61   C85   1.465636 S    
N8    H67   1.046268 S    
N24   H76   1.044680 S    
N39   H90   1.044971 S    
C118  C122  1.399234 A    
C144  C148  1.400646 A    
C29   C37   1.577396 S    
C66   C86   1.397794 A    
C69   C73   1.411459 A    
N56   O103  1.300431 A    
C38   N2    1.472015 S    
C35   H23   1.105053 S    
C44   C48   1.405630 A    
C120  N32   1.441127 S    
N49   O90   1.303264 A    
O19   Cu7   1.964188 S    
N1    H53   1.040899 S    
C124  C126  1.400310 A    
C65   H25   1.083880 S    
C139  C152  1.467907 S    
O11   C7    1.294427 A    
N29   O74   1.301482 A    
C53   N17   1.435105 S    
C19   N7    1.479400 S    
C106  C110  1.393128 A    
C41   C61   1.406741 A    
C80   H32   1.083388 S    
C119  N31   1.441128 S    
C57   C61   1.402005 A    
C33   N53   1.477584 S    
O4    Cu2   1.963519 S    
C42   N10   1.439242 S    
C129  C133  1.393881 A    
C112  H44   1.082902 S    
N22   H72   1.044681 S    
O38   Cu10  1.960690 S    
O11   Cu2   1.982057 S    
C97   C125  1.472756 S    
C110  H42   1.082903 S    
C107  H39   1.083300 S    
C43   N11   1.439254 S    
O42   C100  1.301267 A    
C20   N52   1.491189 S    
N14   O60   1.300467 A    
N15   O62   1.300459 A    
C106  C115  1.399836 A    
C74   C78   1.403015 A    
Cu5   O29   1.963772 S    
C5    C25   1.494040 S    
C141  C145  1.407386 A    
C35   N55   1.477583 S    
O6    Cu3   1.964874 S    
O33   C97   1.304121 A    
C8    C28   1.493722 S    
C24   H16   1.117618 S    
C12   C16   1.551453 S    
N23   H74   1.044684 S    
O22   Cu6   1.979513 S    
N44   H100  1.045826 S    
N14   O59   1.301068 A    
C142  C151  1.405846 A    
O21   Cu5   1.979513 S    
N5    H62   1.038691 S    
O31   C96   1.298448 A    
C16   C32   1.575110 S    
C146  C149  1.407726 A    
C75   C101  1.464669 S    
N60   H116  1.046285 S    
O2    C2    1.299077 A    
C1    C49   1.481893 S    
N38   H87   1.044974 S    
O24   Cu8   1.979513 S    
C22   C26   1.587847 S    
C77   C81   1.391981 A    
N3    H58   1.045354 S    
N40   H92   1.045567 S    
C115  C128  1.468147 S    
C21   C37   1.562679 S    
O14   Cu3   1.982252 S    
O27   Cu8   1.984834 S    
C82   H34   1.083342 S    
C144  N40   1.435285 S    
C71   N27   1.432594 S    
C67   C87   1.397996 A    
O25   Cu6   1.984834 S    
Cu1   Cu3   2.677105 S    
N33   O81   1.300988 A    
C130  H50   1.084165 S    
Cu2   Cu4   2.677105 S    
C68   C88   1.397892 A    
N37   H85   1.044973 S    
C118  N30   1.441133 S    
N28   H83   1.045572 S    
C112  C114  1.405195 A    
Cu11  O47   1.964018 S    
C10   C26   1.563607 S    
C83   C87   1.398132 A    
N9    O50   1.301011 A    
N37   H86   1.044956 S    
C11   H7    1.114072 S    
C58   C62   1.401976 A    
C59   N23   1.435761 S    
C12   H8    1.113897 S    
N32   O79   1.301341 A    
O12   C8    1.293311 A    
O28   C94   1.289942 A    
C148  N44   1.435878 S    
C134  N34   1.431313 S    
C131  H51   1.084209 S    
N57   H109  1.039330 S    
C106  H38   1.083299 S    
C14   C30   1.572649 S    
C129  C139  1.393613 A    
C54   N18   1.435105 S    
C53   C57   1.406185 A    
C72   C76   1.411312 A    
