data_mof_unit_8325.cif
_audit_creation_date              2013-03-05T15:50:31-0500
_audit_creation_method            fapswitch 2.2
_symmetry_space_group_name_H-M    P1
_symmetry_Int_Tables_number       1
_space_group_crystal_system       triclinic
_cell_length_a                    19.265327
_cell_length_b                    7.226304
_cell_length_c                    17.733477
_cell_angle_alpha                 90.000302
_cell_angle_beta                  108.35937
_cell_angle_gamma                 89.999515
_cell_volume                      2343.14034992

loop_
_atom_site_label
_atom_site_type_symbol
_atom_site_description
_atom_site_fract_x
_atom_site_fract_y
_atom_site_fract_z
_atom_type_partial_charge
O1    O     O_R   0.562310 0.505770 0.439670 -0.558133
O2    O     O_R   0.437690 0.005770 0.560330 -0.558126
O3    O     O_R   0.411650 0.169150 0.405330 -0.558859
O4    O     O_R   0.588350 0.669150 0.594670 -0.558857
C1    C     C_R   0.383497 0.347869 0.384725 0.986495
C2    C     C_R   0.616503 0.847868 0.615274 0.986514
O5    O     O_R   0.560140 0.175610 0.430010 -0.567409
O6    O     O_R   0.439860 0.675610 0.569990 -0.567416
O7    O     O_R   0.587240 0.012100 0.585200 -0.571797
O8    O     O_R   0.412760 0.512100 0.414800 -0.571799
C3    C     C_R   0.579609 0.345227 0.413629 1.013785
C4    C     C_R   0.420393 0.845228 0.586372 1.013802
O9    O     O_3   0.508720 0.341420 0.550890 -0.238490
O10   O     O_3   0.491280 0.841420 0.449110 -0.238490
V1    V     V_3+5 0.498380 0.063930 0.490560 1.319112
V2    V     V_3+5 0.501620 0.563930 0.509440 1.319108
C5    C     C_R   0.178331 0.062642 0.866276 -0.121765
C6    C     C_R   0.821683 0.562655 0.133743 -0.121817
C7    C     C_R   0.129218 0.917888 0.864094 -0.184544
C8    C     C_R   0.870789 0.417891 0.135915 -0.184536
C9    C     C_R   0.127783 0.765010 0.814724 -0.030652
C10   C     C_R   0.872223 0.265009 0.185283 -0.030626
C11   C     C_R   0.174361 0.757148 0.767730 0.167217
C12   C     C_R   0.825648 0.257150 0.232280 0.167216
C13   C     C_R   0.225351 0.900932 0.772206 0.042288
C14   C     C_R   0.774659 0.400936 0.227807 0.042299
C15   C     C_R   0.227992 0.055176 0.822435 -0.024129
C16   C     C_R   0.772020 0.555184 0.177581 -0.024142
C17   C     C_R   0.172087 0.604757 0.717920 -0.129395
C18   C     C_R   0.827922 0.104757 0.282089 -0.129382
C19   C     C_R   0.220534 0.592421 0.673786 -0.166973
C20   C     C_R   0.779475 0.092421 0.326222 -0.166974
C21   C     C_R   0.272122 0.732457 0.678374 0.146092
C22   C     C_R   0.727886 0.232457 0.321635 0.146085
C23   C     C_R   0.274651 0.887702 0.727600 0.028365
C24   C     C_R   0.725358 0.387704 0.272411 0.028364
C25   C     C_R   0.326937 0.028015 0.733069 -0.056401
C26   C     C_R   0.673072 0.528019 0.266943 -0.056392
C27   C     C_R   0.330578 0.177129 0.785159 -0.223902
C28   C     C_R   0.669432 0.677136 0.214856 -0.223897
C29   C     C_R   0.282226 0.192905 0.829666 0.307543
C30   C     C_R   0.717785 0.692913 0.170350 0.307528
C31   C     C_R   0.320972 0.719190 0.634310 -0.150467
C32   C     C_R   0.679034 0.219187 0.365696 -0.150463
C33   C     C_R   0.372793 0.858603 0.638111 -0.294610
C34   C     C_R   0.627212 0.358601 0.361894 -0.294612
C35   C     C_R   0.375884 0.014315 0.688072 0.344460
C36   C     C_R   0.624123 0.514317 0.311937 0.344459
H1    H     H_    0.178059 0.178251 0.904190 0.218618
H2    H     H_    0.821961 0.678279 0.095841 0.218652
H3    H     H_    0.090337 0.651807 0.812738 0.167114
H4    H     H_    0.909667 0.151801 0.187264 0.167111
H5    H     H_    0.133445 0.493362 0.714017 0.152440
H6    H     H_    0.866564 0.993361 0.285991 0.152439
H7    H     H_    0.218026 0.472233 0.636452 0.161220
H8    H     H_    0.781983 0.972231 0.363555 0.161221
H9    H     H_    0.317323 0.601853 0.595146 0.184273
H10   H     H_    0.682681 0.101849 0.404859 0.184280
H11   H     H_    0.371629 0.283611 0.792314 0.218845
H12   H     H_    0.628381 0.783620 0.207701 0.218840
C37   C     C_3   0.758977 0.787945 0.830670 0.066436
C38   C     C_3   0.241022 0.287924 0.169330 0.066458
H13   H     H_    0.785884 0.651086 0.848930 0.108647
H14   H     H_    0.214114 0.151059 0.151085 0.108632
C39   C     C_3   0.691440 0.747776 0.755863 -0.033738
C40   C     C_3   0.308564 0.247779 0.244135 -0.033731
H15   H     H_    0.698874 0.606160 0.736980 0.148894
H16   H     H_    0.301143 0.106159 0.263020 0.148905
H17   H     H_    0.831529 0.667904 0.743825 0.130524
H18   H     H_    0.168471 0.167907 0.256177 0.130527
C41   C     C_3   0.828481 0.818313 0.733413 0.176338
C42   C     C_3   0.171520 0.318317 0.266586 0.176333
C43   C     C_3   0.780126 0.108829 0.782090 0.018802
C44   C     C_3   0.219874 0.608825 0.217907 0.018796
C45   C     C_3   0.815832 0.915530 0.808596 -0.400285
C46   C     C_3   0.184168 0.415525 0.191402 -0.400265
H19   H     H_    0.774173 0.185147 0.833943 0.164813
H20   H     H_    0.225824 0.685149 0.166055 0.164835
C47   C     C_3   0.689489 0.878232 0.684544 -0.276735
C48   C     C_3   0.310512 0.378233 0.315454 -0.276753
C49   C     C_3   0.759814 0.849989 0.658388 -0.063486
C50   C     C_3   0.240188 0.349992 0.341610 -0.063480
C51   C     C_3   0.701062 0.083665 0.719985 0.017179
C52   C     C_3   0.298939 0.583662 0.280009 0.017184
H21   H     H_    0.659686 0.108117 0.750588 0.203729
H22   H     H_    0.340311 0.608106 0.249401 0.203703
H23   H     H_    0.768649 0.981439 0.630397 0.209510
H24   H     H_    0.231354 0.481445 0.369602 0.209509
O11   O     O_R   0.087220 0.271820 0.085230 -0.594761
O12   O     O_R   0.912780 0.771820 0.914770 -0.594736
O13   O     O_R   0.939860 0.595540 0.069990 -0.592303
O14   O     O_R   0.060140 0.095540 0.930010 -0.592321
C53   C     C_R   0.919417 0.426679 0.085325 1.017096
C54   C     C_R   0.080585 0.926679 0.914678 1.017087
O15   O     O_R   0.088340 0.601930 0.094680 -0.579484
O16   O     O_R   0.911660 0.101930 0.905320 -0.579488
O17   O     O_R   0.062310 0.765410 0.939660 -0.579287
O18   O     O_R   0.937690 0.265410 0.060340 -0.579286
C55   C     C_R   0.114375 0.431842 0.118904 1.051923
C56   C     C_R   0.885625 0.931843 0.881095 1.051966
O19   O     O_3   0.991270 0.429630 0.949130 -0.278331
O20   O     O_3   0.008730 0.929630 0.050870 -0.278328
V3    V     V_3+5 0.001620 0.707150 0.009440 1.263276
V4    V     V_3+5 0.998380 0.207150 0.990560 1.263259
N1    N     N_R   0.738509 0.856734 0.898798 0.270696
O21   O     O_R   0.748051 0.749614 0.960069 -0.362078
O22   O     O_R   0.702780 0.010767 0.895775 -0.334715
N2    N     N_R   0.261483 0.356656 0.101190 0.270687
O23   O     O_R   0.252040 0.249388 0.039983 -0.362017
O24   O     O_R   0.297156 0.510759 0.104171 -0.334734
I1    I     I_    0.588651 0.721962 0.781499 -0.088421
I2    I     I_    0.411353 0.222026 0.218494 -0.088391
I3    I     I_    0.755859 0.679157 0.557748 -0.275651
I4    I     I_    0.244143 0.179159 0.442250 -0.275655
I5    I     I_    0.858366 0.287606 0.748122 -0.245855
I6    I     I_    0.141635 0.787607 0.251878 -0.245856
I7    I     I_    0.680844 0.307734 0.634990 -0.281113
I8    I     I_    0.319159 0.807738 0.365001 -0.281113
N3    N     N_R   0.897707 0.869366 0.720298 0.263654
O25   O     O_R   0.958573 0.807113 0.769027 -0.440633
O26   O     O_R   0.899016 0.941682 0.653497 -0.322994
N4    N     N_R   0.102294 0.369376 0.279702 0.263654
O27   O     O_R   0.041428 0.307121 0.230974 -0.440637
O28   O     O_R   0.100986 0.441692 0.346503 -0.322995
N5    N     N_R   0.428882 0.157729 0.693706 0.240680
O29   O     O_R   0.407659 0.322753 0.667032 -0.401622
O30   O     O_R   0.498406 0.121914 0.722418 -0.362684
N6    N     N_R   0.571127 0.657738 0.306306 0.240674
O31   O     O_R   0.592352 0.822753 0.332992 -0.401625
O32   O     O_R   0.501602 0.621945 0.277566 -0.362676
N7    N     N_R   0.292355 0.344525 0.884719 0.263299
O33   O     O_R   0.237586 0.448490 0.885610 -0.403647
O34   O     O_R   0.358167 0.396509 0.925457 -0.278091
N8    N     N_R   0.707653 0.844527 0.115295 0.263296
O35   O     O_R   0.762419 0.948511 0.114411 -0.403633
O36   O     O_R   0.641840 0.896489 0.074548 -0.278096

loop_
_geom_bond_atom_site_label_1
_geom_bond_atom_site_label_2
_geom_bond_distance
_ccdc_geom_bond_type
C40   H16   1.100043 S    
C8    C53   1.488622 S    
C39   C47   1.568363 S    
C32   H10   1.084201 S    
O1    C3    1.329351 A    
C48   C52   1.600077 S    
O2    C4    1.329355 A    
N6    O31   1.300455 A    
C2    O7    1.349567 A    
C27   C29   1.402440 A    
C37   C45   1.572620 S    
C46   C55   1.544581 S    
O5    C3    1.340170 A    
C18   H6    1.083762 S    
C44   C46   1.562565 S    
O11   C55   1.330667 A    
C28   H12   1.081864 S    
C11   C17   1.403736 A    
C7    C9    1.404450 A    
C52   H22   1.110689 S    
C44   C52   1.584085 S    
O15   C55   1.345761 A    
C36   N6    1.436064 S    
N2    O23   1.299096 A    
C6    C8    1.402805 A    
C37   H13   1.116207 S    
C33   C35   1.421755 A    
H17   C41   1.100937 S    
C39   I1    2.174865 S    
C38   H14   1.116207 S    
C5    C7    1.402809 A    
C32   C34   1.404931 A    
C39   H15   1.100053 S    
C19   C21   1.402674 A    
C25   C35   1.417652 A    
C37   N1    1.470478 S    
C26   C36   1.417643 A    
C50   H24   1.109464 S    
C42   C46   1.592197 S    
C42   N4    1.471152 S    
C28   C30   1.402431 A    
C44   I6    2.208154 S    
O6    V2    2.006176 S    
C20   H8    1.083898 S    
C43   C45   1.562559 S    
C38   C46   1.572637 S    
O12   C56   1.330676 A    
O15   V3    2.015782 S    
C35   N5    1.436065 S    
N3    O26   1.302252 A    
C25   C27   1.406576 A    
C34   C36   1.421751 A    
C41   C45   1.592194 S    
C38   C40   1.565153 S    
C5    C15   1.411115 A    
C6    C16   1.411108 A    
C50   I4    2.151563 S    
C48   C50   1.577409 S    
C5    H1    1.073414 S    
C29   N7    1.439311 S    
O14   V4    2.005978 S    
N8    O36   1.301368 A    
O5    V1    2.006194 S    
C54   O17   1.332892 A    
O3    C1    1.403832 A    
C21   C31   1.403101 A    
O4    V2    2.015815 S    
C18   C20   1.397057 A    
O13   C53   1.336236 A    
N1    O22   1.300920 A    
C15   C29   1.419272 A    
O6    C4    1.340170 A    
C27   H11   1.081862 S    
O14   C54   1.336233 A    
C22   C32   1.403107 A    
O1    V2    1.996452 S    
O17   V3    1.996753 S    
C1    C48   1.564011 S    
O2    V1    1.996453 S    
C31   C33   1.404927 A    
C49   H23   1.109463 S    
C7    C54   1.488610 S    
C13   C23   1.417801 A    
C14   C24   1.417799 A    
C51   H21   1.110683 S    
C8    C10   1.404454 A    
O19   V4    1.754959 S    
C9    C11   1.404997 A    
O11   V4    2.038657 S    
N5    O29   1.300450 A    
C10   C12   1.405005 A    
O4    C2    1.403831 A    
N4    O28   1.302253 A    
N7    O33   1.299427 A    
C9    H3    1.083912 S    
O3    V1    2.015808 S    
C6    H2    1.073401 S    
C10   H4    1.083910 S    
C23   C25   1.410902 A    
C14   C16   1.417680 A    
C12   C14   1.414841 A    
O13   V3    2.005986 S    
C4    C33   1.490674 S    
N7    O34   1.301372 A    
N6    O32   1.300265 A    
N3    O25   1.298375 A    
N8    O35   1.299437 A    
C13   C15   1.417685 A    
C40   C48   1.568355 S    
N1    O21   1.299131 A    
C47   C49   1.577410 S    
C43   I5    2.208146 S    
C41   N3    1.471152 S    
C30   N8    1.439307 S    
C40   I2    2.174868 S    
C51   I7    2.162298 S    
O16   V4    2.015787 S    
O7    V1    2.019330 S    
C1    O8    1.349567 A    
C17   C19   1.397053 A    
O8    V2    2.019332 S    
C24   C26   1.410903 A    
C26   C28   1.406573 A    
C2    C47   1.564007 S    
C17   H5    1.083762 S    
O18   V4    1.996743 S    
O16   C56   1.345760 A    
C16   C30   1.419269 A    
C45   C56   1.544593 S    
C21   C23   1.412857 A    
N2    O24   1.300895 A    
C22   C24   1.412855 A    
C11   C13   1.414842 A    
O20   V3    1.754954 S    
C12   C18   1.403737 A    
O12   V3    2.038653 S    
C31   H9    1.084201 S    
C47   C51   1.600081 S    
C37   C39   1.565153 S    
C38   N2    1.470478 S    
C52   I8    2.162289 S    
C44   H20   1.108707 S    
O9    V2    1.755307 S    
C49   I3    2.151560 S    
N5    O30   1.300228 A    
C43   H19   1.108713 S    
O10   V1    1.755302 S    
C3    C34   1.490672 S    
H18   C42   1.100937 S    
C19   H7    1.083898 S    
N4    O27   1.298377 A    
C53   O18   1.332893 A    
C43   C51   1.584096 S    
C42   C50   1.569651 S    
C20   C22   1.402676 A    
C41   C49   1.569655 S    
