data_mof_unit_37220.cif
_audit_creation_date              2012-12-11T15:52:24-0500
_audit_creation_method            fapswitch 2.2
_symmetry_space_group_name_H-M    P1
_symmetry_Int_Tables_number       1
_space_group_crystal_system       triclinic
_cell_length_a                    11.000286
_cell_length_b                    11.002073
_cell_length_c                    18.795081
_cell_angle_alpha                 89.986245
_cell_angle_beta                  89.919071
_cell_angle_gamma                 119.801769
_cell_volume                      1973.86155474

loop_
_atom_site_label
_atom_site_type_symbol
_atom_type_description
_atom_site_fract_x
_atom_site_fract_y
_atom_site_fract_z
_atom_type_partial_charge
C1    C     C_R   0.522615 0.452536 0.144886 0.556738
C2    C     C_3   0.057937 0.755000 0.446935 0.130444
C3    C     C_3   0.666344 0.908135 0.444754 0.130654
C4    C     C_3   0.265604 0.348736 0.446655 0.136550
C5    C     C_R   0.548109 0.419792 0.360886 0.571030
C6    C     C_R   0.544996 0.066964 0.354820 0.595304
C7    C     C_R   0.932749 0.477702 0.354787 0.578330
C8    C     C_R   0.458789 0.516166 0.647707 0.531600
C9    C     C_R   0.063417 0.544693 0.645964 0.553308
C10   C     C_R   0.481270 0.937391 0.646248 0.554173
C11   C     C_R   0.510042 0.017563 0.918848 0.013370
C12   C     C_R   0.577400 0.122698 0.139769 0.549697
C13   C     C_R   0.995770 0.497290 0.921713 0.015291
C14   C     C_R   0.504966 0.497375 0.920956 0.013832
C15   C     C_R   0.960672 0.489063 0.069647 0.014153
C16   C     C_R   0.554294 0.090761 0.063988 0.012058
C17   C     C_R   0.512707 0.471908 0.069176 0.011303
C18   C     C_R   0.400241 0.003630 0.962089 0.005938
C19   C     C_R   0.024520 0.410089 0.964459 0.006349
C20   C     C_R   0.596544 0.612029 0.963123 0.007415
C21   C     C_R   0.005899 0.405078 0.037307 -0.008126
C22   C     C_R   0.422224 0.040193 0.033243 0.002656
C23   C     C_R   0.930664 0.477864 0.145110 0.551340
C24   C     C_R   0.602491 0.598659 0.036071 -0.003165
C25   C     C_R   0.668146 0.121137 0.019210 -0.157414
C26   C     C_R   0.912782 0.561361 0.026201 -0.152948
C27   C     C_R   0.434867 0.352725 0.026275 -0.157326
C28   C     C_R   0.929218 0.564614 0.952650 -0.158674
C29   C     C_R   0.646778 0.086738 0.946904 -0.151672
C30   C     C_R   0.433943 0.364663 0.952590 -0.158685
C31   C     C_3   0.260780 0.877720 0.976865 -0.257840
C32   C     C_3   0.156438 0.403720 0.971946 -0.244566
C33   C     C_3   0.610378 0.753798 0.970367 -0.247421
C34   C     C_R   0.458206 0.519831 0.852478 0.527442
C35   C     C_3   0.134866 0.397201 0.051773 -0.274370
C36   C     C_3   0.284817 0.918355 0.054832 -0.257837
C37   C     C_3   0.618353 0.739198 0.050116 -0.270709
C38   C     C_R   0.495607 0.974447 0.572592 0.021344
C39   C     C_R   0.024481 0.521868 0.572416 0.003734
C40   C     C_R   0.497065 0.479624 0.580350 -0.018257
C41   C     C_R   0.984181 0.490745 0.425624 0.043343
C42   C     C_R   0.507639 0.018513 0.426390 0.050681
C43   C     C_R   0.537945 0.440088 0.436530 0.044822
C44   C     C_R   0.530103 0.896828 0.525698 -0.014562
C45   C     C_R   0.062366 0.542350 0.852723 0.533274
C46   C     C_R   0.086506 0.637958 0.526477 -0.015814
C47   C     C_R   0.387659 0.387016 0.537288 0.028867
C48   C     C_R   0.061124 0.621940 0.455413 0.048702
C49   C     C_R   0.540192 0.922560 0.454184 0.053897
C50   C     C_R   0.406626 0.372953 0.467613 -0.004183
C51   C     C_R   0.455119 0.083578 0.471773 -0.135610
C52   C     C_R   0.936633 0.371322 0.469521 -0.134124
C53   C     C_R   0.654549 0.510130 0.482197 -0.126882
C54   C     C_R   0.955483 0.387179 0.543153 -0.147838
C55   C     C_R   0.451529 0.064038 0.545217 -0.178321
C56   C     C_R   0.480872 0.939154 0.852478 0.527354
C57   C     C_R   0.633904 0.531791 0.554563 -0.150038
C58   C     C_3   0.652307 0.871584 0.523201 0.142321
C59   C     C_3   0.099042 0.780794 0.524996 0.133274
C60   C     C_3   0.243162 0.361285 0.525594 0.129169
Cl1   Cl    Cl    0.800120 0.994532 0.572556 -0.492633
Cl2   Cl    Cl    0.977025 0.802655 0.577919 -0.526124
Cl3   Cl    Cl    0.124340 0.198502 0.565454 -0.487009
Cl4   Cl    Cl    0.184951 0.869343 0.385000 -0.563780
Cl5   Cl    Cl    0.631038 0.767857 0.386836 -0.510706
Cl6   Cl    Cl    0.276487 0.490937 0.395626 -0.530582
Cr1   Cr    Cr6+3 0.769160 0.541570 0.250690 1.090070
Cr2   Cr    Cr6+3 0.458430 0.227590 0.250690 1.076857
Cr3   Cr    Cr6+3 0.772410 0.230840 0.250690 1.050417
Cr4   Cr    Cr6+3 0.541570 0.769160 0.749310 1.078460
Cr5   Cr    Cr6+3 0.227590 0.458430 0.749310 1.074446
Cr6   Cr    Cr6+3 0.230840 0.772410 0.749310 1.070903
H1    H     H_    0.772043 0.163160 0.041052 0.139375
H2    H     H_    0.110747 0.294859 0.075256 0.149810
H3    H     H_    0.211540 0.951738 0.075951 0.146349
H4    H     H_    0.722807 0.813515 0.072630 0.152257
H5    H     H_    0.173253 0.887055 0.953164 0.148806
H6    H     H_    0.145646 0.305509 0.949358 0.151869
H7    H     H_    0.709665 0.837705 0.946931 0.150703
H8    H     H_    0.216693 0.490996 0.080146 0.145929
H9    H     H_    0.296491 0.841642 0.088526 0.159134
H10   H     H_    0.527639 0.733459 0.079374 0.150525
H11   H     H_    0.422222 0.152984 0.450361 0.155345
H12   H     H_    0.866444 0.619150 0.049090 0.149232
H13   H     H_    0.876065 0.266706 0.447961 0.157500
H14   H     H_    0.758765 0.550032 0.461780 0.123735
H15   H     H_    0.914403 0.295792 0.577095 0.214631
H16   H     H_    0.414343 0.117250 0.579952 0.163973
H17   H     H_    0.721362 0.591130 0.589301 0.203413
H18   H     H_    0.620380 0.761193 0.534492 0.179163
H19   H     H_    0.207386 0.863920 0.533890 0.181484
H20   H     H_    0.231053 0.452098 0.540853 0.156407
H21   H     H_    0.952826 0.740837 0.435797 0.187488
H22   H     H_    0.762240 0.007876 0.430691 0.172412
H23   H     H_    0.370083 0.250603 0.049744 0.144826
H24   H     H_    0.197335 0.243120 0.423570 0.190707
H25   H     H_    0.901536 0.629714 0.921124 0.140997
H26   H     H_    0.735362 0.102400 0.914864 0.142181
H27   H     H_    0.365404 0.272662 0.921662 0.140056
H28   H     H_    0.258940 0.777575 0.965524 0.140501
H29   H     H_    0.250386 0.502120 0.954426 0.142912
H30   H     H_    0.514004 0.755038 0.953875 0.143741
O1    O     O_R   0.911480 0.572650 0.170990 -0.510380
O2    O     O_R   0.528970 0.640340 0.824320 -0.501313
O3    O     O_R   0.111370 0.471030 0.824320 -0.500889
O4    O     O_R   0.359660 0.888630 0.824320 -0.500074
O5    O     O_R   0.909980 0.572450 0.331530 -0.502249
O6    O     O_R   0.427550 0.337530 0.331530 -0.471413
O7    O     O_R   0.662470 0.090020 0.331530 -0.516173
O8    O     O_R   0.572450 0.909980 0.668470 -0.452358
O9    O     O_R   0.337530 0.427550 0.668470 -0.471528
O10   O     O_R   0.090020 0.662470 0.668470 -0.462691
O11   O     O_R   0.638950 0.528780 0.324500 -0.416957
O12   O     O_R   0.427350 0.338830 0.170990 -0.518996
O13   O     O_R   0.471220 0.110170 0.324500 -0.476282
O14   O     O_R   0.889830 0.361050 0.324500 -0.501134
O15   O     O_R   0.528780 0.638950 0.675500 -0.488108
O16   O     O_R   0.110170 0.471220 0.675500 -0.486405
O17   O     O_R   0.361050 0.889830 0.675500 -0.500314
O18   O     O_3   0.666667 0.333333 0.250560 -0.342853
O19   O     O_3   0.333333 0.666667 0.749440 -0.282445
O20   O     O_R   0.661170 0.088520 0.170990 -0.498007
O21   O     O_R   0.572650 0.911480 0.829010 -0.525330
O22   O     O_R   0.338830 0.427350 0.829010 -0.525713
O23   O     O_R   0.088520 0.661170 0.829010 -0.521395
O24   O     O_R   0.640340 0.528970 0.175680 -0.489772
O25   O     O_R   0.471030 0.111370 0.175680 -0.488551
O26   O     O_R   0.888630 0.359660 0.175680 -0.507823

loop_
_geom_bond_atom_site_label_1
_geom_bond_atom_site_label_2
_ccdc_geom_bond_type
C44   C49   A    
C28   H25   S    
C40   C47   A    
C13   C45   S    
Cr6   O10   S    
C35   H2    S    
Cr6   O19   S    
C27   H23   S    
C32   H29   S    
C16   C22   A    
C3    C49   S    
Cr1   O1    S    
C11   C18   A    
C12   O25   A    
C57   H17   S    
C29   H26   S    
C60   Cl3   S    
C52   H13   S    
C19   C21   A    
C54   H15   S    
C46   C59   S    
Cr4   O2    S    
C39   C54   A    
Cr4   O15   S    
C35   H8    S    
C9    C39   S    
C55   H16   S    
C10   O17   A    
Cr4   O8    S    
C47   C60   S    
C4    H24   S    
Cr3   O7    S    
Cr4   O21   S    
C43   C53   A    
C23   O1    A    
C38   C55   A    
C20   C24   A    
Cr3   O26   S    
C2    Cl4   S    
Cr5   O9    S    
C26   H12   S    
C13   C28   A    
C53   H14   S    
Cr1   O18   S    
C41   C52   A    
C25   H1    S    
C42   C51   A    
C58   Cl1   S    
C15   C23   S    
C5    C43   S    
C27   C30   A    
C9    O16   A    
C3    Cl5   S    
C14   C30   A    
Cr2   O6    S    
C19   C32   S    
C45   O3    A    
C52   C54   A    
C8    O15   A    
C31   H5    S    
C47   C50   A    
C60   H20   S    
C25   C29   A    
C46   C48   A    
C17   C24   A    
C13   C19   A    
C33   H30   S    
C17   C27   A    
C56   O21   A    
C12   C16   S    
Cr5   O22   S    
C1    O24   A    
Cr1   O24   S    
C44   C58   S    
C53   C57   A    
C2    C59   S    
C33   H7    S    
C15   C26   A    
C42   C49   A    
C2    C48   S    
C30   H27   S    
C33   C37   S    
C4    C50   S    
C7    O14   A    
C32   C35   S    
C38   C44   A    
C36   H3    S    
C14   C20   A    
C36   H9    S    
C4    C60   S    
C24   C37   S    
C59   H19   S    
C31   H28   S    
C58   H18   S    
Cr2   O25   S    
C56   O4    A    
C39   C46   A    
C20   C33   S    
C37   H4    S    
Cr6   O4    S    
Cr5   O3    S    
C6    O7    A    
C7    O5    A    
C37   H10   S    
C8    O9    A    
C1    O12   A    
C51   H11   S    
C16   C25   A    
C59   Cl2   S    
C34   O22   A    
C40   C57   A    
Cr5   O16   S    
C5    O11   A    
C18   C22   A    
C26   C28   A    
Cr5   O19   S    
C2    H21   S    
Cr3   O14   S    
C14   C34   S    
C43   C50   A    
C21   C35   S    
C22   C36   S    
Cr3   O18   S    
C1    C17   S    
Cr6   O23   S    
C10   C38   S    
Cr1   O11   S    
Cr2   O18   S    
C4    Cl6   S    
Cr4   O19   S    
Cr1   O5    S    
Cr3   O20   S    
C9    O10   A    
Cr6   O17   S    
C41   C48   A    
C10   O8    A    
C3    H22   S    
C51   C55   A    
C7    C41   S    
C34   O2    A    
C6    O13   A    
Cr2   O13   S    
C32   H6    S    
C3    C58   S    
C15   C21   A    
C12   O20   A    
C11   C29   A    
C6    C42   S    
C45   O23   A    
C31   C36   S    
C18   C31   S    
C8    C40   S    
C11   C56   S    
Cr2   O12   S    
C23   O26   A    
C5    O6    A    
