data_mof_unit_15839.cif
_audit_creation_date              2012-12-11T17:01:35-0500
_audit_creation_method            fapswitch 2.2
_symmetry_space_group_name_H-M    P1
_symmetry_Int_Tables_number       1
_space_group_crystal_system       triclinic
_cell_length_a                    15.047666
_cell_length_b                    14.836629
_cell_length_c                    15.012787
_cell_angle_alpha                 109.547968
_cell_angle_beta                  109.317246
_cell_angle_gamma                 109.367026
_cell_volume                      2585.89527223

loop_
_atom_site_label
_atom_site_type_symbol
_atom_type_description
_atom_site_fract_x
_atom_site_fract_y
_atom_site_fract_z
_atom_type_partial_charge
C1    C     C_R   0.930808 0.745562 0.024118 -0.145596
C2    C     C_R   0.700782 0.133572 0.698011 0.074010
C3    C     C_R   0.065848 0.503355 0.701110 0.080353
C4    C     C_R   0.699591 0.497845 0.066241 0.026565
C5    C     C_R   0.048544 0.592280 0.314205 -0.169335
C6    C     C_R   0.222194 0.405735 0.965600 -0.143978
C7    C     C_R   0.314173 0.769994 0.222157 -0.136016
C8    C     C_R   0.899706 0.192566 0.987381 -0.123877
C9    C     C_R   0.996954 0.194682 0.904527 -0.117663
C10   C     C_R   0.225035 0.773661 0.314935 -0.128274
C11   C     C_R   0.952651 0.408106 0.224340 0.185920
C12   C     C_R   0.794159 0.196718 0.701737 -0.133232
C13   C     C_R   0.314964 0.590045 0.050016 -0.136082
C14   C     C_R   0.024621 0.501349 0.326959 0.018280
C15   C     C_R   0.324821 0.497284 0.034082 0.011439
C16   C     C_R   0.327179 0.806712 0.325079 0.071263
C17   C     C_R   0.928845 0.128000 0.926722 0.086152
C18   C     C_3   0.543702 0.503825 0.963883 -0.438412
C19   C     C_3   0.440858 0.505188 0.955482 -0.394865
C20   C     C_3   0.524852 0.388838 0.055012 -0.396359
C21   C     C_3   0.629887 0.598763 0.169233 -0.119029
C22   C     C_3   0.602378 0.497248 0.066015 0.355980
C23   C     C_R   0.096580 0.593090 0.794760 -0.165495
C24   C     C_3   0.425366 0.496244 0.049741 0.379100
C25   C     C_3   0.420308 0.388693 0.046122 -0.411209
C26   C     C_3   0.523615 0.594899 0.161464 -0.449300
C27   C     C_R   0.623619 0.972838 0.518366 0.200793
C28   C     C_R   0.622611 0.019112 0.615820 0.041874
C29   C     C_R   0.530764 0.961824 0.621141 -0.198902
C30   C     C_R   0.433308 0.882261 0.524592 -0.199684
C31   C     C_R   0.429581 0.860356 0.424381 0.035349
C32   C     C_R   0.527623 0.894010 0.423368 0.149564
C33   C     C_3   0.563162 0.937543 0.357287 -0.526772
C34   C     C_R   0.700231 0.406985 0.002476 -0.121406
C35   C     C_3   0.668134 0.024309 0.461079 -0.498277
C36   C     C_R   0.119624 0.608399 0.526755 0.132901
C37   C     C_R   0.070919 0.508125 0.431660 0.063213
C38   C     C_R   0.067199 0.415981 0.441039 -0.159063
C39   C     C_R   0.080597 0.416772 0.537910 -0.195617
C40   C     C_R   0.100759 0.511067 0.624143 0.032847
C41   C     C_R   0.134891 0.610066 0.622468 0.140908
C42   C     C_3   0.105835 0.698748 0.655520 -0.490906
C43   C     C_3   0.089626 0.696980 0.550505 -0.482449
C44   C     C_R   0.850897 0.881135 0.955982 0.161259
C45   C     C_R   0.003057 0.409755 0.699537 -0.117032
C46   C     C_R   0.898684 0.831479 0.906512 -0.001228
C47   C     C_R   0.910813 0.850845 0.824560 -0.247053
C48   C     C_R   0.901859 0.938653 0.813881 0.195881
C49   C     C_R   0.886825 0.009995 0.890714 -0.037384
C50   C     C_R   0.845409 0.969141 0.948458 0.115405
C51   C     C_3   0.866921 0.024990 0.062928 -0.453411
C52   C     C_3   0.873545 0.928958 0.071287 -0.522919
C53   C     C_R   0.791048 0.590314 0.096381 -0.155048
C54   C     C_R   0.699949 0.196540 0.789564 -0.129060
C55   C     C_R   0.024748 0.750202 0.935150 -0.126739
C56   C     C_R   0.947570 0.775158 0.950476 0.089848
H1    H     H_    0.872964 0.748460 0.050497 0.108440
H2    H     H_    0.199314 0.319798 0.928095 0.100820
H3    H     H_    0.375674 0.789823 0.200213 0.101114
H4    H     H_    0.830404 0.160828 0.997352 0.143017
H5    H     H_    0.027096 0.169909 0.850397 0.136918
H6    H     H_    0.208159 0.802578 0.379838 0.086499
H7    H     H_    0.378386 0.671364 0.080254 0.082467
H8    H     H_    0.522277 0.431887 0.888701 0.172445
H9    H     H_    0.597411 0.579570 0.967759 0.159457
H10   H     H_    0.446562 0.582898 0.958055 0.157831
H11   H     H_    0.830221 0.168591 0.655068 0.121441
H12   H     H_    0.370065 0.435345 0.875356 0.164858
H13   H     H_    0.501297 0.315684 0.980026 0.154348
H14   H     H_    0.351111 0.314678 0.968285 0.158901
H15   H     H_    0.676851 0.675402 0.170280 0.119271
H16   H     H_    0.530027 0.674846 0.171710 0.140947
H17   H     H_    0.512497 0.586812 0.228640 0.164033
H18   H     H_    0.564835 0.378638 0.124884 0.170822
H19   H     H_    0.409415 0.381525 0.113708 0.162772
H20   H     H_    0.529171 0.988074 0.696748 0.128723
H21   H     H_    0.159827 0.676877 0.830793 0.105227
H22   H     H_    0.360312 0.848167 0.529099 0.127404
H23   H     H_    0.573484 0.878730 0.298142 0.191897
H24   H     H_    0.515406 0.972967 0.323489 0.204095
H25   H     H_    0.738934 0.015756 0.461553 0.210668
H26   H     H_    0.679069 0.108339 0.484685 0.201462
H27   H     H_    0.043170 0.340635 0.371654 0.158948
H28   H     H_    0.062479 0.340857 0.540102 0.134075
H29   H     H_    0.029007 0.670703 0.658406 0.206011
H30   H     H_    0.175877 0.777265 0.728533 0.188463
H31   H     H_    0.003796 0.667544 0.493225 0.212082
H32   H     H_    0.645385 0.320972 0.969981 0.101678
H33   H     H_    0.150808 0.774597 0.563679 0.184139
H34   H     H_    0.934901 0.804024 0.774751 0.159553
H35   H     H_    0.945699 0.103473 0.118501 0.212003
H36   H     H_    0.795359 0.028928 0.065647 0.219974
H37   H     H_    0.956379 0.952908 0.131001 0.204243
H38   H     H_    0.806432 0.878957 0.079716 0.190013
H39   H     H_    0.976753 0.325290 0.644788 0.096579
H40   H     H_    0.819949 0.675150 0.152402 0.094085
H41   H     H_    0.646477 0.168681 0.819660 0.093823
H42   H     H_    0.055968 0.761782 0.882205 0.100923
H43   H     H_    0.092651 0.676588 0.376565 0.112719
N1    N     N_R   0.995640 0.706130 0.053910 -0.042940
N2    N     N_R   0.153680 0.443190 0.946090 -0.036861
N3    N     N_R   0.208920 0.706140 0.152110 -0.040334
N4    N     N_R   0.947120 0.293870 0.002870 -0.042244
N5    N     N_R   0.004360 0.293870 0.946090 -0.046091
N6    N     N_R   0.151690 0.706140 0.208890 -0.039473
N7    N     N_R   0.945990 0.443210 0.152110 -0.054963
N8    N     N_R   0.210060 0.556810 0.002870 -0.035199
N9    N     N_R   0.848310 0.293860 0.791110 -0.042208
N10   N     N_R   0.054010 0.556790 0.847890 -0.040058
N11   N     N_R   0.789940 0.443190 0.997130 -0.036053
N12   N     N_R   0.997630 0.443170 0.791110 -0.042132
N13   N     N_R   0.846320 0.556810 0.053910 -0.037372
N14   N     N_R   0.791080 0.293860 0.847890 -0.040793
N15   N     N_R   0.052880 0.706130 0.997130 -0.043420
N16   N     N_R   0.002370 0.556830 0.208890 -0.046462
Ni1   Ni    Ni4+2 0.999010 0.630300 0.130220 0.215543
Ni2   Ni    Ni4+2 0.000990 0.369700 0.869780 0.214501
Ni3   Ni    Ni4+2 0.130280 0.630280 0.000000 0.209164
Ni4   Ni    Ni4+2 0.869720 0.369720 0.000000 0.229660
I1    I     I_    0.828646 0.261495 0.193064 -0.545053
N17   N     N_3   0.696591 0.604763 0.270175 -0.211276
H44   H     H_    0.649525 0.543890 0.280931 0.129293
H45   H     H_    0.723617 0.680778 0.335745 0.134906
I2    I     I_    0.908205 0.952243 0.679470 -0.532551

loop_
_geom_bond_atom_site_label_1
_geom_bond_atom_site_label_2
_ccdc_geom_bond_type
N2    N8    A    
C21   C26   S    
C38   H27   S    
C26   H16   S    
C41   C42   S    
C6    H2    S    
N6    Ni1   S    
C3    C23   A    
N1    Ni1   S    
C13   N8    A    
C2    C12   A    
C35   H25   S    
C29   H20   S    
C18   H9    S    
C28   C29   A    
C29   C30   A    
C21   H15   S    
C9    H5    S    
C36   C37   A    
C1    C56   A    
C24   C26   S    
C39   H28   S    
N10   N12   A    
C38   C39   A    
C4    C53   A    
C11   C14   A    
N7    Ni4   S    
C20   C25   S    
N16   Ni1   S    
C54   N14   A    
C26   H17   S    
C19   H10   S    
C18   C19   S    
C6    N2    A    
N3    N6    A    
C51   H35   S    
C6    C15   A    
N14   Ni4   S    
C31   C32   A    
C7    N3    A    
C54   H41   S    
C52   H38   S    
C42   H30   S    
N8    Ni3   S    
N3    Ni3   S    
C44   C52   S    
C21   C22   S    
C5    N16   A    
C53   H40   S    
C36   C41   A    
C10   H6    S    
C11   N7    A    
C11   I1    S    
C1    N1    A    
C7    H3    S    
C35   H26   S    
C44   C46   A    
N10   Ni3   S    
C23   N10   A    
C12   H11   S    
C4    C34   A    
C51   C52   S    
C5    H43   S    
C19   H12   S    
N1    N15   A    
C24   C25   S    
C2    C54   A    
C17   C49   S    
C39   C40   A    
C12   N9    A    
C33   H23   S    
C34   H32   S    
C27   C35   S    
C3    C45   A    
C16   C31   S    
N9    N14   A    
C37   C38   A    
C1    H1    S    
C51   H36   S    
C4    C22   S    
C47   C48   A    
C13   H7    S    
C55   C56   A    
C50   C51   S    
N17   H44   S    
C20   H18   S    
C52   H37   S    
C42   H29   S    
C43   H33   S    
C23   H21   S    
C5    C14   A    
N15   Ni3   S    
N4    Ni4   S    
C53   N13   A    
C9    C17   A    
C40   C41   A    
C20   C22   S    
C3    C40   S    
C13   C15   A    
C34   N11   A    
C47   H34   S    
C20   H13   S    
C42   C43   S    
C45   H39   S    
N13   Ni1   S    
N5    Ni2   S    
C44   C50   A    
C46   C47   A    
C15   C24   S    
C27   C32   A    
C18   C22   S    
N9    Ni2   S    
C7    C16   A    
C36   C43   S    
N11   Ni4   S    
C48   I2    S    
C45   N12   A    
C33   H24   S    
C55   N15   A    
C8    C17   A    
N7    N16   A    
N12   Ni2   S    
C43   H31   S    
C32   C33   S    
C19   C24   S    
N2    Ni2   S    
C10   C16   A    
C8    H4    S    
C14   C37   S    
C18   H8    S    
C30   C31   A    
C9    N5    A    
C48   C49   A    
C55   H42   S    
C33   C35   S    
C21   N17   S    
C8    N4    A    
N11   N13   A    
N17   H45   S    
C30   H22   S    
C49   C50   A    
C46   C56   S    
N4    N5    A    
C10   N6    A    
C2    C28   S    
C25   H14   S    
C25   H19   S    
C27   C28   A    
