data_mof_unit_47986.cif
_audit_creation_date              2012-12-11T16:05:00-0500
_audit_creation_method            fapswitch 2.2
_symmetry_space_group_name_H-M    P1
_symmetry_Int_Tables_number       1
_space_group_crystal_system       triclinic
_cell_length_a                    10.732309
_cell_length_b                    10.705604
_cell_length_c                    16.953046
_cell_angle_alpha                 98.885463
_cell_angle_beta                  99.27116
_cell_angle_gamma                 61.444468
_cell_volume                      1681.78686993

loop_
_atom_site_label
_atom_site_type_symbol
_atom_type_description
_atom_site_fract_x
_atom_site_fract_y
_atom_site_fract_z
_atom_type_partial_charge
C1    C     C_R   0.353092 0.777573 0.399649 0.529506
C2    C     C_3   0.732366 0.301250 0.249016 -0.117997
C3    C     C_3   0.811782 0.350944 0.320017 0.064342
C4    C     C_3   0.955558 0.249949 0.289583 -0.152832
C5    C     C_3   0.939203 0.370703 0.242886 -0.114114
C6    C     C_3   0.794258 0.472484 0.274265 -0.104278
C7    C     C_3   0.716169 0.422065 0.202221 -0.148826
C8    C     C_3   0.859761 0.321457 0.171773 0.061873
C9    C     C_3   0.468451 0.779722 0.222928 -0.131453
C10   C     C_3   0.405771 0.695836 0.254982 -0.112222
C11   C     C_3   0.341773 0.818950 0.320366 0.057356
C12   C     C_R   0.370501 0.346950 0.358847 0.531356
C13   C     C_3   0.405619 0.901493 0.290117 -0.126492
C14   C     C_3   0.265462 0.973673 0.235207 -0.110993
C15   C     C_3   0.202609 0.889933 0.266732 -0.120082
C16   C     C_3   0.265781 0.767649 0.200689 -0.114659
C17   C     C_3   0.328482 0.850504 0.169696 0.059247
C18   C     C_3   0.461915 0.262290 0.780138 -0.141439
C19   C     C_3   0.402379 0.403843 0.742958 0.028118
C20   C     C_3   0.346663 0.340295 0.666507 0.054672
C21   C     C_3   0.406375 0.198691 0.703003 -0.139820
C22   C     C_3   0.262604 0.256477 0.735907 0.034169
C23   C     C_R   0.774090 0.378060 0.401096 0.534517
C24   C     C_3   0.202148 0.398466 0.698715 -0.160743
C25   C     C_3   0.258061 0.462330 0.776781 -0.159810
C26   C     C_3   0.317518 0.319720 0.812779 0.051552
C27   C     C_1   0.837667 0.333107 0.706253 -0.013576
C28   C     C_1   0.876970 0.301762 0.773947 0.006765
C29   C     C_1   0.339428 0.810112 0.710375 0.021574
C30   C     C_1   0.315880 0.833274 0.779500 0.013646
C31   C     C_R   0.896838 0.308645 0.092003 0.547291
C32   C     C_R   0.319297 0.299180 0.120202 0.534038
C33   C     C_R   0.296346 0.888846 0.087844 0.529787
C34   C     C_R   0.356061 0.773436 0.626939 0.572720
C35   C     C_R   0.930273 0.280890 0.855765 0.630856
C36   C     C_R   0.306774 0.292552 0.891250 0.576269
C37   C     C_R   0.282488 0.879879 0.860384 0.570822
C38   C     C_R   0.371218 0.348472 0.587369 0.575348
C39   C     C_R   0.780189 0.376662 0.627807 0.581769
C40   C     C_1   0.343708 0.336592 0.275062 -0.062699
C41   C     C_1   0.332372 0.326039 0.203855 -0.060569
C42   C     C_3   0.877665 0.199319 0.216949 -0.115468
Cr1   Cr    Cr6+3 0.608340 0.611040 0.520430 1.040172
Cr2   Cr    Cr6+3 0.287650 0.601120 0.489350 1.040219
Cr3   Cr    Cr6+3 0.604040 0.287870 0.490280 1.036493
Cr4   Cr    Cr6+3 0.054020 0.052700 0.970850 1.034821
Cr5   Cr    Cr6+3 0.059230 0.375120 0.993390 1.029607
Cr6   Cr    Cr6+3 0.374950 0.061200 0.992340 1.042243
H1    H     H_    0.647465 0.272446 0.253764 0.134091
H2    H     H_    0.211001 0.087896 0.223474 0.115513
H3    H     H_    0.095231 0.933479 0.287129 0.117909
H4    H     H_    0.210739 0.710832 0.162740 0.124187
H5    H     H_    0.568184 0.208667 0.814559 0.129456
H6    H     H_    0.465121 0.090844 0.671748 0.124474
H7    H     H_    0.096447 0.451527 0.663699 0.122703
H8    H     H_    0.910181 0.088097 0.190249 0.130175
H9    H     H_    0.050270 0.184360 0.329615 0.101181
H10   H     H_    0.024326 0.399414 0.238406 0.126711
H11   H     H_    0.761803 0.584410 0.299645 0.132663
H12   H     H_    0.621672 0.487182 0.161925 0.103921
H13   H     H_    0.460190 0.581604 0.266689 0.115346
H14   H     H_    0.575273 0.736872 0.201956 0.113747
H15   H     H_    0.460622 0.957701 0.328711 0.127615
O1    O     O_R   0.751220 0.499230 0.435170 -0.530836
O2    O     O_R   0.297880 0.469080 0.560050 -0.487364
O3    O     O_R   0.489720 0.254590 0.564810 -0.512560
O4    O     O_R   0.725220 0.304230 0.585080 -0.475695
O5    O     O_3   0.500010 0.500010 0.500020 -0.238270
O6    O     O_R   0.171830 0.913880 0.057510 -0.527716
O7    O     O_R   0.940690 0.186050 0.054730 -0.508861
O8    O     O_R   0.920470 0.405720 0.075010 -0.521931
O9    O     O_R   0.196690 0.370460 0.084120 -0.510474
O10   O     O_R   0.412990 0.180750 0.091610 -0.513507
O11   O     O_R   0.366620 0.943130 0.065760 -0.506624
O12   O     O_R   0.477220 0.727600 0.436870 -0.511716
O13   O     O_R   0.160510 0.906330 0.879210 -0.507202
O14   O     O_R   0.930190 0.179050 0.889450 -0.491701
O15   O     O_R   0.909140 0.398170 0.896710 -0.521548
O16   O     O_R   0.186190 0.363460 0.918830 -0.501475
O17   O     O_R   0.401670 0.173200 0.913310 -0.503625
O18   O     O_R   0.356120 0.936130 0.900470 -0.471957
O19   O     O_3   0.162740 0.163010 0.985530 -0.258008
O20   O     O_R   0.258650 0.745120 0.411470 -0.522092
O21   O     O_R   0.297070 0.467240 0.395960 -0.502798
O22   O     O_R   0.488830 0.252610 0.387790 -0.525369
O23   O     O_R   0.724400 0.302390 0.420980 -0.514466
O24   O     O_R   0.752100 0.501210 0.612190 -0.495201
O25   O     O_R   0.478040 0.729440 0.600970 -0.473710
O26   O     O_R   0.259530 0.747110 0.588490 -0.509427
C43   C     C_2   0.486515 0.482679 0.752024 0.192112
H16   H     H_    0.518422 0.519466 0.811241 0.087309
O27   O     O_2   0.520502 0.505129 0.692952 -0.490647
C44   C     C_2   0.188755 0.168175 0.724699 0.176025
H17   H     H_    0.150232 0.139548 0.665105 0.081831
O28   O     O_2   0.173254 0.126183 0.782802 -0.529752
H18   H     H_    0.199696 0.569689 0.808555 0.124484

loop_
_geom_bond_atom_site_label_1
_geom_bond_atom_site_label_2
_ccdc_geom_bond_type
C44   H17   S    
C18   C21   S    
C3    C23   S    
C2    C7    S    
C1    C11   S    
Cr5   O16   S    
C3    C6    S    
Cr4   O13   S    
C7    C8    S    
C32   O9    A    
C14   H2    S    
C24   H7    S    
C12   O22   A    
Cr1   O25   S    
C8    C42   S    
C5    C6    S    
C15   C16   S    
Cr6   O18   S    
C12   O21   A    
C18   C19   S    
Cr5   O19   S    
C9    C13   S    
Cr4   O6    S    
C18   H5    S    
C42   H8    S    
Cr4   O19   S    
C11   C15   S    
C31   O7    A    
C38   O3    A    
C28   C35   S    
C27   C39   S    
Cr1   O5    S    
C23   O23   A    
C18   C26   S    
C4    H9    S    
Cr3   O4    S    
C32   C41   S    
C15   H3    S    
C9    C10   S    
C33   O6    A    
Cr2   O20   S    
C31   O8    A    
C44   O28   D    
C21   C22   S    
C14   C17   S    
C37   O18   A    
Cr2   O2    S    
C17   C33   S    
Cr6   O10   S    
Cr1   O1    S    
Cr1   O12   S    
C9    H14   S    
C1    O12   A    
Cr6   O11   S    
C24   C25   S    
C36   O17   A    
C32   O10   A    
C16   C17   S    
C25   C26   S    
C29   C34   S    
C35   O14   A    
C30   C37   S    
C12   C40   S    
Cr3   O22   S    
C29   C30   T    
C2    H1    S    
C5    C8    S    
C20   C38   S    
C43   O27   D    
C13   H15   S    
C38   O2    A    
Cr3   O5    S    
C34   O25   A    
Cr5   O8    S    
C5    H10   S    
C26   C36   S    
C23   O1    A    
C37   O13   A    
C22   C44   S    
C22   C24   S    
Cr2   O5    S    
C10   H13   S    
C3    C4    S    
C7    H12   S    
Cr3   O3    S    
C9    C17   S    
C40   C41   T    
C8    C31   S    
C39   O4    A    
C6    H11   S    
C16   H4    S    
C4    C5    S    
Cr2   O21   S    
C36   O16   A    
Cr4   O14   S    
C6    C7    S    
C1    O20   A    
C35   O15   A    
Cr1   O24   S    
Cr6   O17   S    
C19   C20   S    
C2    C3    S    
C34   O26   A    
C19   C43   S    
C10   C16   S    
C11   C13   S    
C43   H16   S    
C21   H6    S    
C4    C42   S    
C2    C42   S    
C39   O24   A    
Cr6   O19   S    
Cr3   O23   S    
C19   C25   S    
Cr5   O9    S    
Cr4   O7    S    
C10   C11   S    
C33   O11   A    
C20   C21   S    
C25   H18   S    
C22   C26   S    
C27   C28   T    
C14   C15   S    
Cr5   O15   S    
C13   C14   S    
C20   C24   S    
Cr2   O26   S    
