data_mof_unit_59244.cif
_audit_creation_date              2013-03-05T16:50:11-0500
_audit_creation_method            fapswitch 2.2
_symmetry_space_group_name_H-M    P1
_symmetry_Int_Tables_number       1
_space_group_crystal_system       triclinic
_cell_length_a                    27.74973
_cell_length_b                    10.878569
_cell_length_c                    26.5377
_cell_angle_alpha                 90.385475
_cell_angle_beta                  90.189578
_cell_angle_gamma                 88.388463
_cell_volume                      8007.741766

loop_
_atom_site_label
_atom_site_type_symbol
_atom_site_description
_atom_site_fract_x
_atom_site_fract_y
_atom_site_fract_z
_atom_type_partial_charge
O1    O     O_R   0.500000 0.319660 0.542350 -0.494507
O2    O     O_R   0.500000 0.680340 0.457650 -0.506950
O3    O     O_R   0.500000 0.319630 0.457650 -0.594453
O4    O     O_R   0.500000 0.680370 0.542350 -0.597962
C1    C     C_R   0.499856 0.262174 0.499815 0.904069
C2    C     C_R   0.500172 0.737929 0.500182 0.868942
O5    O     O_R   0.430260 0.500030 0.542340 -0.526952
O6    O     O_R   0.569740 0.499970 0.457660 -0.586917
O7    O     O_R   0.430270 0.500010 0.457650 -0.550459
O8    O     O_R   0.569730 0.499990 0.542350 -0.508777
C3    C     C_R   0.407419 0.498828 0.499928 0.847711
C4    C     C_R   0.592532 0.498440 0.499993 0.851020
Cu1   Cu    Cu3+1 0.500000 0.500020 0.550150 1.064946
Cu2   Cu    Cu3+1 0.500000 0.499980 0.449850 1.027063
O9    O     O_2   0.518465 0.697094 0.788295 -0.540146
O10   O     O_2   0.492207 0.275842 0.213693 -0.527418
C5    C     C_R   0.474218 0.710099 0.055114 0.207535
C6    C     C_R   0.479868 0.266554 0.944293 0.217574
C7    C     C_R   0.178727 0.386634 0.492659 0.565401
C8    C     C_R   0.820755 0.598296 0.518755 0.568031
O11   O     O_2   0.204739 0.281731 0.484462 -0.508093
O12   O     O_2   0.794574 0.694629 0.537332 -0.514841
N1    N     N_R   0.201634 0.495783 0.498309 -0.459059
N2    N     N_R   0.797929 0.500035 0.498065 -0.459268
C9    C     C_R   0.176114 0.604064 0.505397 0.535569
C10   C     C_R   0.823414 0.400848 0.478988 0.537433
C11   C     C_R   0.278289 0.558263 0.461261 -0.114246
C12   C     C_R   0.719387 0.579163 0.467460 -0.065527
C13   C     C_R   0.328497 0.558380 0.461835 -0.280975
C14   C     C_R   0.669193 0.577792 0.468001 -0.301743
C15   C     C_R   0.329812 0.431449 0.537098 0.376142
C16   C     C_R   0.672061 0.413846 0.530025 0.393264
C17   C     C_R   0.279164 0.432826 0.536356 -0.169747
C18   C     C_R   0.722658 0.416086 0.529237 -0.213552
C19   C     C_R   0.253409 0.495880 0.498597 0.323141
C20   C     C_R   0.746251 0.498644 0.498202 0.323489
C21   C     C_R   0.101434 0.493165 0.503232 -0.052309
C22   C     C_R   0.898150 0.496153 0.503090 -0.052844
C23   C     C_R   0.128258 0.383195 0.495272 -0.123617
C24   C     C_R   0.871323 0.598435 0.521467 -0.124285
C25   C     C_R   0.104431 0.271768 0.492105 -0.124882
C26   C     C_R   0.895298 0.695878 0.544145 -0.123996
C27   C     C_R   0.125565 0.604894 0.507767 -0.004767
C28   C     C_R   0.873958 0.396789 0.481282 0.000898
C29   C     C_R   0.354535 0.496286 0.499807 -0.050558
C30   C     C_R   0.645325 0.496656 0.499620 -0.030117
H1    H     H_    0.259577 0.384294 0.564929 0.133788
H2    H     H_    0.743878 0.353554 0.552563 0.137062
H3    H     H_    0.124750 0.185489 0.489133 0.209102
H4    H     H_    0.875067 0.771893 0.561206 0.208691
C31   C     C_R   0.975591 0.386258 0.490733 0.058532
C32   C     C_R   0.024027 0.601911 0.517491 0.051608
C33   C     C_R   0.973355 0.597805 0.524528 -0.078497
C34   C     C_R   0.026348 0.380165 0.497858 -0.077267
C35   C     C_R   0.949144 0.493337 0.506270 0.047123
C36   C     C_R   0.050494 0.491618 0.506354 0.046957
C37   C     C_R   0.950667 0.291865 0.465985 -0.211924
C38   C     C_R   0.048823 0.713450 0.518382 -0.205797
C39   C     C_R   0.900685 0.296466 0.461827 -0.150164
C40   C     C_R   0.098765 0.714732 0.514223 -0.144581
H5    H     H_    0.441935 0.629357 0.725379 0.178451
H6    H     H_    0.557931 0.369294 0.274866 0.188861
O13   O     O_2   0.799864 0.306431 0.457935 -0.540842
O14   O     O_2   0.199601 0.710288 0.510975 -0.535400
C41   C     C_R   0.054378 0.268249 0.495526 0.367623
C42   C     C_R   0.945451 0.694571 0.547802 0.371053
H7    H     H_    0.648874 0.641373 0.444293 0.153081
H8    H     H_    0.347013 0.608013 0.432842 0.191903
H9    H     H_    0.737454 0.642757 0.443193 0.148283
H10   H     H_    0.258671 0.606461 0.431723 0.156139
H11   H     H_    0.883093 0.220947 0.443181 0.190875
H12   H     H_    0.116261 0.802451 0.515909 0.199095
H13   H     H_    0.969489 0.215212 0.448034 0.197013
H14   H     H_    0.029919 0.801480 0.520633 0.209699
H15   H     H_    0.354736 0.318533 0.338011 0.123537
H16   H     H_    0.630458 0.685613 0.675959 0.129571
C43   C     C_R   0.361279 0.238043 0.412441 0.466974
C44   C     C_R   0.628400 0.742779 0.597731 0.481801
C45   C     C_R   0.392020 0.172777 0.445303 -0.143012
C46   C     C_R   0.601582 0.807762 0.561283 -0.154212
H17   H     H_    0.379741 0.151482 0.482881 0.169345
H18   H     H_    0.614868 0.811931 0.523005 0.136029
C47   C     C_R   0.438304 0.134136 0.429736 0.018829
C48   C     C_R   0.557827 0.867622 0.574131 0.046187
C49   C     C_R   0.453838 0.161134 0.380881 -0.100356
C50   C     C_R   0.541052 0.862750 0.623858 -0.133315
H19   H     H_    0.489355 0.131008 0.368348 0.140715
H20   H     H_    0.507539 0.909424 0.634310 0.142940
C51   C     C_R   0.423791 0.228695 0.348324 -0.181297
C52   C     C_R   0.567162 0.796323 0.660129 -0.199745
H21   H     H_    0.436165 0.250911 0.310919 0.183326
H22   H     H_    0.553774 0.791671 0.698291 0.199903
C53   C     C_R   0.377694 0.267138 0.363875 -0.223878
C54   C     C_R   0.610597 0.736256 0.647281 -0.216699
C55   C     C_R   0.471084 0.935554 0.465228 0.382244
C56   C     C_R   0.529558 0.064788 0.534207 0.379510
C57   C     C_R   0.500353 0.872032 0.500436 -0.166669
C58   C     C_R   0.499869 0.128244 0.499450 -0.167014
C59   C     C_R   0.529102 0.935576 0.535535 -0.172770
C60   C     C_R   0.470675 0.064961 0.464761 -0.166470
H23   H     H_    0.507451 0.794115 0.965747 0.167211
H24   H     H_    0.515275 0.183958 0.035398 0.174700
C61   C     C_R   0.496823 0.599727 0.187727 0.638235
C62   C     C_R   0.485779 0.385141 0.811028 0.618599
O15   O     O_2   0.504430 0.704572 0.213497 -0.543450
O16   O     O_2   0.470911 0.288926 0.783572 -0.556731
N3    N     N_R   0.496160 0.490953 0.213535 -0.427827
N4    N     N_R   0.497192 0.490442 0.786383 -0.425109
C63   C     C_R   0.495765 0.381337 0.187739 0.537285
C64   C     C_R   0.504851 0.596081 0.813118 0.550317
C65   C     C_R   0.531438 0.424842 0.295271 -0.361621
C66   C     C_R   0.467074 0.570300 0.704747 -0.353330
C67   C     C_R   0.532848 0.428762 0.348203 0.336925
C68   C     C_R   0.467434 0.572081 0.651721 0.357523
C69   C     C_R   0.464731 0.566674 0.349811 0.488313
C70   C     C_R   0.533111 0.427089 0.650355 0.489164
C71   C     C_R   0.461604 0.562236 0.296143 0.100169
C72   C     C_R   0.531993 0.417623 0.703914 0.069642
C73   C     C_R   0.496201 0.492203 0.268560 0.249734
C74   C     C_R   0.498747 0.492034 0.731438 0.261565
C75   C     C_R   0.493222 0.490020 0.107523 -0.151160
C76   C     C_R   0.492848 0.488427 0.892520 -0.145437
C77   C     C_R   0.490523 0.602345 0.134601 -0.116186
C78   C     C_R   0.487694 0.378653 0.864694 -0.123034
C79   C     C_R   0.479353 0.712389 0.108036 0.201757
C80   C     C_R   0.483521 0.266829 0.891298 0.216787
C81   C     C_R   0.498176 0.378277 0.134310 -0.035934
C82   C     C_R   0.499339 0.599430 0.866322 -0.040064
N5    N     N_R   0.500000 0.499970 0.374520 -0.206816
N6    N     N_R   0.500000 0.500030 0.625480 -0.211944
C83   C     C_R   0.492609 0.600199 0.973683 0.050908
C84   C     C_R   0.493953 0.376449 0.026625 0.051318
C85   C     C_R   0.488259 0.375456 0.972798 -0.023648
C86   C     C_R   0.486401 0.601371 0.027203 -0.023645
C87   C     C_R   0.491336 0.487797 0.946411 0.010450
C88   C     C_R   0.491219 0.489328 0.053710 0.014117
C89   C     C_R   0.500856 0.708391 0.946635 -0.234050
C90   C     C_R   0.504708 0.268681 0.054149 -0.239871
C91   C     C_R   0.501122 0.710262 0.894059 0.261842
C92   C     C_R   0.505480 0.267424 0.106853 0.261794
N7    N     N_2   0.435570 0.653369 0.625264 -0.369413
H25   H     H_    0.446229 0.743309 0.626535 0.240297
C93   C     C_3   0.384790 0.641991 0.635997 -0.641564
H26   H     H_    0.363265 0.689614 0.606271 0.231902
H27   H     H_    0.375702 0.685052 0.672949 0.197474
H28   H     H_    0.374926 0.543819 0.636346 0.266055
N8    N     N_2   0.567368 0.354521 0.374440 -0.366329
H29   H     H_    0.561936 0.261815 0.369644 0.236431
C94   C     C_3   0.617114 0.385267 0.365985 -0.638759
H30   H     H_    0.640542 0.335375 0.393503 0.236093
H31   H     H_    0.622009 0.485567 0.371272 0.236648
H32   H     H_    0.628540 0.357871 0.327341 0.202243
O17   O     O_3   0.035058 0.153818 0.501156 -0.737303
H33   H     H_    0.007043 0.162787 0.524102 0.336408
O18   O     O_3   0.965082 0.783104 0.578391 -0.731374
H34   H     H_    0.993423 0.745260 0.595777 0.330322
O19   O     O_3   0.315544 0.271024 0.428634 -0.701899
H35   H     H_    0.298476 0.316057 0.401207 0.325070
O20   O     O_3   0.671768 0.687696 0.583978 -0.714848
H36   H     H_    0.685857 0.644626 0.613612 0.323195
O21   O     O_3   0.441936 0.867477 0.433696 -0.686158
H37   H     H_    0.424628 0.920592 0.409184 0.337564
O22   O     O_3   0.559108 0.132708 0.565358 -0.663270
H38   H     H_    0.583045 0.078946 0.582761 0.336124
N9    N     N_2   0.498893 0.825889 0.869520 -0.382983
H39   H     H_    0.514991 0.895175 0.889495 0.248000
C95   C     C_3   0.451041 0.861486 0.851871 -0.601879
H40   H     H_    0.429575 0.902743 0.883314 0.205849
H41   H     H_    0.431706 0.781614 0.836175 0.219518
H42   H     H_    0.453965 0.929148 0.821121 0.233820
N10   N     N_2   0.515531 0.153698 0.131530 -0.375229
H43   H     H_    0.501219 0.078932 0.113310 0.243924
C96   C     C_3   0.565822 0.132843 0.144208 -0.626840
H44   H     H_    0.587819 0.124815 0.109348 0.198669
H45   H     H_    0.570094 0.046085 0.165777 0.230818
H46   H     H_    0.579166 0.209322 0.167940 0.238968
O23   O     O_3   0.355649 0.364575 0.572647 -0.738899
H47   H     H_    0.332849 0.324390 0.595578 0.322597
O24   O     O_3   0.648254 0.329527 0.558690 -0.692297
H48   H     H_    0.672277 0.278288 0.577452 0.318433
O25   O     O_3   0.432863 0.636828 0.378417 -0.663416
H49   H     H_    0.402965 0.654032 0.359125 0.299701
O26   O     O_3   0.567222 0.363879 0.622259 -0.615931
H50   H     H_    0.597257 0.356833 0.642382 0.316804
N11   N     N_2   0.424632 0.628346 0.269546 -0.404377
H51   H     H_    0.416077 0.715164 0.283164 0.261242
C97   C     C_3   0.383272 0.556791 0.256382 -0.722357
H52   H     H_    0.358127 0.613024 0.232751 0.230982
H53   H     H_    0.364135 0.528631 0.290965 0.211594
H54   H     H_    0.394622 0.473630 0.234442 0.250513
N12   N     N_2   0.564865 0.337912 0.730295 -0.428751
H55   H     H_    0.599753 0.368074 0.730507 0.234328
C98   C     C_3   0.561688 0.207439 0.719285 -0.604132
H56   H     H_    0.583675 0.154340 0.747003 0.207876
H57   H     H_    0.575928 0.184097 0.681368 0.233723
H58   H     H_    0.523870 0.177598 0.721469 0.276700
N13   N     N_2   0.468611 0.824996 0.133856 -0.434208
H59   H     H_    0.496619 0.866620 0.152250 0.287755
C99   C     C_3   0.421247 0.839250 0.156272 -0.588279
H60   H     H_    0.424415 0.842343 0.197960 0.253443
H61   H     H_    0.397504 0.762637 0.145460 0.214129
H62   H     H_    0.404183 0.926975 0.143319 0.215086
N14   N     N_2   0.486747 0.151493 0.865980 -0.436330
H63   H     H_    0.459080 0.133996 0.841309 0.293075
C100  C     C_3   0.534883 0.116769 0.849144 -0.658425
H64   H     H_    0.551520 0.192818 0.828428 0.252591
H65   H     H_    0.533628 0.035734 0.823619 0.245594
H66   H     H_    0.557962 0.093554 0.882192 0.214662
N15   N     N_2   0.451362 0.813106 0.030796 -0.441011
H67   H     H_    0.456589 0.897930 0.047165 0.271005
C101  C     C_3   0.401870 0.794618 0.015845 -0.676769
H68   H     H_    0.388670 0.873515 0.992892 0.218267
H69   H     H_    0.378707 0.787241 0.049682 0.226807
H70   H     H_    0.398952 0.710031 0.992484 0.240306
N16   N     N_2   0.462548 0.159192 0.968090 -0.449763
H71   H     H_    0.472264 0.076214 0.951502 0.274042
C102  C     C_3   0.412132 0.167211 0.981718 -0.699922
H72   H     H_    0.403166 0.086899 0.005039 0.226719
H73   H     H_    0.389298 0.167797 0.947237 0.227702
H74   H     H_    0.404145 0.251675 0.004300 0.243948

loop_
_geom_bond_atom_site_label_1
_geom_bond_atom_site_label_2
_geom_bond_distance
_ccdc_geom_bond_type
C93   H28   1.110034 S    
C45   C47   1.402760 A    
N10   H43   1.031826 S    
C70   O26   1.373276 S    
N9    H39   1.029894 S    
C11   C13   1.393322 A    
C68   N6    1.368549 A    
C76   C82   1.413635 A    
N4    C74   1.459123 S    
C77   C79   1.419571 A    
O22   H38   0.988079 S    
O9    C64   1.348675 S    
C46   C48   1.403507 A    
C83   C86   1.431200 A    
C61   C77   1.420458 A    
C9    C27   1.404096 A    
N7    C93   1.447420 S    
C66   C68   1.407527 A    
O21   H37   0.987468 S    
C10   C28   1.403157 A    
C95   H41   1.111858 S    
C34   C41   1.427294 A    
C96   H44   1.111615 S    
C102  H74   1.111106 S    
O5    C3    1.290061 A    
N10   C96   1.446501 S    
H15   C53   1.082502 S    
N2    C20   1.434556 S    
C67   N5    1.369635 A    
C15   O23   1.381545 S    
O1    C1    1.286796 A    
C7    O11   1.349836 S    
C82   C91   1.410372 A    
C48   C50   1.402635 A    
C75   C81   1.415450 A    
C5    N15   1.428801 S    
C71   C73   1.412079 A    
C42   O18   1.378172 S    
C8    C24   1.404882 A    
C44   C46   1.401401 A    
C37   C39   1.390533 A    
C40   H12   1.083354 S    
C28   C39   1.398993 A    
C38   C40   1.391109 A    
C93   H26   1.110170 S    
C56   C59   1.406734 A    
C6    C85   1.425558 A    
C65   C73   1.399147 A    
H24   C90   1.078281 S    
C37   H13   1.080236 S    
O4    Cu1   1.974223 S    
C91   N9    1.420020 S    
C75   C88   1.428956 A    
C97   H54   1.111193 S    
C41   O17   1.378387 S    
N8    H29   1.030872 S    
H16   C54   1.082710 S    
C21   C36   1.416838 A    
C63   C81   1.419811 A    
O19   H35   0.991743 S    
C22   C35   1.416794 A    
C8    N2    1.368657 A    
N4    C64   1.367823 A    
C84   C85   1.436635 A    
C69   C71   1.427171 A    
C56   C58   1.406262 A    
C99   H62   1.109531 S    
O6    Cu2   1.945648 S    
Cu1   N6    1.999084 S    
C15   C17   1.405215 A    
C16   O24   1.379593 S    
C31   C37   1.411373 A    
C51   H21   1.082508 S    
C18   C20   1.400050 A    
C14   H7    1.083404 S    
C84   C88   1.418997 A    
C24   C26   1.398907 A    
C79   N13   1.424266 S    
C99   H60   1.109863 S    
N9    C95   1.449820 S    
Cu1   Cu2   2.661731 S    
C45   H17   1.083543 S    
C101  H68   1.108932 S    
C96   H45   1.110394 S    
N3    C63   1.371280 A    
C55   O21   1.387006 S    
O2    C2    1.287290 A    
O8    C4    1.291524 A    
N3    C73   1.460224 S    
C57   C59   1.413959 A    
O10   C63   1.348570 S    
C52   C54   1.396928 A    
C95   H42   1.107319 S    
C33   C35   1.418116 A    
C32   C38   1.411659 A    
C34   C36   1.418044 A    
C75   C77   1.413679 A    
H6    C65   1.082641 S    
C50   H20   1.082982 S    
N12   H55   1.030908 S    
C68   N7    1.420226 S    
C46   H18   1.083475 S    
C50   C52   1.396055 A    
C94   H32   1.110754 S    
C95   H40   1.111651 S    
C66   C74   1.400360 A    
O7    Cu2   1.946703 S    
H23   C89   1.078437 S    
C55   C60   1.407627 A    
C25   C41   1.393817 A    
C98   H57   1.107557 S    
C102  H72   1.108505 S    
O25   H49   0.987532 S    
C13   C29   1.403808 A    
C9    O14   1.349604 S    
C16   C18   1.405161 A    
C21   C27   1.408372 A    
C7    N1    1.369630 A    
C10   O13   1.349746 S    
N12   C98   1.452249 S    
O26   H50   0.989804 S    
C22   C28   1.408509 A    
C12   C14   1.393489 A    
C83   C89   1.407287 A    
C13   H8    1.082295 S    
N14   C100  1.449066 S    
C72   N12   1.426053 S    
C44   O20   1.378394 S    
C52   H22   1.081878 S    
O20   H36   0.991693 S    
O6    C4    1.287372 A    
C98   H58   1.109015 S    
C12   H9    1.082734 S    
N15   H67   1.030997 S    
C43   C45   1.400608 A    
C65   C67   1.405503 A    
N13   C99   1.448386 S    
C33   C42   1.427495 A    
C89   C91   1.395573 A    
C99   H61   1.112416 S    
C5    C86   1.424561 A    
C11   H10   1.082763 S    
C7    C23   1.403991 A    
C27   C40   1.399387 A    
C26   H4    1.083763 S    
C62   C78   1.427147 A    
C4    C30   1.464625 S    
C47   C49   1.403187 A    
C8    O12   1.349710 S    
C98   H56   1.109019 S    
C92   N10   1.423916 S    
C58   C60   1.412653 A    
C47   C60   1.484248 S    
O7    C3    1.290906 A    
C15   C29   1.410181 A    
C17   H1    1.083233 S    
C61   O15   1.347298 S    
C101  H69   1.110688 S    
C3    C29   1.468547 S    
O4    C2    1.286065 A    
O1    Cu1   1.971562 S    
C81   C92   1.414803 A    
C76   C78   1.410272 A    
C62   N4    1.368266 A    
C32   C33   1.421096 A    
C38   H14   1.080287 S    
C78   C80   1.418351 A    
C2    C57   1.458973 S    
C69   N5    1.369883 A    
C100  H66   1.110526 S    
C93   H27   1.110595 S    
C100  H64   1.108660 S    
C49   C51   1.396841 A    
N8    C94   1.448065 S    
C48   C59   1.484126 S    
C16   C30   1.407580 A    
C14   C30   1.402990 A    
C23   C25   1.398910 A    
N2    C10   1.368503 A    
O3    C1    1.285445 A    
O8    Cu1   1.946701 S    
C86   C88   1.414240 A    
C55   C57   1.407942 A    
C96   H46   1.111180 S    
C62   O16   1.344866 S    
C90   C92   1.398886 A    
O3    Cu2   1.974225 S    
C80   N14   1.420024 S    
C102  H73   1.111251 S    
C25   H3    1.083807 S    
C18   H2    1.083251 S    
C83   C87   1.417942 A    
C56   O22   1.386778 S    
C31   C34   1.420255 A    
C11   C19   1.399590 A    
C67   N8    1.419264 S    
C94   H31   1.111229 S    
C97   H52   1.110223 S    
C21   C23   1.406213 A    
C71   N11   1.424255 S    
N7    H25   1.030380 S    
C6    C80   1.410377 A    
C22   C24   1.406636 A    
H5    C66   1.082495 S    
C17   C19   1.400827 A    
C5    C79   1.411283 A    
N11   H51   1.030697 S    
C44   C54   1.409143 A    
C43   C53   1.409331 A    
N15   C101  1.447378 S    
C70   C72   1.426244 A    
C31   C35   1.418792 A    
N1    C9    1.369457 A    
N16   H71   1.031046 S    
C51   C53   1.397355 A    
N13   H59   1.030387 S    
O2    Cu2   1.971562 S    
N1    C19   1.436765 S    
C72   C74   1.412240 A    
C76   C87   1.430941 A    
C97   H53   1.110991 S    
C6    N16   1.427369 S    
N11   C97   1.445418 S    
O24   H48   0.991779 S    
C49   H19   1.082575 S    
O5    Cu1   1.945648 S    
C101  H70   1.110769 S    
C70   N6    1.368090 A    
C1    C58   1.456922 S    
C12   C20   1.399079 A    
O23   H47   0.991670 S    
C69   O25   1.378197 S    
C64   C82   1.420787 A    
O18   H34   0.991363 S    
C26   C42   1.394459 A    
C85   C87   1.417389 A    
N16   C102  1.446280 S    
C43   O19   1.378408 S    
C61   N3    1.371794 A    
N14   H63   1.028356 S    
O17   H33   0.991369 S    
C94   H30   1.110345 S    
C100  H65   1.109383 S    
C84   C90   1.409767 A    
C32   C36   1.418965 A    
C39   H11   1.083316 S    
Cu2   N5    1.999084 S    
