data_mof_unit_45078.cif
_audit_creation_date              2012-12-11T21:14:52-0500
_audit_creation_method            fapswitch 2.2
_symmetry_space_group_name_H-M    P1
_symmetry_Int_Tables_number       1
_space_group_crystal_system       triclinic
_cell_length_a                    8.213519
_cell_length_b                    18.744585
_cell_length_c                    27.026837
_cell_angle_alpha                 99.218587
_cell_angle_beta                  92.723014
_cell_angle_gamma                 88.293964
_cell_volume                      4101.60852934

loop_
_atom_site_label
_atom_site_type_symbol
_atom_type_description
_atom_site_fract_x
_atom_site_fract_y
_atom_site_fract_z
_atom_type_partial_charge
Ba1   Ba    Ba6+2 0.160810 0.465630 0.521640 1.640101
Ba2   Ba    Ba6+2 0.649380 0.534380 0.478400 1.639705
C1    C     C_3   0.421881 0.279221 0.699041 -0.356260
C2    C     C_R   0.074561 0.094997 0.450806 0.032961
C3    C     C_R   0.221419 0.071452 0.428349 -0.079434
C4    C     C_3   0.961268 0.269946 0.624100 0.373375
C5    C     C_R   0.283029 0.001503 0.429895 -0.088522
C6    C     C_R   0.197547 0.953276 0.453179 0.032308
C7    C     C_R   0.050193 0.976267 0.475991 0.015534
C8    C     C_R   0.256512 0.882354 0.453319 -0.109497
C9    C     C_R   0.168175 0.832433 0.474693 -0.040076
C10   C     C_R   0.021669 0.855874 0.498770 -0.005516
C11   C     C_R   0.963813 0.928085 0.499470 -0.006470
C12   C     C_3   0.432995 0.304103 0.648570 0.338100
C13   C     C_R   0.220244 0.759415 0.472159 -0.008355
C14   C     C_R   0.123539 0.710757 0.491006 -0.305121
C15   C     C_R   0.984867 0.733609 0.517664 0.046594
C16   C     C_3   0.989667 0.196408 0.640362 -0.366476
C17   C     C_R   0.933450 0.807497 0.522430 -0.047914
C18   C     C_R   0.843219 0.071330 0.498503 -0.006630
C19   C     C_R   0.785076 0.143497 0.499130 -0.004249
C20   C     C_R   0.874104 0.192068 0.475918 -0.047814
C21   C     C_R   0.013414 0.165419 0.449629 -0.041624
C22   C     C_R   0.795121 0.834427 0.549111 -0.040929
C23   C     C_3   0.465714 0.314220 0.394649 0.317202
C24   C     C_R   0.733453 0.904694 0.547639 0.033638
C25   C     C_R   0.817890 0.951858 0.522841 0.006547
C26   C     C_R   0.756841 0.023137 0.521960 0.014690
C27   C     C_R   0.586621 0.928265 0.570094 -0.079921
C28   C     C_3   0.841772 0.620973 0.631439 0.299233
C29   C     C_R   0.524206 0.997959 0.568147 -0.088248
C30   C     C_R   0.609270 0.046067 0.544659 0.031589
C31   C     C_R   0.637923 0.166797 0.522904 -0.040627
C32   C     C_R   0.549695 0.116832 0.544253 -0.107343
C33   C     C_R   0.585048 0.239697 0.525139 0.000331
C34   C     C_3   0.465742 0.232968 0.377385 -0.391050
C35   C     C_R   0.679961 0.288146 0.505458 -0.300337
C36   C     C_R   0.821946 0.265798 0.480483 0.038760
C37   C     C_R   0.306115 0.458312 0.175887 0.594051
C38   C     C_R   0.192397 0.577395 0.175167 0.578112
C39   C     C_2   0.055850 0.556043 0.272500 -0.062932
C40   C     C_3   0.843903 0.638100 0.688380 -0.359469
C41   C     C_3   0.047297 0.579743 0.328372 -0.031274
C42   C     C_1   0.282273 0.498706 0.337449 0.005260
C43   C     C_2   0.320948 0.500097 0.290492 -0.101548
C44   C     C_2   0.196599 0.525335 0.253941 0.185617
C45   C     C_3   0.849951 0.734027 0.376491 0.376983
C46   C     C_R   0.310272 0.512097 0.099363 -0.079248
C47   C     C_R   0.351213 0.454594 0.125696 -0.033234
C48   C     C_R   0.437332 0.394572 0.101443 -0.060189
C49   C     C_R   0.227470 0.573221 0.124190 -0.032580
C50   C     C_2   0.156927 0.535527 0.358673 -0.296799
C51   C     C_2   0.647671 0.470439 0.637008 -0.292190
C52   C     C_3   0.964962 0.382068 0.369343 0.296525
C53   C     C_R   0.478083 0.442977 0.972741 0.020817
C54   C     C_R   0.354356 0.564331 0.971484 0.020648
C55   C     C_R   0.437111 0.501951 0.946858 0.049223
C56   C     C_3   0.808242 0.808872 0.363827 -0.337799
C57   C     C_R   0.557210 0.381540 0.946075 -0.102363
C58   C     C_R   0.594960 0.378250 0.896260 -0.060104
C59   C     C_R   0.556921 0.436113 0.870546 -0.023393
C60   C     C_R   0.479251 0.498338 0.895751 -0.080947
C61   C     C_R   0.443562 0.556761 0.869790 -0.034292
C62   C     C_R   0.487721 0.552487 0.819348 0.596343
C63   C     C_R   0.594043 0.432080 0.819828 0.576816
C64   C     C_3   0.973569 0.365221 0.312566 -0.363311
C65   C     C_2   0.738509 0.451868 0.724083 -0.087573
C66   C     C_3   0.750056 0.425625 0.668743 -0.051721
C67   C     C_3   0.376975 0.692465 0.350606 0.305555
C68   C     C_1   0.519719 0.508152 0.656083 0.035183
C69   C     C_2   0.479385 0.510671 0.703565 -0.101569
C70   C     C_2   0.598257 0.484438 0.741359 0.186638
C71   C     C_R   0.438213 0.446894 0.023953 0.020672
C72   C     C_R   0.352564 0.508648 0.048281 0.049981
C73   C     C_R   0.308997 0.567082 0.022160 0.020525
C74   C     C_R   0.481212 0.390964 0.052026 -0.099937
C75   C     C_R   0.182262 0.629619 0.097792 -0.056605
C76   C     C_3   0.331458 0.686039 0.592173 0.318229
C77   C     C_R   0.320833 0.622195 0.944346 -0.099162
C78   C     C_3   0.377672 0.716758 0.299379 -0.231211
C79   C     C_R   0.364894 0.618439 0.894848 -0.060375
C80   C     C_R   0.220584 0.626467 0.047947 -0.101366
C81   C     C_3   0.326194 0.767388 0.609233 -0.392429
C82   C     C_2   0.253034 0.776111 0.295859 0.522987
C83   C     C_R   0.989463 0.047636 0.475275 0.007142
H1    H     H_    0.369075 0.357541 0.650247 0.080765
H2    H     H_    0.206294 0.667455 0.582068 0.004941
H3    H     H_    0.408317 0.673851 0.559042 0.064707
H4    H     H_    0.293126 0.269806 0.706434 0.150508
H5    H     H_    0.241463 0.781320 0.640323 0.129577
H6    H     H_    0.283849 0.795631 0.577796 0.057099
H7    H     H_    0.449954 0.786108 0.622583 0.119160
H8    H     H_    0.563592 0.309056 0.641462 -0.051029
H9    H     H_    0.469844 0.321592 0.728964 0.135735
H10   H     H_    0.593888 0.330953 0.402963 0.015919
H11   H     H_    0.396058 0.326162 0.429379 0.057044
H12   H     H_    0.752663 0.681628 0.700343 0.135299
H13   H     H_    0.538999 0.218703 0.343569 0.132833
H14   H     H_    0.519566 0.204816 0.407645 0.053488
H15   H     H_    0.338868 0.214813 0.368220 0.119525
H16   H     H_    0.494544 0.228340 0.699715 0.114605
H17   H     H_    0.930688 0.154155 0.612290 0.070883
H18   H     H_    0.819750 0.733455 0.416055 0.059322
H19   H     H_    0.983255 0.724843 0.372626 -0.043184
H20   H     H_    0.678904 0.823674 0.371026 0.137137
H21   H     H_    0.886268 0.849446 0.387484 0.062241
H22   H     H_    0.829806 0.810103 0.323719 0.160638
H23   H     H_    0.814225 0.589342 0.704210 0.070016
H24   H     H_    0.249449 0.683576 0.359370 -0.057689
H25   H     H_    0.447981 0.640810 0.348801 0.089684
H26   H     H_    0.350436 0.669786 0.269757 0.107489
H27   H     H_    0.012964 0.268301 0.586685 0.085686
H28   H     H_    0.500079 0.736177 0.292960 0.097208
H29   H     H_    0.289507 0.107360 0.409892 0.064231
H30   H     H_    0.396979 0.984868 0.412409 0.069185
H31   H     H_    0.162411 0.654603 0.487482 0.069983
H32   H     H_    0.370256 0.866528 0.435780 0.106014
H33   H     H_    0.078458 0.199232 0.428845 0.098288
H34   H     H_    0.966943 0.656006 0.703261 0.133841
H35   H     H_    0.730618 0.800848 0.570181 0.098224
H36   H     H_    0.519077 0.892596 0.588845 0.063848
H37   H     H_    0.410133 0.014540 0.585580 0.071931
H38   H     H_    0.435340 0.132454 0.561479 0.111581
H39   H     H_    0.827304 0.279461 0.620714 -0.078077
H40   H     H_    0.639438 0.344037 0.508094 0.073926
H41   H     H_    0.442541 0.483711 0.278560 0.130854
H42   H     H_    0.473182 0.349938 0.120830 0.123035
H43   H     H_    0.833042 0.435293 0.749553 0.125071
H44   H     H_    0.655056 0.329547 0.877841 0.123412
H45   H     H_    0.083535 0.402043 0.385955 0.012786
H46   H     H_    0.590646 0.334043 0.962182 0.069444
H47   H     H_    0.550233 0.343305 0.037234 0.069853
H48   H     H_    0.958329 0.572521 0.247937 0.125209
H49   H     H_    0.115551 0.676824 0.115644 0.130555
H50   H     H_    0.261811 0.672020 0.960292 0.070227
H51   H     H_    0.122028 0.183284 0.643308 0.148442
H52   H     H_    0.335893 0.664449 0.876099 0.122445
H53   H     H_    0.358916 0.529987 0.715037 0.136691
H54   H     H_    0.177702 0.671835 0.030808 0.070705
H55   H     H_    0.152575 0.547461 0.399271 0.080238
H56   H     H_    0.870369 0.424759 0.378657 0.087535
H57   H     H_    0.660442 0.458699 0.596718 0.087174
H58   H     H_    0.936179 0.196332 0.677337 0.118732
H59   H     H_    0.717581 0.605802 0.617122 0.010755
H60   H     H_    0.928076 0.575098 0.620609 0.080651
H61   H     H_    0.284200 0.831855 0.309600 -0.012586
H62   H     H_    0.074417 0.325628 0.302240 0.145305
H63   H     H_    0.995068 0.415200 0.297066 0.067137
H64   H     H_    0.856748 0.342145 0.295770 0.130190
N1    N     N_R   0.230030 0.519899 0.200727 -0.426553
N2    N     N_R   0.560613 0.490103 0.794366 -0.421200
O1    O     O_2   0.106080 0.324280 0.466820 -0.462412
O2    O     O_2   0.714524 0.541323 0.325499 -0.502866
O3    O     O_3   0.759921 0.681518 0.344097 -0.579336
O4    O     O_3   0.859130 0.413620 0.470620 -0.487681
O5    O     O_3   0.459240 0.537930 0.559910 -0.490751
O6    O     O_2   0.583120 0.462390 0.379940 -0.461345
O7    O     O_3   0.393290 0.349085 0.356567 -0.627286
O8    O     O_2   0.560060 0.757413 0.479380 -0.489232
O9    O     O_3   0.448887 0.745180 0.387048 -0.616916
O10   O     O_2   0.333445 0.406212 0.197261 -0.596271
O11   O     O_2   0.654698 0.376063 0.798198 -0.621212
O12   O     O_3   0.396251 0.652982 0.631740 -0.622870
O13   O     O_2   0.130780 0.633096 0.196956 -0.568981
O14   O     O_2   0.462841 0.604711 0.797964 -0.599181
O15   O     O_3   0.376230 0.370290 0.556910 -0.483703
O16   O     O_2   0.246757 0.243448 0.519833 -0.490741
O17   O     O_3   0.926611 0.318823 0.387218 -0.640815
O18   O     O_3   0.358874 0.253054 0.611452 -0.607314
O19   O     O_2   0.227190 0.537650 0.620070 -0.464528
O20   O     O_3   0.971110 0.406970 0.583250 -0.483668
O21   O     O_2   0.083832 0.463749 0.675002 -0.495400
O22   O     O_2   0.115695 0.762065 0.278370 -0.550352
O23   O     O_3   0.037564 0.323708 0.659318 -0.590056
O24   O     O_2   0.704230 0.675760 0.533200 -0.467976
O25   O     O_3   0.951180 0.586390 0.529420 -0.490393
O26   O     O_3   0.434080 0.629720 0.443130 -0.479032
O27   O     O_3   0.886920 0.682569 0.612805 -0.639716
O28   O     O_3   0.351080 0.462080 0.440130 -0.478264
O29   O     O_3   0.839200 0.593040 0.416790 -0.482065
P1    P     P_3+3 0.929380 0.335110 0.452880 0.975088
P2    P     P_3+3 0.398530 0.559060 0.613740 0.996072
P3    P     P_3+3 0.962064 0.407861 0.647532 0.950354
P4    P     P_3+3 0.880940 0.664900 0.547160 0.975236
P5    P     P_3+3 0.838614 0.596373 0.352679 0.957585
P6    P     P_3+3 0.392535 0.276341 0.552787 0.936152
P7    P     P_3+3 0.398145 0.442556 0.376758 0.961649
P8    P     P_3+3 0.415692 0.723391 0.446192 0.937591

loop_
_geom_bond_atom_site_label_1
_geom_bond_atom_site_label_2
_ccdc_geom_bond_type
C76   H2    S    
Ba1   O25   S    
C32   H38   S    
C53   C57   A    
C3    H29   S    
C74   H47   S    
C71   C72   A    
O21   P3    D    
C4    H39   S    
C78   C82   S    
O7    P7    S    
C47   C48   A    
C21   H33   S    
C39   H48   S    
C55   C60   A    
C66   P3    S    
C43   C44   S    
C79   H52   S    
C81   H7    S    
C37   N1    Am   
C57   H46   S    
C24   C25   A    
Ba2   O4    S    
C36   P1    S    
C61   C79   A    
Ba1   O15   S    
O20   P3    S    
C16   H58   S    
C33   C35   A    
C35   C36   A    
C22   C24   A    
O18   P6    S    
Ba1   Ba2   S    
Ba2   O6    S    
C41   C50   S    
C19   C31   A    
C41   P5    S    
C13   C14   A    
C20   C36   A    
Ba1   O19   S    
C67   O9    S    
C28   H59   S    
C54   C55   A    
C10   C17   A    
Ba1   O1    S    
C51   H57   S    
C16   H17   S    
C5    H30   S    
Ba1   O4    S    
C51   C66   S    
C7    C11   A    
C7    C83   A    
C67   H24   S    
C76   C81   S    
C68   P2    S    
C46   C49   A    
C60   C61   A    
C14   C15   A    
C27   H36   S    
C63   O11   D    
C39   C44   D    
C16   H51   S    
C68   C69   D    
Ba2   O26   S    
C37   O10   D    
C12   H8    S    
C64   H63   S    
Ba2   O25   S    
C1    H16   S    
C76   O12   S    
C54   C73   A    
C19   C20   A    
O19   P2    D    
O12   P2    S    
C39   C41   S    
Ba2   O29   S    
C12   O18   S    
C4    C16   S    
C51   C68   D    
C14   H31   S    
C69   H53   S    
C35   H40   S    
C52   H45   S    
O3    P5    S    
C22   H35   S    
C45   H18   S    
C72   C73   A    
C62   N2    Am   
C65   C66   S    
C46   C72   A    
C26   C30   A    
C12   H1    S    
C64   H64   S    
O29   P5    S    
C40   H12   S    
C3    C5    A    
C2    C21   A    
Ba1   P1    S    
C6    C7    A    
C34   H14   S    
C2    C83   A    
C4    O23   S    
O16   P6    D    
Ba1   O20   S    
C58   C59   A    
C56   H21   S    
C30   C32   A    
O8    P8    D    
C63   N2    Am   
Ba1   O5    S    
C49   C75   A    
C62   O14   D    
C48   C74   A    
Ba2   O24   S    
C67   H25   S    
C29   C30   A    
C43   H41   S    
C9    C10   A    
C70   N2    S    
C18   C83   A    
C80   H54   S    
O4    P1    S    
C31   C32   A    
C28   O27   S    
C38   N1    Am   
C34   H15   S    
Ba2   P4    S    
C78   H28   S    
O26   P8    S    
C64   H62   S    
C1    C12   S    
C24   C27   A    
C58   H44   S    
C46   C47   A    
C44   N1    S    
C23   H10   S    
C9    C13   A    
C53   C55   A    
C71   C74   A    
C75   H49   S    
O9    P8    S    
C15   C17   A    
C82   O22   D    
C56   H22   S    
C65   C70   D    
C77   H50   S    
C42   C43   D    
C28   H60   S    
C77   C79   A    
C76   H3    S    
O25   P4    S    
C81   H5    S    
Ba2   O5    S    
C45   H19   S    
O5    P2    S    
O15   P6    S    
C4    H27   S    
C28   C40   S    
O6    P7    D    
C29   H37   S    
C52   O17   S    
C2    C3    A    
O23   P3    S    
Ba1   P2    S    
C37   C47   A    
C73   C80   A    
C38   O13   D    
C52   C64   S    
C45   O3    S    
C82   H61   S    
C38   C49   A    
C18   C26   A    
C13   P8    S    
C53   C71   A    
C1    H4    S    
C56   H20   S    
C17   C22   A    
C54   C77   A    
C69   C70   S    
C27   C29   A    
C8    H32   S    
C65   H43   S    
C45   C56   S    
Ba1   O28   S    
C15   P4    S    
C42   C50   D    
O2    P5    D    
C75   C80   A    
C33   P6    S    
C81   H6    S    
C78   H26   S    
C31   C33   A    
C1    H9    S    
C59   C60   A    
C40   H34   S    
C42   P7    S    
C5    C6    A    
C8    C9    A    
C23   C34   S    
C61   C62   A    
C50   H55   S    
C59   C63   A    
C57   C58   A    
C52   H56   S    
O28   P7    S    
C18   C19   A    
C23   H11   S    
C6    C8    A    
O17   P1    S    
Ba2   O28   S    
C23   O7    S    
C20   C21   A    
C11   C25   A    
C67   C78   S    
C34   H13   S    
C48   H42   S    
C10   C11   A    
O1    P1    D    
C40   H23   S    
O27   P4    S    
O24   P4    D    
C25   C26   A    
