data_mof_unit_19945.cif
_audit_creation_date              2012-10-26T20:03:44-0400
_audit_creation_method            fapswitch 2.2
_symmetry_space_group_name_H-M    P1
_symmetry_Int_Tables_number       1
_space_group_crystal_system       triclinic
_cell_length_a                    12.366262
_cell_length_b                    13.117146
_cell_length_c                    15.83065
_cell_angle_alpha                 77.567373
_cell_angle_beta                  101.068
_cell_angle_gamma                 116.778833
_cell_volume                      2225.40724978

loop_
_atom_site_label
_atom_site_type_symbol
_atom_type_description
_atom_site_fract_x
_atom_site_fract_y
_atom_site_fract_z
_atom_type_partial_charge
C1    C     C_R   0.855145 0.286597 0.504808 0.562192
C2    C     C_R   0.228567 0.836858 0.472134 -0.037685
C3    C     C_R   0.817190 0.080809 0.542864 -0.126588
C4    C     C_R   0.999422 0.499589 0.659892 0.535216
C5    C     C_R   0.739745 0.963308 0.549895 -0.024779
C6    C     C_R   0.615464 0.928251 0.522999 -0.067751
C7    C     C_R   0.567741 0.009840 0.486191 -0.017722
C8    C     C_R   0.651088 0.125665 0.462306 0.005080
C9    C     C_R   0.440346 0.978576 0.467112 -0.028351
C10   C     C_R   0.399556 0.056896 0.409926 -0.036026
C11   C     C_R   0.484781 0.164132 0.374946 -0.098232
C12   C     C_3   0.000939 0.500846 0.917007 0.021386
C13   C     C_R   0.609170 0.197236 0.397732 0.265713
C14   C     C_R   0.351819 0.873328 0.505209 0.257232
C15   C     C_R   0.189503 0.914567 0.415957 -0.166467
C16   C     C_R   0.145233 0.713968 0.488730 0.552214
C17   C     C_R   0.773930 0.163300 0.501005 -0.016785
C18   C     C_R   0.349171 0.332777 0.643409 -0.156243
C19   C     C_R   0.757061 0.650069 0.384570 0.162845
C20   C     C_R   0.674683 0.698201 0.377014 -0.157765
C21   C     C_R   0.579448 0.647721 0.427565 -0.146932
C22   C     C_R   0.560225 0.544148 0.483466 -0.003911
C23   C     C_3   0.105568 0.590431 0.026903 -0.163341
C24   C     C_R   0.656383 0.507731 0.500633 0.171580
C25   C     C_R   0.451396 0.479208 0.525908 -0.018166
C26   C     C_R   0.450105 0.392205 0.596255 -0.046172
C27   C     C_R   0.548622 0.363309 0.617955 -0.162524
C28   C     C_R   0.001317 0.501359 0.340116 0.544865
C29   C     C_R   0.648041 0.417696 0.569846 -0.082735
C30   C     C_R   0.340635 0.492468 0.498706 0.382070
C31   C     C_R   0.249040 0.360465 0.621622 0.389220
C32   C     C_3   0.998331 0.403207 0.044976 0.302619
C33   C     C_3   0.899782 0.415446 0.973835 0.325398
C34   C     C_3   0.003613 0.503851 0.083155 0.039835
C35   C     C_1   0.998935 0.499592 0.749572 -0.030054
C36   C     C_1   0.003668 0.503239 0.250510 -0.044652
C37   C     C_3   0.100681 0.488585 0.988471 -0.143319
C38   C     C_3   0.713030 0.264029 0.001571 -0.132668
C39   C     C_3   0.378001 0.842873 0.652616 -0.121395
C40   C     C_3   0.790065 0.876259 0.588336 -0.399625
C41   C     C_3   0.711849 0.260678 0.278952 -0.123476
C42   C     C_3   0.178425 0.306797 0.756031 -0.124693
C43   C     C_3   0.301984 0.485809 0.353233 -0.098252
C44   C     C_3   0.840196 0.694829 0.313740 -0.328841
C45   C     C_3   0.006831 0.603351 0.953667 -0.140347
C46   C     C_3   0.007263 0.230577 0.049546 -0.134826
C47   C     C_3   0.799776 0.538122 0.025933 -0.409659
C48   C     C_3   0.198554 0.073947 0.248034 -0.138453
C49   C     C_3   0.905502 0.516899 0.011168 -0.005509
C50   C     C_1   0.999396 0.499866 0.825223 -0.035690
C51   C     C_1   0.004595 0.504016 0.174949 -0.045159
C52   C     C_R   0.273971 0.025008 0.385375 0.265053
Cu1   Cu    Cu3+1 0.098270 0.475420 0.519690 1.066467
Cu2   Cu    Cu3+1 0.901730 0.524580 0.480310 0.954943
H1    H     H_    0.911629 0.107487 0.570026 0.162908
H2    H     H_    0.180603 0.477763 0.977339 0.095120
H3    H     H_    0.093736 0.889193 0.394097 0.131846
H4    H     H_    0.455856 0.222098 0.327010 0.167953
H5    H     H_    0.654143 0.308120 0.999755 0.113503
H6    H     H_    0.757275 0.252086 0.068833 0.139048
H7    H     H_    0.652940 0.176759 0.984095 0.129263
H8    H     H_    0.404405 0.790021 0.709949 0.136931
H9    H     H_    0.283790 0.829476 0.657646 0.110224
H10   H     H_    0.443097 0.934856 0.655443 0.117758
H11   H     H_    0.833074 0.890420 0.655692 0.135143
H12   H     H_    0.558577 0.836707 0.527110 0.179119
H13   H     H_    0.717778 0.786393 0.590539 0.137921
H14   H     H_    0.859694 0.886017 0.548360 0.146000
H15   H     H_    0.626540 0.207182 0.240739 0.086755
H16   H     H_    0.770271 0.213717 0.301901 0.126943
H17   H     H_    0.761544 0.339052 0.233921 0.141350
H18   H     H_    0.095051 0.285700 0.785603 0.137522
H19   H     H_    0.245549 0.394852 0.769522 0.110358
H20   H     H_    0.213082 0.241624 0.788200 0.090506
H21   H     H_    0.274232 0.528675 0.290193 0.140556
H22   H     H_    0.227364 0.397538 0.366134 0.151271
H23   H     H_    0.547636 0.295721 0.671531 0.118275
H24   H     H_    0.385882 0.479192 0.345565 0.113489
H25   H     H_    0.811743 0.627574 0.271630 0.148664
H26   H     H_    0.833634 0.771072 0.270329 0.062708
H27   H     H_    0.936787 0.723351 0.338899 0.159198
H28   H     H_    0.102137 0.269545 0.032267 0.098881
H29   H     H_    0.941065 0.214414 0.989983 0.150755
H30   H     H_    0.990431 0.145622 0.090002 0.124845
H31   H     H_    0.835457 0.623752 0.047375 0.126405
H32   H     H_    0.738608 0.536507 0.964471 0.141109
H33   H     H_    0.748080 0.470756 0.077246 0.115713
H34   H     H_    0.348055 0.264760 0.696494 0.102239
H35   H     H_    0.273860 0.070230 0.221747 0.098816
H36   H     H_    0.176272 0.142151 0.204844 0.148399
H37   H     H_    0.115500 0.990915 0.245783 0.107679
H38   H     H_    0.521303 0.690911 0.421345 0.173495
H39   H     H_    0.681346 0.773278 0.329485 0.106699
H40   H     H_    0.716990 0.387377 0.590469 0.176971
H41   H     H_    0.010519 0.685676 0.914362 0.113806
H42   H     H_    0.189671 0.662634 0.050361 0.112674
N1    N     N_R   0.246280 0.438200 0.549540 -0.206376
N2    N     N_R   0.754330 0.561180 0.450980 -0.211312
O1    O     O_R   0.972510 0.318130 0.524770 -0.475469
O2    O     O_3   0.383483 0.806415 0.576668 -0.565810
O3    O     O_3   0.688075 0.294659 0.349514 -0.535795
O4    O     O_3   0.146639 0.301061 0.666011 -0.532557
O5    O     O_3   0.322303 0.552976 0.418627 -0.557710
O6    O     O_3   0.992177 0.300136 0.098557 -0.575353
O7    O     O_3   0.233705 0.102969 0.332985 -0.565727
O8    O     O_R   0.806530 0.359650 0.491510 -0.472461
O9    O     O_R   0.082970 0.479240 0.637550 -0.462779
O10   O     O_R   0.916990 0.520750 0.604290 -0.525877
O11   O     O_R   0.193470 0.640350 0.508490 -0.416279
O12   O     O_R   0.027490 0.681870 0.475230 -0.539205
O13   O     O_R   0.083010 0.479250 0.395710 -0.469982
O14   O     O_R   0.917030 0.520760 0.362450 -0.490582
O15   O     O_3   0.796677 0.324344 0.939295 -0.574678

loop_
_geom_bond_atom_site_label_1
_geom_bond_atom_site_label_2
_ccdc_geom_bond_type
C20   H39   S    
C8    C13   A    
C23   C45   S    
C27   C29   A    
C19   C20   A    
C18   C26   A    
C10   C52   A    
C1    O1    A    
C16   O12   A    
C7    C8    A    
C47   C49   S    
Cu1   Cu2   S    
C28   O14   A    
C43   H24   S    
C39   H10   S    
C4    O10   A    
C30   N1    A    
C34   C51   S    
C24   N2    A    
C47   H31   S    
C5    C6    A    
C33   C49   S    
C25   C30   A    
C23   H42   S    
Cu2   O12   S    
C12   C37   S    
C24   C29   A    
C46   H28   S    
C37   H2    S    
C3    H1    S    
C34   C49   S    
C48   H37   S    
C30   O5    S    
C32   O6    S    
C11   H4    S    
C2    C16   S    
C9    C10   A    
C1    O8    A    
C41   H17   S    
C38   H7    S    
Cu1   O13   S    
C4    C35   S    
C48   H36   S    
C21   C22   A    
C15   H3    S    
C42   O4    S    
C19   N2    A    
C16   O11   A    
C28   O13   A    
C43   H21   S    
C4    O9    A    
C42   H20   S    
Cu2   O8    S    
C47   H32   S    
C44   H26   S    
C44   H27   S    
C38   O15   S    
C27   H23   S    
C25   C26   A    
C15   C52   A    
C46   O6    S    
C40   H13   S    
Cu1   O1    S    
C38   H5    S    
C32   C34   S    
C9    C14   A    
C31   O4    S    
Cu1   O9    S    
C48   O7    S    
C45   C49   S    
C23   C34   S    
C35   C50   T    
C42   H18   S    
C26   C27   A    
Cu2   O14   S    
C32   C37   S    
C2    C15   A    
C36   C51   T    
C46   H30   S    
C22   C25   A    
C52   O7    S    
C48   H35   S    
C38   H6    S    
C13   O3    S    
C45   H41   S    
C19   C44   S    
C41   H15   S    
Cu1   O11   S    
C43   H22   S    
C7    C9    A    
C39   H8    S    
C42   H19   S    
C1    C17   S    
C44   H25   S    
C12   C45   S    
C3    C5    A    
C12   C50   S    
C14   O2    S    
C6    C7    A    
C39   H9    S    
C33   O15   S    
C8    C17   A    
Cu2   O10   S    
C40   H11   S    
Cu1   N1    S    
C32   C33   S    
C23   C37   S    
C11   C13   A    
C39   O2    S    
C29   H40   S    
C41   O3    S    
C3    C17   A    
C22   C24   A    
C31   N1    A    
C2    C14   A    
C43   O5    S    
C18   H34   S    
C10   C11   A    
C46   H29   S    
C6    H12   S    
C20   C21   A    
C28   C36   S    
C40   H14   S    
C5    C40   S    
Cu2   N2    S    
C18   C31   A    
C12   C33   S    
C47   H33   S    
C41   H16   S    
C21   H38   S    
