data_mof_unit_41676.cif
_audit_creation_date              2012-12-10T19:00:12-0500
_audit_creation_method            fapswitch 2.2
_symmetry_space_group_name_H-M    P1
_symmetry_Int_Tables_number       1
_space_group_crystal_system       triclinic
_cell_length_a                    9.579234
_cell_length_b                    10.879123
_cell_length_c                    13.394602
_cell_angle_alpha                 91.220086
_cell_angle_beta                  72.426147
_cell_angle_gamma                 91.007581
_cell_volume                      1330.35902663

loop_
_atom_site_label
_atom_site_type_symbol
_atom_type_description
_atom_site_fract_x
_atom_site_fract_y
_atom_site_fract_z
_atom_type_partial_charge
C1    C     C_R   0.502472 0.737703 0.498343 0.803215
C2    C     C_R   0.428008 0.478647 0.979843 0.083144
C3    C     C_R   0.436056 0.530824 0.881888 0.073091
C4    C     C_R   0.518469 0.529592 0.037928 0.076564
C5    C     C_R   0.604607 0.635530 0.999700 0.135016
C6    C     C_R   0.592365 0.694992 0.911764 -0.206526
C7    C     C_R   0.507589 0.643713 0.854198 -0.195241
C8    C     C_R   0.527274 0.479490 0.132033 -0.260531
C9    C     C_R   0.711516 0.631751 0.142270 0.001123
C10   C     C_R   0.371283 0.469958 0.813163 -0.091261
C11   C     C_R   0.375155 0.934070 0.511430 0.053175
C12   C     C_R   0.420596 0.494902 0.700022 0.774713
C13   C     C_R   0.505626 0.871780 0.501015 -0.147932
C14   C     C_R   0.633914 0.942188 0.495935 -0.027322
C15   C     C_R   0.627467 0.069726 0.500258 -0.268829
C16   C     C_R   0.497973 0.130099 0.504194 -0.097377
C17   C     C_R   0.370982 0.061090 0.513417 0.102277
C18   C     C_3   0.270434 0.063457 0.447108 -0.508022
C19   C     C_3   0.274405 0.923775 0.444952 -0.187559
C20   C     C_R   0.944406 0.405992 0.452807 0.239081
C21   C     C_R   0.904126 0.581997 0.559674 0.059987
C22   C     C_R   0.052720 0.582375 0.558597 -0.108342
C23   C     C_R   0.499167 0.262745 0.499862 0.801542
C24   C     C_R   0.091900 0.407039 0.451544 0.266641
C25   C     C_3   0.142664 0.370308 0.338496 -0.514705
C26   C     C_3   0.982976 0.365224 0.341237 -0.504528
C27   C     C_R   0.578291 0.506086 0.299891 0.794954
C28   C     C_R   0.702262 0.682549 0.049752 -0.204950
C29   C     C_R   0.617656 0.532624 0.187201 -0.088942
C30   C     C_R   0.276516 0.370024 0.848994 -0.180039
C31   C     C_R   0.254389 0.326143 0.949610 -0.146351
C32   C     C_R   0.332070 0.377167 0.013665 -0.196646
Cu1   Cu    Cu3+1 0.359330 0.500020 0.500010 0.949000
Cu2   Cu    Cu3+1 0.640670 0.499980 0.499990 0.967474
H1    H     H_    0.727263 0.121894 0.494122 0.164576
H2    H     H_    0.161162 0.100357 0.491039 0.193623
H3    H     H_    0.322452 0.107136 0.370160 0.185823
H4    H     H_    0.168033 0.879078 0.486119 0.171666
H5    H     H_    0.092157 0.650624 0.603995 0.141238
H6    H     H_    0.205633 0.444574 0.287901 0.218249
H7    H     H_    0.195266 0.278848 0.325231 0.184238
H8    H     H_    0.955021 0.433963 0.291130 0.222160
H9    H     H_    0.650639 0.780596 0.886467 0.163628
H10   H     H_    0.942537 0.270358 0.332687 0.185267
H11   H     H_    0.771551 0.760829 0.016836 0.136955
H12   H     H_    0.460206 0.401848 0.167048 0.130735
H13   H     H_    0.224520 0.322551 0.797487 0.144848
H14   H     H_    0.313900 0.335946 0.089036 0.128723
H15   H     H_    0.181504 0.248426 0.976452 0.140399
H16   H     H_    0.497065 0.692572 0.787464 0.163148
N1    N     N_R   0.852320 0.499070 0.499340 -0.206716
N2    N     N_R   0.148230 0.499110 0.499340 -0.190194
O1    O     O_R   0.381190 0.680360 0.500000 -0.580892
O2    O     O_R   0.618780 0.680320 0.499990 -0.567383
O3    O     O_R   0.323230 0.500000 0.650990 -0.582044
O4    O     O_R   0.560820 0.499960 0.650980 -0.570609
O5    O     O_R   0.381220 0.319680 0.500010 -0.580974
O6    O     O_R   0.618810 0.319640 0.500000 -0.588388
O7    O     O_R   0.439180 0.500040 0.349020 -0.569980
O8    O     O_R   0.676770 0.500000 0.349010 -0.581059
C33   C     C_R   0.820651 0.688572 0.186713 0.128903
C34   C     C_R   0.807645 0.813467 0.216581 -0.157689
C35   C     C_R   0.928481 0.879379 0.227763 -0.135272
C36   C     C_R   0.061510 0.820281 0.212975 -0.068594
C37   C     C_R   0.074571 0.695247 0.186089 -0.118882
C38   C     C_R   0.955263 0.630185 0.170819 -0.145641
H17   H     H_    0.706653 0.861517 0.224834 0.144921
H18   H     H_    0.919147 0.976528 0.247548 0.124114
H19   H     H_    0.154608 0.872434 0.220660 0.145471
H20   H     H_    0.178688 0.650176 0.172655 0.145897
H21   H     H_    0.970306 0.536790 0.140234 0.123193
C39   C     C_1   0.346389 0.871028 0.339978 0.276296
N3    N     N_1   0.403876 0.829090 0.258000 -0.331236
C40   C     C_1   0.812587 0.674043 0.623648 0.327548
N4    N     N_1   0.743396 0.751477 0.674411 -0.342540
C41   C     C_1   0.778003 0.891232 0.474925 0.298829
N5    N     N_1   0.895228 0.853330 0.457109 -0.318248

loop_
_geom_bond_atom_site_label_1
_geom_bond_atom_site_label_2
_ccdc_geom_bond_type
C24   N2    A    
C23   O6    A    
Cu1   O3    S    
C27   C29   S    
C4    C8    A    
C26   H10   S    
Cu1   N2    S    
Cu2   O4    S    
C11   C19   S    
Cu2   N1    S    
C34   H17   S    
C9    C33   S    
C8    C29   A    
C18   H3    S    
C20   N1    A    
C3    C7    A    
C27   O8    A    
C25   H6    S    
C5    C6    A    
C37   H20   S    
C2    C32   A    
C18   C19   S    
C1    O1    A    
C33   C38   A    
C31   C32   A    
C16   C17   A    
C9    C29   A    
Cu1   O7    S    
C13   C14   A    
Cu2   O8    S    
C32   H14   S    
C19   C39   S    
C31   H15   S    
C15   H1    S    
C17   C18   S    
Cu1   O1    S    
C28   H11   S    
C40   N4    T    
C20   C24   A    
C30   H13   S    
C41   N5    T    
C25   H7    S    
C39   N3    T    
C25   C26   S    
C21   C40   S    
C14   C41   S    
C2    C4    A    
C1    O2    A    
C34   C35   A    
C19   H4    S    
C5    C28   A    
C10   C30   A    
C38   H21   S    
Cu1   Cu2   S    
C36   H19   S    
C24   C25   S    
C12   O4    A    
C10   C12   S    
Cu2   O2    S    
C16   C23   S    
C6    H9    S    
C1    C13   S    
C21   N1    A    
C26   H8    S    
C22   N2    A    
C23   O5    A    
C35   H18   S    
C11   C17   A    
Cu1   O5    S    
C7    H16   S    
C4    C5    A    
C6    C7    A    
C36   C37   A    
C2    C3    A    
C3    C10   A    
C27   O7    A    
C11   C13   A    
C30   C31   A    
C20   C26   S    
C22   H5    S    
C33   C34   A    
C8    H12   S    
C12   O3    A    
C35   C36   A    
C37   C38   A    
Cu2   O6    S    
C14   C15   A    
C21   C22   A    
C18   H2    S    
C15   C16   A    
C9    C28   A    
