data_mof_unit_55499.cif
_audit_creation_date              2012-12-11T15:57:41-0500
_audit_creation_method            fapswitch 2.2
_symmetry_space_group_name_H-M    P1
_symmetry_Int_Tables_number       1
_space_group_crystal_system       triclinic
_cell_length_a                    10.706271
_cell_length_b                    10.768963
_cell_length_c                    16.937979
_cell_angle_alpha                 99.60475
_cell_angle_beta                  99.914419
_cell_angle_gamma                 61.026805
_cell_volume                      1675.0400799

loop_
_atom_site_label
_atom_site_type_symbol
_atom_type_description
_atom_site_fract_x
_atom_site_fract_y
_atom_site_fract_z
_atom_type_partial_charge
C1    C     C_R   0.351409 0.781628 0.404636 0.583014
C2    C     C_2   0.337631 0.351547 0.833035 -0.111710
C3    C     C_2   0.471889 0.292881 0.813692 -0.154839
C4    C     C_R   0.365517 0.343166 0.358491 0.566015
C5    C     C_2   0.498484 0.279312 0.730159 0.012946
C6    C     C_1   0.817425 0.342575 0.708807 0.008198
C7    C     C_1   0.843305 0.314345 0.776647 -0.006107
C8    C     C_1   0.359693 0.762857 0.713835 -0.023650
C9    C     C_1   0.326591 0.810219 0.780743 -0.023646
C10   C     C_R   0.889038 0.310371 0.084499 0.551108
C11   C     C_R   0.290519 0.260859 0.121874 0.537760
C12   C     C_2   0.810048 0.342208 0.153065 -0.113226
C13   C     C_R   0.263897 0.945650 0.095697 0.535654
C14   C     C_R   0.884214 0.297740 0.858978 0.547574
C15   C     C_R   0.308784 0.295814 0.895800 0.579828
C16   C     C_R   0.773328 0.377855 0.403195 0.558654
C17   C     C_R   0.280826 0.880462 0.857381 0.561586
C18   C     C_R   0.382155 0.713464 0.631518 0.524312
C19   C     C_R   0.415599 0.380358 0.597263 0.562371
C20   C     C_R   0.773863 0.380768 0.629509 0.541255
C21   C     C_1   0.323770 0.317294 0.276726 -0.036147
C22   C     C_1   0.304129 0.292571 0.205938 -0.045778
C23   C     C_2   0.796762 0.242142 0.183722 0.005110
C24   C     C_2   0.829455 0.334558 0.325530 -0.128174
C25   C     C_2   0.787528 0.118692 0.133849 0.623050
C26   C     C_2   0.604692 0.133940 0.699965 0.620128
C27   C     C_2   0.537782 0.902578 0.365489 0.618007
C28   C     C_2   0.778618 0.260724 0.269246 -0.152882
C29   C     C_2   0.314110 0.877001 0.342904 -0.119422
C30   C     C_2   0.306289 0.893823 0.174434 -0.122288
C31   C     C_2   0.381354 0.940479 0.231745 -0.174334
C32   C     C_2   0.408898 0.903890 0.315270 0.011055
C33   C     C_2   0.413273 0.387645 0.683825 -0.146227
Cr1   Cr    Cr6+3 0.608020 0.610770 0.522990 1.088309
Cr2   Cr    Cr6+3 0.289390 0.599570 0.488050 1.054945
Cr3   Cr    Cr6+3 0.602610 0.289690 0.489020 1.070731
Cr4   Cr    Cr6+3 0.053780 0.052210 0.965970 1.068210
Cr5   Cr    Cr6+3 0.060060 0.372530 0.992430 1.057361
Cr6   Cr    Cr6+3 0.372600 0.061970 0.991430 1.061867
H1    H     H_    0.245884 0.419693 0.794084 0.112387
H2    H     H_    0.722020 0.041503 0.027145 0.334809
H3    H     H_    0.785688 0.009071 0.646328 0.334198
H4    H     H_    0.627865 0.940682 0.475425 0.339000
H5    H     H_    0.337154 0.489432 0.711493 0.074533
H6    H     H_    0.715166 0.216381 0.285165 0.192077
H7    H     H_    0.787578 0.443469 0.188303 0.114332
H8    H     H_    0.893751 0.379001 0.311118 0.110135
H9    H     H_    0.425717 0.004268 0.216790 0.165906
H10   H     H_    0.266573 0.824198 0.186853 0.133995
H11   H     H_    0.208871 0.906877 0.309649 0.108958
H12   H     H_    0.560545 0.222818 0.853719 0.173954
O1    O     O_R   0.749250 0.499990 0.439200 -0.489943
O2    O     O_R   0.411120 0.181190 0.091480 -0.483493
O3    O     O_R   0.364220 0.944920 0.062310 -0.497151
O4    O     O_R   0.477870 0.725740 0.440280 -0.449327
O5    O     O_R   0.158740 0.906940 0.874970 -0.495491
O6    O     O_R   0.930920 0.176940 0.885610 -0.480356
O7    O     O_R   0.910730 0.394510 0.895320 -0.507524
O8    O     O_R   0.185840 0.361180 0.920280 -0.489895
O9    O     O_R   0.399210 0.173040 0.915160 -0.487055
O10   O     O_R   0.353170 0.937370 0.898860 -0.481823
O11   O     O_3   0.162150 0.162240 0.983280 -0.308829
O12   O     O_R   0.299400 0.468710 0.556310 -0.503637
O13   O     O_R   0.260770 0.742210 0.412610 -0.500275
O14   O     O_R   0.297990 0.466320 0.394220 -0.484788
O15   O     O_R   0.487720 0.253870 0.385870 -0.489747
O16   O     O_R   0.721940 0.304340 0.422320 -0.497330
O17   O     O_R   0.750770 0.502570 0.614050 -0.510769
O18   O     O_R   0.479280 0.728140 0.602370 -0.450961
O19   O     O_R   0.262290 0.744790 0.587460 -0.503167
O20   O     O_2   0.830179 0.007215 0.163634 -0.500969
O21   O     O_R   0.723964 0.132026 0.054188 -0.662955
O22   O     O_2   0.592918 0.030808 0.710929 -0.489730
O23   O     O_R   0.489240 0.256450 0.560730 -0.445190
O24   O     O_R   0.720858 0.113312 0.662919 -0.675644
O25   O     O_2   0.644701 0.871947 0.333722 -0.497484
O26   O     O_R   0.534550 0.943429 0.448281 -0.646712
O27   O     O_R   0.723350 0.306730 0.584410 -0.477115
O28   O     O_3   0.500010 0.500010 0.500020 -0.325362
O29   O     O_R   0.170650 0.915100 0.051290 -0.486440
O30   O     O_R   0.941960 0.184500 0.049060 -0.475955
O31   O     O_R   0.922640 0.402670 0.071640 -0.512205
O32   O     O_R   0.196880 0.368740 0.083740 -0.477583

loop_
_geom_bond_atom_site_label_1
_geom_bond_atom_site_label_2
_ccdc_geom_bond_type
C18   O19   A    
Cr5   O32   S    
C15   O9    A    
Cr4   O11   S    
Cr3   O16   S    
Cr6   O2    S    
C12   C23   D    
H3    O24   S    
C29   C32   D    
C4    O14   A    
Cr3   O15   S    
Cr6   O3    S    
Cr2   O14   S    
C26   O22   D    
C14   O6    A    
C17   O10   A    
Cr5   O7    S    
Cr4   O5    S    
C7    C14   S    
Cr2   O19   S    
C19   O12   A    
C8    C9    T    
C5    C33   D    
Cr2   O13   S    
C25   O20   D    
C11   O2    A    
C18   O18   A    
C13   O29   A    
Cr1   O4    S    
C16   C24   S    
C21   C22   T    
Cr5   O31   S    
C33   H5    S    
Cr4   O30   S    
C14   O7    A    
C29   H11   S    
Cr6   O10   S    
Cr4   O29   S    
C28   H6    S    
C24   C28   D    
C13   C30   S    
C12   H7    S    
C19   C33   S    
Cr1   O17   S    
C16   O16   A    
C3    H12   S    
C11   O32   A    
C10   O31   A    
C8    C18   S    
C5    C26   S    
Cr1   O28   S    
C31   C32   S    
Cr1   O18   S    
C1    C29   S    
C26   O24   S    
C25   O21   S    
C23   C28   S    
C2    C15   S    
C17   O5    A    
C10   C12   S    
H2    O21   S    
C9    C17   S    
C30   H10   S    
C31   H9    S    
C27   O25   D    
C1    O13   A    
C3    C5    S    
C13   O3    A    
Cr6   O11   S    
Cr3   O23   S    
C11   C22   S    
C27   C32   S    
C24   H8    S    
C15   O8    A    
C20   O17   A    
C19   O23   A    
C16   O1    A    
C27   O26   S    
Cr3   O28   S    
C6    C7    T    
H4    O26   S    
C6    C20   S    
C10   O30   A    
Cr1   O1    S    
C20   O27   A    
C2    C3    D    
C1    O4    A    
Cr3   O27   S    
C4    O15   A    
C4    C21   S    
C30   C31   D    
Cr6   O9    S    
Cr2   O28   S    
C23   C25   S    
Cr5   O8    S    
C2    H1    S    
Cr2   O12   S    
Cr4   O6    S    
Cr5   O11   S    
