data_mof_unit_39402.cif
_audit_creation_date              2013-03-05T15:59:35-0500
_audit_creation_method            fapswitch 2.2
_symmetry_space_group_name_H-M    P1
_symmetry_Int_Tables_number       1
_space_group_crystal_system       triclinic
_cell_length_a                    8.256524
_cell_length_b                    12.776766
_cell_length_c                    17.403025
_cell_angle_alpha                 99.380455
_cell_angle_beta                  97.385816
_cell_angle_gamma                 98.371355
_cell_volume                      1770.08414668

loop_
_atom_site_label
_atom_site_type_symbol
_atom_site_description
_atom_site_fract_x
_atom_site_fract_y
_atom_site_fract_z
_atom_type_partial_charge
P1    P     P_3+3 0.996360 0.395990 0.320310 0.467789
O1    O     O_2   0.825360 0.427200 0.308020 -0.364137
O2    O     O_3   0.099050 0.435020 0.406000 -0.414525
O3    O     O_3   0.623690 0.628090 0.355970 -0.391616
O4    O     O_2   0.733848 0.562876 0.223241 -0.399785
O5    O     O_3   0.957624 0.255042 0.299098 -0.558949
O6    O     O_3   0.559506 0.715498 0.217017 -0.529286
H1    H     H_    0.717601 0.816532 0.310587 0.159380
C1    C     C_3   0.554916 0.903632 0.249321 -1.008703
H2    H     H_    0.571555 0.972494 0.299242 0.247064
H3    H     H_    0.642074 0.922304 0.207937 0.269935
P2    P     P_3+3 0.688190 0.753610 0.561600 0.410389
P3    P     P_3+3 0.104719 0.824505 0.398473 0.428554
O7    O     O_2   0.857620 0.767930 0.537920 -0.365979
O8    O     O_3   0.055170 0.686660 0.395490 -0.394826
O9    O     O_2   0.985192 0.879297 0.446580 -0.384753
O10   O     O_3   0.764653 0.785947 0.663348 -0.578574
O11   O     O_3   0.051347 0.849428 0.303319 -0.531807
C2    C     C_3   0.090737 0.766454 0.249031 0.428560
H4    H     H_    0.014925 0.688032 0.250909 0.150303
H5    H     H_    0.224020 0.760567 0.261235 0.047975
C3    C     C_3   0.052597 0.789461 0.166232 -0.952111
H6    H     H_    0.918074 0.790930 0.151479 0.275130
H7    H     H_    0.123910 0.868541 0.162194 0.254884
C4    C     C_3   0.223120 0.789903 0.633513 0.365165
H8    H     H_    0.336833 0.788907 0.607302 0.027067
H9    H     H_    0.119279 0.746971 0.588379 0.166623
C5    C     C_3   0.199116 0.905874 0.654760 -0.849405
H10   H     H_    0.306604 0.953746 0.696971 0.244820
H11   H     H_    0.187071 0.941066 0.600592 0.251874
H12   H     H_    0.085534 0.909503 0.682276 0.268688
Ba1   Ba    Ba6+2 0.843240 0.548600 0.461650 1.533784
C6    C     C_3   0.929702 0.213861 0.366939 0.363431
H13   H     H_    0.805879 0.226046 0.379861 0.095874
H14   H     H_    0.024752 0.251393 0.418939 0.141611
C7    C     C_3   0.935964 0.094153 0.351095 -0.881076
H15   H     H_    0.854245 0.054750 0.295274 0.261930
H16   H     H_    0.894902 0.056636 0.399970 0.236037
H17   H     H_    0.064500 0.081648 0.345556 0.268561
C8    C     C_3   0.639278 0.772409 0.709410 0.355580
H18   H     H_    0.676997 0.723997 0.754000 0.079382
H19   H     H_    0.522375 0.729398 0.674918 0.145404
C9    C     C_3   0.618329 0.881114 0.752877 -1.009727
H20   H     H_    0.733586 0.917509 0.794513 0.264099
H21   H     H_    0.514208 0.871689 0.787059 0.261462
H22   H     H_    0.593140 0.934309 0.709937 0.247483
P4    P     P_3+3 0.193350 0.604100 0.679700 0.479400
O12   O     O_2   0.364350 0.572830 0.692030 -0.392524
O13   O     O_3   0.090660 0.565070 0.594010 -0.390689
O14   O     O_3   0.566030 0.372000 0.644040 -0.355088
O15   O     O_3   0.236913 0.745362 0.702173 -0.576887
P5    P     P_3+3 0.088553 0.174267 0.601867 0.457639
O16   O     O_3   0.601410 0.366560 0.460070 -0.416109
O17   O     O_3   0.134540 0.313430 0.604520 -0.353791
O18   O     O_2   0.193540 0.120296 0.545059 -0.373495
O19   O     O_3   0.164793 0.142214 0.691894 -0.544341
Ba2   Ba    Ba6+2 0.346590 0.451490 0.538360 1.540243
P6    P     P_3+3 0.577719 0.596871 0.253501 0.456293
C10   C     C_3   0.587208 0.802848 0.280359 0.458709
H23   H     H_    0.501348 0.788792 0.323101 0.053296
H24   H     H_    0.426249 0.891525 0.217684 0.269536
O20   O     O_3   0.588300 0.633530 0.539940 -0.461577
C11   C     C_3   0.398977 0.260993 0.297900 0.452390
H25   H     H_    0.291981 0.284332 0.325117 0.108962
H26   H     H_    0.494391 0.333428 0.301916 0.096117
C12   C     C_3   0.336908 0.212293 0.211472 -1.008164
H27   H     H_    0.246514 0.137152 0.206567 0.278069
H28   H     H_    0.274348 0.269450 0.181885 0.218507
H29   H     H_    0.442472 0.193414 0.181183 0.265606
P7    P     P_3+3 0.507197 0.229744 0.436396 0.416889
O21   O     O_2   0.332090 0.232110 0.462130 -0.372970
O22   O     O_3   0.468255 0.184188 0.334301 -0.580381
H30   H     H_    0.087075 0.725629 0.123066 0.236100
C13   C     C_3   0.150686 0.223715 0.753927 0.331640
H31   H     H_    0.234998 0.298901 0.751874 0.165241
H32   H     H_    0.021865 0.240172 0.750591 0.020641
C14   C     C_3   0.200196 0.185668 0.831259 -0.421843
H33   H     H_    0.320902 0.157118 0.830327 0.246605
H34   H     H_    0.106733 0.116051 0.836062 0.197385
P8    P     P_3+3 0.608802 0.387580 0.747308 0.466654
C15   C     C_3   0.641274 0.188243 0.739746 0.467352
H35   H     H_    0.728943 0.219162 0.701804 0.053217
O23   O     O_2   0.490500 0.459349 0.782060 -0.407280
O24   O     O_3   0.545628 0.262301 0.771294 -0.518101
H36   H     H_    0.555846 0.118117 0.702284 0.091517
H37   H     H_    0.815495 0.220719 0.848269 0.265153
C16   C     C_3   0.738057 0.150572 0.807198 -1.101699
H38   H     H_    0.819589 0.095902 0.783345 0.241646
H39   H     H_    0.651543 0.107499 0.840060 0.281342
C17   C     C_2   0.267246 0.499035 0.274018 -0.480471
C18   C     C_3   0.391185 0.491384 0.217080 0.203193
C19   C     C_2   0.313919 0.500384 0.135064 -0.220042
C20   C     C_2   0.147017 0.483910 0.114456 0.095155
C21   C     C_2   0.041502 0.455859 0.175238 -0.279716
C22   C     C_1   0.109984 0.456527 0.248983 0.322662
C23   C     C_R   0.893405 0.466849 0.864749 -0.363225
C24   C     C_R   0.828768 0.448664 0.784808 0.112112
C25   C     C_R   0.086578 0.542647 0.755716 0.229053
C26   C     C_R   0.152995 0.560159 0.836874 -0.364668
C27   C     C_R   0.059045 0.518890 0.892096 0.135133
C28   C     C_2   0.064973 0.483420 0.032096 -0.173909
C29   C     C_2   0.137678 0.529391 0.976818 -0.157573
C30   C     C_R   0.928787 0.482012 0.731245 0.217938
H40   H     H_    0.262980 0.573990 0.993083 0.140170
H41   H     H_    0.908646 0.431573 0.157726 0.168249
H42   H     H_    0.812465 0.439505 0.903972 0.167556
H43   H     H_    0.938688 0.441128 0.017787 0.135585
H44   H     H_    0.395542 0.512709 0.092079 0.141924
H45   H     H_    0.277307 0.604765 0.856752 0.177186
H46   H     H_    0.308980 0.535191 0.335632 0.174002
C31   C     C_R   0.770728 0.182453 0.531685 -0.478924
C32   C     C_R   0.420143 0.810433 0.473528 -0.510101
C33   C     C_R   0.387081 0.985083 0.445341 -0.181887
C34   C     C_R   0.321847 0.877720 0.442155 0.207386
C35   C     C_R   0.579657 0.850949 0.515177 0.286988
C36   C     C_R   0.645187 0.962483 0.522435 -0.061229
C37   C     C_R   0.547674 0.029580 0.485511 -0.058768
C38   C     C_R   0.613044 0.139809 0.490370 0.263538
C39   C     C_R   0.869324 0.117331 0.565114 0.211998
C40   C     C_R   0.805820 0.008795 0.562869 -0.218865
H47   H     H_    0.309200 0.032901 0.416992 0.186683
H48   H     H_    0.884457 0.961446 0.591014 0.191558
H49   H     H_    0.821513 0.265973 0.533356 0.190990
H50   H     H_    0.368702 0.726256 0.468540 0.176170
C41   C     C_3   0.214872 0.274949 0.903183 -0.326107
C42   C     C_3   0.270262 0.235723 0.979023 -0.851550
H51   H     H_    0.178764 0.166602 0.986338 0.263096
H52   H     H_    0.393498 0.210828 0.977916 0.261393
H53   H     H_    0.280158 0.301492 0.030348 0.250358
H54   H     H_    0.306549 0.345420 0.898081 0.233346
H55   H     H_    0.092821 0.300506 0.906272 0.208521
O25   O     O_3   0.868427 0.457989 0.652917 -0.648457
C43   C     C_3   0.778889 0.538650 0.636144 0.159273
H56   H     H_    0.859091 0.614234 0.634079 0.126864
H57   H     H_    0.692738 0.559587 0.677894 0.056766
H58   H     H_    0.704196 0.503359 0.579059 0.235855

loop_
_geom_bond_atom_site_label_1
_geom_bond_atom_site_label_2
_geom_bond_distance
_ccdc_geom_bond_type
C28   H43   1.080047 S    
C12   H28   1.108724 S    
C16   H38   1.107981 S    
C11   H26   1.111072 S    
C21   H41   1.084678 S    
C28   C29   1.364107 D    
P8    C24   1.857405 S    
C2    H4    1.109120 S    
P8    O24   1.743303 S    
C32   C34   1.392171 A    
C15   H35   1.113856 S    
O12   Ba2   2.838745 S    
P4    O13   1.581397 S    
C14   H33   1.111144 S    
C4    C5    1.515678 S    
C20   C21   1.508619 S    
P4    C25   1.892260 S    
C13   H32   1.109992 S    
O4    P6    1.546197 D    
C31   C38   1.390645 A    
C1    H24   1.108893 S    
O1    Ba1   2.838305 S    
C5    H10   1.108701 S    
C2    H5    1.109493 S    
C32   H50   1.082467 S    
H1    C10   1.111736 S    
C12   H29   1.110666 S    
C35   C36   1.427828 A    
C26   H45   1.082619 S    
C6    C7    1.518956 S    
O13   Ba2   2.910317 S    
C36   C37   1.429556 A    
C31   C39   1.388068 A    
P1    O1    1.520600 D    
C41   H54   1.111951 S    
C19   H44   1.084291 S    
C8    C9    1.514027 S    
P4    O12   1.520966 D    
P5    O17   1.754977 S    
O25   C43   1.399380 S    
C13   C14   1.531102 S    
P2    O10   1.761497 S    
C43   H58   1.089074 S    
P7    O21   1.570512 D    
C30   O25   1.358364 S    
O6    P6    1.754564 S    
P3    C34   1.838540 S    
P5    O18   1.541572 D    
P2    C35   1.862347 S    
C8    H19   1.087659 S    
C12   H27   1.110993 S    
C11   C12   1.521854 S    
C10   H23   1.109133 S    
P2    Ba1   3.404292 S    
P6    C18   1.859129 S    
C21   C22   1.332421 D    
Ba1   Ba2   4.538998 S    
P8    O23   1.546798 D    
O16   P7    1.765629 S    
O6    C10   1.404582 S    
C40   H48   1.075472 S    
C14   H34   1.111131 S    
O19   C13   1.401623 S    
C13   H31   1.109758 S    
C31   H49   1.082525 S    
P1    O5    1.751248 S    
Ba2   O20   2.829616 S    
C2    C3    1.519970 S    
C20   C28   1.503165 S    
C18   C19   1.515981 S    
O16   Ba2   2.894857 S    
H37   C16   1.108952 S    
O11   C2    1.405411 S    
P4    O15   1.756305 S    
C42   H53   1.107795 S    
C4    H8    1.096087 S    
C7    H17   1.109839 S    
P1    Ba1   3.377046 S    
C36   C40   1.414244 A    
C1    C10   1.520093 S    
O10   C8    1.396598 S    
C9    H20   1.109454 S    
C4    O15   1.403625 S    
P4    Ba2   3.377591 S    
P2    O20   1.593509 S    
C41   H55   1.108620 S    
C26   C27   1.428658 A    
P1    C22   1.849399 S    
C23   C24   1.393525 A    
C27   C29   1.509135 S    
C6    H13   1.101845 S    
O3    Ba1   2.826260 S    
Ba2   O21   2.877537 S    
C29   H40   1.084254 S    
C9    H21   1.110010 S    
C24   C30   1.399057 A    
O8    Ba1   2.789332 S    
C33   C37   1.408081 A    
P3    O11   1.750135 S    
C8    H18   1.110044 S    
P2    O7    1.502832 D    
C1    H3    1.110282 S    
C43   H56   1.097093 S    
C3    H7    1.110426 S    
C17   H46   1.085846 S    
O2    Ba2   2.834396 S    
Ba1   O16   2.830193 S    
C15   O24   1.407158 S    
C14   C41   1.529045 S    
C33   C34   1.388262 A    
C1    H2    1.110266 S    
C23   H42   1.077797 S    
C7    H15   1.107053 S    
C42   H52   1.110915 S    
O14   Ba2   2.825707 S    
C5    H12   1.109859 S    
O7    Ba1   2.877331 S    
O14   P8    1.758952 S    
C39   C40   1.401730 A    
C4    H9    1.096536 S    
O5    C6    1.400370 S    
P3    O8    1.739793 S    
Ba1   O20   2.895689 S    
C5    H11   1.108068 S    
C37   C38   1.417760 A    
C15   C16   1.517620 S    
C17   C18   1.515540 S    
C41   C42   1.526258 S    
P7    C38   1.843820 S    
C42   H51   1.110842 S    
C23   C27   1.415522 A    
C7    H16   1.108118 S    
C19   C20   1.354903 D    
C6    H14   1.109580 S    
C32   C35   1.400585 A    
O2    Ba1   2.909485 S    
C9    H22   1.109219 S    
Ba1   O13   2.833793 S    
C11   H25   1.109925 S    
P5    C39   1.838995 S    
P5    O19   1.746218 S    
C33   H47   1.077604 S    
C11   O22   1.401566 S    
C25   C26   1.416949 A    
P3    O9    1.545146 D    
O3    P6    1.741627 S    
C43   H57   1.109212 S    
C16   H39   1.110550 S    
C3    H6    1.110962 S    
P7    O22   1.749446 S    
C3    H30   1.110565 S    
P1    O2    1.581396 S    
C17   C22   1.320155 D    
C15   H36   1.110252 S    
C25   C30   1.390962 A    
O17   Ba2   2.789912 S    
