data_mof_unit_18781.cif
_audit_creation_date              2013-03-05T15:41:44-0500
_audit_creation_method            fapswitch 2.2
_symmetry_space_group_name_H-M    P1
_symmetry_Int_Tables_number       1
_space_group_crystal_system       triclinic
_cell_length_a                    6.944211
_cell_length_b                    13.658564
_cell_length_c                    20.387452
_cell_angle_alpha                 102.047119
_cell_angle_beta                  89.905218
_cell_angle_gamma                 90.990848
_cell_volume                      1890.83404696

loop_
_atom_site_label
_atom_site_type_symbol
_atom_site_description
_atom_site_fract_x
_atom_site_fract_y
_atom_site_fract_z
_atom_type_partial_charge
O1    O     O_R   0.506860 0.599390 0.449240 -0.557181
O2    O     O_R   0.180220 0.594600 0.586780 -0.568597
O3    O     O_R   0.004500 0.400610 0.550760 -0.561823
C1    C     C_R   0.349766 0.616498 0.613295 0.844659
O4    O     O_R   0.177490 0.611290 0.451970 -0.560740
O5    O     O_R   0.001750 0.417420 0.414990 -0.521525
C2    C     C_R   0.347620 0.638104 0.435367 0.837463
O6    O     O_R   0.509610 0.582580 0.585010 -0.563481
O7    O     O_3   0.337420 0.436370 0.488020 -0.260649
V1    V     V_3+5 0.064680 0.511800 0.502220 1.159261
O8    O     O_R   0.671710 0.405400 0.413220 -0.571602
C3    C     C_R   0.839747 0.386388 0.385552 0.796601
O9    O     O_R   0.674440 0.388710 0.548030 -0.565938
C4    C     C_R   0.841919 0.361962 0.564693 0.821398
V2    V     V_3+5 0.564010 0.488200 0.497780 1.152029
O10   O     O_3   0.841140 0.563630 0.511980 -0.277515
C5    C     C_R   0.789918 0.113567 0.614091 -0.068097
H1    H     H_    0.783469 0.163244 0.521066 0.083798
H2    H     H_    0.761251 0.990665 0.698471 0.078044
H3    H     H_    0.759304 0.036420 0.589820 0.113899
C6    C     C_R   0.844401 0.285082 0.604813 -0.081751
C7    C     C_R   0.901386 0.316324 0.929135 0.395540
C8    C     C_R   0.918835 0.391214 0.892180 -0.100871
C9    C     C_R   0.900666 0.368529 0.822600 -0.147603
C10   C     C_R   0.864800 0.269106 0.787285 0.050912
C11   C     C_R   0.845616 0.192664 0.825082 -0.051236
C12   C     C_R   0.848776 0.242792 0.715763 0.060442
C13   C     C_R   0.810499 0.141259 0.684052 0.050634
C14   C     C_R   0.790852 0.068114 0.722288 -0.077308
C15   C     C_R   0.808292 0.093291 0.791530 -0.056275
C16   C     C_R   0.867653 0.313654 0.674372 -0.110474
C17   C     C_R   0.804693 0.185309 0.574813 -0.112179
C18   C     C_R   0.867446 0.216703 0.895818 -0.151107
H4    H     H_    0.895231 0.392038 0.694455 0.045490
H5    H     H_    0.916736 0.430772 0.798101 0.075644
H6    H     H_    0.949244 0.467741 0.917676 0.079855
H7    H     H_    0.790974 0.033940 0.818761 0.086631
C19   C     C_2   0.002437 0.276841 0.288244 0.392061
C20   C     C_2   0.844281 0.328790 0.314440 0.184446
C21   C     C_2   0.008801 0.225569 0.215374 -0.110450
C22   C     C_2   0.860507 0.171386 0.183471 -0.211252
H8    H     H_    0.143915 0.228098 0.188851 0.093586
H9    H     H_    0.726691 0.164706 0.209906 0.112202
C23   C     C_2   0.206729 0.804434 0.777110 0.416432
C24   C     C_2   0.356377 0.812852 0.820467 -0.218147
H10   H     H_    0.478981 0.764569 0.808549 -0.017338
C25   C     C_2   0.207075 0.731610 0.710445 -0.152222
C26   C     C_2   0.363460 0.685858 0.679649 -0.253030
H11   H     H_    0.071093 0.718042 0.683824 0.103215
H12   H     H_    0.505384 0.700638 0.701868 0.063317
C27   C     C_R   0.445028 0.888323 0.388340 0.436227
H13   H     H_    0.498847 0.008203 0.301200 0.095200
C28   C     C_R   0.362831 0.718027 0.397455 -0.195238
C29   C     C_R   0.298951 0.688808 0.074076 -0.102032
C30   C     C_R   0.272086 0.614865 0.110880 -0.073721
C31   C     C_R   0.293755 0.637255 0.180373 -0.075330
C32   C     C_R   0.344423 0.735405 0.215235 0.081940
C33   C     C_R   0.376121 0.810315 0.176826 0.020273
C34   C     C_R   0.364839 0.761599 0.286712 -0.006861
C35   C     C_R   0.421311 0.861006 0.317949 -0.047344
C36   C     C_R   0.454165 0.932335 0.278632 -0.081722
C37   C     C_R   0.430344 0.907887 0.209590 -0.117919
C38   C     C_R   0.332573 0.692087 0.328197 -0.177093
C39   C     C_R   0.421949 0.816449 0.428046 0.328062
C40   C     C_R   0.351316 0.786186 0.106200 -0.088280
H14   H     H_    0.288245 0.615746 0.308183 0.086108
H15   H     H_    0.278031 0.670150 0.020206 0.054149
H16   H     H_    0.270044 0.575661 0.204988 0.069531
H17   H     H_    0.232413 0.539502 0.085385 0.097077
H18   H     H_    0.456329 0.966507 0.182013 0.065881
O11   O     O_R   0.203230 0.917310 0.915020 -0.520400
O12   O     O_R   0.535500 0.888690 0.048040 -0.566362
O13   O     O_R   0.711080 0.082610 0.085000 -0.563681
C41   C     C_R   0.365617 0.862767 0.065450 0.809652
O14   O     O_R   0.532630 0.905370 0.913230 -0.588269
O15   O     O_R   0.708190 0.099410 0.949230 -0.573827
C42   C     C_R   0.363525 0.884332 0.886308 0.858597
O16   O     O_R   0.206120 0.900510 0.050790 -0.566436
O17   O     O_3   0.375360 0.063570 0.011990 -0.275760
V3    V     V_3+5 0.648170 0.988200 0.997780 1.132354
O18   O     O_R   0.038240 0.111390 0.951940 -0.541204
C43   C     C_R   0.870702 0.138004 0.935154 0.881876
O19   O     O_R   0.041120 0.094710 0.086750 -0.560915
C44   C     C_R   0.872774 0.113828 0.113916 0.847858
V4    V     V_3+5 0.148810 0.011930 0.002180 1.167678
O20   O     O_3   0.871750 0.936430 0.988010 -0.280429
O21   O     O_3   0.688361 0.333121 0.272855 -0.776335
H19   H     H_    0.592498 0.380132 0.297081 0.322750
O22   O     O_3   0.055034 0.870139 0.793558 -0.636084
C45   C     C_3   0.876396 0.818394 0.784980 0.179454
H20   H     H_    0.880712 0.743611 0.798743 0.005533
H21   H     H_    0.822801 0.811843 0.732942 0.023689
H22   H     H_    0.771392 0.863227 0.818657 0.090837
O23   O     O_3   0.460221 0.845919 0.495982 -0.717927
H23   H     H_    0.427060 0.791225 0.519248 0.285081
O24   O     O_3   0.505495 0.984427 0.418168 -0.633727
C46   C     C_3   0.343226 0.039692 0.444796 0.174568
H24   H     H_    0.232079 0.040326 0.405592 -0.003745
H25   H     H_    0.389815 0.118371 0.464748 0.066045
H26   H     H_    0.279377 0.010459 0.487111 0.092156
O25   O     O_3   0.932485 0.339333 0.997661 -0.653018
C47   C     C_3   0.760806 0.377224 0.029426 0.138679
H27   H     H_    0.639567 0.321932 0.017268 0.047243
H28   H     H_    0.722392 0.449354 0.015980 0.032396
H29   H     H_    0.783343 0.391946 0.084500 0.090670
O26   O     O_3   0.166446 0.281851 0.328439 -0.644923
C48   C     C_3   0.276039 0.194114 0.311892 0.162437
H30   H     H_    0.363029 0.193665 0.266085 0.068049
H31   H     H_    0.184199 0.125155 0.305999 0.004039
H32   H     H_    0.378766 0.193574 0.353403 0.083325

loop_
_geom_bond_atom_site_label_1
_geom_bond_atom_site_label_2
_geom_bond_distance
_ccdc_geom_bond_type
C33   C37   1.405671 A    
O21   H19   0.990312 S    
O25   C47   1.409748 S    
C48   H31   1.113797 S    
C20   O21   1.385931 S    
C1    O6    1.297455 A    
C46   H24   1.113446 S    
C45   H20   1.115188 S    
C25   H11   1.083616 S    
C29   C40   1.396646 A    
V4    O20   2.158095 S    
C6    C16   1.398936 A    
C7    O25   1.382980 S    
C4    C6    1.459850 S    
C13   C14   1.394428 A    
H13   C36   1.082639 S    
O5    C3    1.298070 A    
C19   C20   1.364442 D    
C28   C39   1.412950 A    
C32   C34   1.432797 A    
O26   C48   1.411028 S    
V2    O10   2.158131 S    
C5    H3    1.084118 S    
C31   C32   1.418767 A    
C37   H18   1.082711 S    
C47   H29   1.109469 S    
V3    O20   1.711241 S    
C33   C40   1.418569 A    
O11   V4    2.006665 S    
O8    V2    2.005374 S    
O13   V3    2.010365 S    
O19   C44   1.299849 A    
C48   H30   1.110387 S    
O1    V2    2.023059 S    
O14   V3    2.013487 S    
O13   C44   1.292597 A    
C36   C37   1.386675 A    
C23   C25   1.507439 S    
C27   O24   1.384814 S    
C21   H8    1.085782 S    
C38   H14   1.077129 S    
C34   C35   1.422792 A    
O9    C4    1.292008 A    
C22   H9    1.085453 S    
C47   H27   1.114065 S    
C46   H25   1.109471 S    
O18   C43   1.292544 A    
C6    C17   1.395304 A    
C9    H5    1.076316 S    
C12   C16   1.415015 A    
C9    C10   1.416079 A    
O12   C41   1.296025 A    
O15   C43   1.294324 A    
O4    C2    1.296120 A    
C29   H15   1.083817 S    
C10   C11   1.425615 A    
C24   H10   1.081960 S    
C22   C44   1.474016 S    
C40   C41   1.467326 S    
C15   H7    1.078928 S    
C35   C36   1.400498 A    
C19   O26   1.396546 S    
O2    C1    1.300113 A    
C14   C15   1.386450 A    
C11   C18   1.418403 A    
C45   H21   1.110228 S    
C25   C26   1.349614 D    
C8    C9    1.392842 A    
O24   C46   1.410876 S    
C30   C31   1.393438 A    
C16   H4    1.077372 S    
C47   H28   1.113099 S    
O14   C42   1.299013 A    
C30   H17   1.083038 S    
O3    C4    1.294175 A    
O16   V4    2.026904 S    
C21   C22   1.343922 D    
O19   V4    2.005390 S    
C11   C15   1.406478 A    
O6    V2    2.006195 S    
O9    V2    2.025819 S    
C48   H32   1.109035 S    
H1    C17   1.083694 S    
C2    C28   1.465658 S    
O2    V1    2.013484 S    
O11   C42   1.299884 A    
C46   H26   1.112054 S    
C23   C24   1.353138 D    
C45   H22   1.102892 S    
C1    C26   1.482876 S    
O7    V1    2.161835 S    
C7    C18   1.404284 A    
C29   C30   1.388224 A    
O1    C2    1.290771 A    
C5    C13   1.404093 A    
C27   C39   1.403784 A    
O15   V3    2.016197 S    
O5    V1    2.010361 S    
C24   C42   1.486264 S    
O8    C3    1.301691 A    
C10   C12   1.431118 A    
C34   C38   1.412155 A    
C3    C20   1.498794 S    
O7    V2    1.708897 S    
C39   O23   1.384131 S    
O4    V1    2.012824 S    
O12   V3    2.012800 S    
O3    V1    2.016047 S    
C31   H16   1.076049 S    
C19   C21   1.505338 S    
C28   C38   1.397492 A    
C32   C33   1.426392 A    
C26   H12   1.083361 S    
O17   V4    1.707706 S    
O23   H23   0.988777 S    
C18   C43   1.469647 S    
O17   V3    2.161892 S    
C8    H6    1.083172 S    
C41   O16   1.291118 A    
C12   C13   1.423159 A    
C5    C17   1.391323 A    
C7    C8    1.394882 A    
V1    O10   1.711313 S    
C27   C35   1.414551 A    
O22   C45   1.409873 S    
O18   V4    2.025746 S    
C23   O22   1.390476 S    
H2    C14   1.084181 S    
