data_mof_unit_40545.cif
_audit_creation_date              2012-12-11T14:58:38-0500
_audit_creation_method            fapswitch 2.2
_symmetry_space_group_name_H-M    P1
_symmetry_Int_Tables_number       1
_space_group_crystal_system       triclinic
_cell_length_a                    11.118553
_cell_length_b                    11.047456
_cell_length_c                    18.832722
_cell_angle_alpha                 90.301577
_cell_angle_beta                  90.810587
_cell_angle_gamma                 59.384475
_cell_volume                      1990.59299379

loop_
_atom_site_label
_atom_site_type_symbol
_atom_type_description
_atom_site_fract_x
_atom_site_fract_y
_atom_site_fract_z
_atom_type_partial_charge
C1    C     C_R   0.360440 0.766483 0.395832 0.548620
C2    C     C_R   0.204510 0.358012 0.217170 -0.173426
C3    C     C_R   0.217467 0.385211 0.288784 -0.063257
C4    C     C_R   0.383546 0.352387 0.389552 0.587143
C5    C     C_R   0.969746 0.722282 0.427265 0.087326
C6    C     C_R   0.979216 0.591197 0.438888 -0.003529
C7    C     C_R   0.046566 0.482212 0.388559 -0.126208
C8    C     C_R   0.100683 0.504019 0.326322 0.031242
C9    C     C_R   0.352931 0.329724 0.316894 0.020399
C10   C     C_R   0.911932 0.224701 0.307275 -0.178424
C11   C     C_R   0.935635 0.206507 0.235105 -0.031709
C12   C     C_R   0.598871 0.057089 0.194344 -0.000919
C13   C     C_R   0.875709 0.325675 0.188099 -0.006699
C14   C     C_R   0.791340 0.461161 0.216125 0.011547
C15   C     C_R   0.775640 0.475953 0.288843 -0.085585
C16   C     C_R   0.779335 0.379030 0.404624 0.562361
C17   C     C_R   0.831340 0.357802 0.333659 0.025257
C18   C     C_R   0.376035 0.904709 0.296861 -0.136008
C19   C     C_R   0.371752 0.927984 0.224278 -0.125066
C20   C     C_R   0.358917 0.839229 0.175117 0.059148
C21   C     C_R   0.357923 0.719424 0.199239 -0.017117
C22   C     C_R   0.352136 0.702889 0.272266 -0.147887
C23   C     C_R   0.324245 0.263329 0.177667 -0.041280
C24   C     C_R   0.358702 0.796047 0.320829 0.011617
C25   C     C_R   0.372594 0.207539 0.694369 -0.078647
C26   C     C_R   0.357729 0.194616 0.765828 -0.125197
C27   C     C_R   0.300555 0.313492 0.810476 0.001276
C28   C     C_R   0.347061 0.765178 0.605330 0.542395
C29   C     C_R   0.246022 0.449104 0.781825 0.001808
C30   C     C_R   0.261131 0.460682 0.709372 -0.135330
C31   C     C_R   0.329149 0.339598 0.666549 0.060909
C32   C     C_R   0.922926 0.372042 0.706222 -0.007739
C33   C     C_R   0.948369 0.364991 0.778597 -0.174350
C34   C     C_R   0.466585 0.265237 0.271206 -0.005272
C35   C     C_R   0.908263 0.291000 0.822418 -0.023391
C36   C     C_R   0.847239 0.218423 0.793404 -0.141176
C37   C     C_R   0.819884 0.224587 0.720530 0.004821
C38   C     C_R   0.845580 0.314468 0.677119 0.016974
C39   C     C_R   0.197051 0.883538 0.707674 -0.111882
C40   C     C_R   0.371429 0.352112 0.596321 0.564138
C41   C     C_R   0.181904 0.900853 0.780317 -0.139096
C42   C     C_R   0.299190 0.841925 0.825932 0.060796
C43   C     C_R   0.434560 0.760830 0.797956 -0.014737
C44   C     C_R   0.448744 0.747845 0.724398 -0.169614
C45   C     C_R   0.459989 0.192411 0.212847 -0.046707
C46   C     C_R   0.330324 0.808104 0.679258 0.006502
C47   C     C_R   0.919891 0.311096 0.114187 0.580953
C48   C     C_R   0.303204 0.252526 0.101206 0.543234
C49   C     C_R   0.309826 0.896281 0.104122 0.579895
C50   C     C_R   0.943628 0.282553 0.897289 0.549457
C51   C     C_R   0.293490 0.287063 0.884913 0.583254
C52   C     C_R   0.768970 0.371951 0.609133 0.541092
C53   C     C_R   0.275383 0.893426 0.898557 0.610587
C54   C     C_R   0.867950 0.835127 0.153006 0.070547
C55   C     C_R   0.845970 0.897074 0.219925 -0.086068
C56   C     C_R   0.082187 0.636652 0.313933 -0.097866
C57   C     C_R   0.715552 0.005164 0.240712 -0.095726
C58   C     C_2   0.568905 0.313764 0.268935 0.202087
C59   C     C_2   0.917340 0.837355 0.479993 0.598070
C60   C     C_2   0.922452 0.562164 0.502262 0.297231
C61   C     C_2   0.016659 0.059156 0.213655 0.201215
C62   C     C_2   0.709347 0.588166 0.171461 0.580504
C63   C     C_2   0.363938 0.609773 0.150965 0.257451
C64   C     C_2   0.761980 0.833237 0.032391 0.587944
C65   C     C_2   0.176673 0.578834 0.825223 0.579829
C66   C     C_2   0.994581 0.423251 0.661721 0.249928
C67   C     C_R   0.020731 0.742941 0.364469 -0.105343
C68   C     C_2   0.775045 0.127552 0.692957 0.594038
C69   C     C_2   0.562016 0.682278 0.842950 0.242059
C70   C     C_2   0.011721 0.730351 0.133125 0.282940
C71   C     C_R   0.621137 0.971216 0.135208 -0.045636
C72   C     C_R   0.752282 0.876260 0.108219 0.088367
Cr1   Cr    Cr6+3 0.601770 0.606860 0.505860 1.083102
Cr2   Cr    Cr6+3 0.291380 0.601660 0.495070 1.071525
Cr3   Cr    Cr6+3 0.606880 0.291510 0.499120 1.098661
Cr4   Cr    Cr6+3 0.062440 0.063090 0.008210 1.127680
Cr5   Cr    Cr6+3 0.062880 0.375170 0.998920 1.155175
Cr6   Cr    Cr6+3 0.374700 0.061720 0.992470 1.058013
H1    H     H_    0.065207 0.377891 0.399894 0.088087
H2    H     H_    0.004804 0.412859 0.800649 0.130205
H3    H     H_    0.824772 0.153528 0.827288 0.183857
H4    H     H_    0.104865 0.927599 0.673743 0.191345
H5    H     H_    0.021420 0.839740 0.356932 0.123342
H6    H     H_    0.077710 0.963639 0.800924 0.131446
H7    H     H_    0.552190 0.682660 0.702627 0.139060
H8    H     H_    0.933616 0.875433 0.252146 0.100996
H9    H     H_    0.709510 0.049164 0.292843 0.149830
H10   H     H_    0.129311 0.652935 0.268255 0.070204
H11   H     H_    0.539384 0.968864 0.111727 0.206652
H12   H     H_    0.950921 0.134831 0.342758 0.117703
H13   H     H_    0.102073 0.413010 0.192098 0.163150
H14   H     H_    0.648709 0.274708 0.228629 0.141845
H15   H     H_    0.802512 0.046077 0.497597 0.373493
H16   H     H_    0.944887 0.455977 0.510725 0.161374
H17   H     H_    0.102178 0.983917 0.246799 0.087304
H18   H     H_    0.604723 0.671977 0.079578 0.384588
H19   H     H_    0.354939 0.523927 0.172558 0.110127
H20   H     H_    0.665256 0.810483 0.946553 0.351861
H21   H     H_    0.018247 0.779580 0.832773 0.358707
H22   H     H_    0.986769 0.523421 0.672931 0.162736
H23   H     H_    0.706843 0.580271 0.309942 0.191178
H24   H     H_    0.671160 0.025648 0.711336 0.344789
H25   H     H_    0.664302 0.644062 0.820136 0.107352
H26   H     H_    0.097162 0.738017 0.155584 0.112884
H27   H     H_    0.383836 0.975957 0.333828 0.123810
H28   H     H_    0.366393 0.021922 0.206402 0.103010
H29   H     H_    0.343388 0.616281 0.291900 0.161962
H30   H     H_    0.422476 0.114304 0.661421 0.138515
H31   H     H_    0.393328 0.090112 0.786490 0.138979
H32   H     H_    0.226898 0.563817 0.687216 0.178450
O1    O     O_R   0.748800 0.497470 0.428000 -0.551257
O2    O     O_R   0.417600 0.174890 0.067840 -0.512554
O3    O     O_R   0.375320 0.946260 0.070860 -0.537957
O4    O     O_R   0.476420 0.724060 0.429470 -0.477444
O5    O     O_R   0.160600 0.919630 0.926660 -0.492459
O6    O     O_R   0.933060 0.190520 0.936020 -0.490576
O7    O     O_R   0.908880 0.403460 0.925020 -0.460595
O8    O     O_R   0.179600 0.361450 0.918490 -0.485747
O9    O     O_R   0.391510 0.170860 0.907530 -0.495882
O10   O     O_R   0.351130 0.942530 0.922260 -0.483198
O11   O     O_3   0.166667 0.166667 0.999870 -0.364936
O12   O     O_R   0.300070 0.471040 0.567100 -0.503472
O13   O     O_R   0.264580 0.744340 0.416750 -0.533242
O14   O     O_R   0.309380 0.472470 0.418200 -0.499289
O15   O     O_R   0.501710 0.260430 0.414300 -0.480097
O16   O     O_R   0.728090 0.305600 0.428960 -0.455160
O17   O     O_R   0.738760 0.495930 0.588610 -0.495778
O18   O     O_R   0.467110 0.722640 0.578360 -0.497810
O19   O     O_R   0.254530 0.742800 0.577360 -0.483393
O20   O     O_2   0.559722 0.404463 0.309067 -0.534672
O21   O     O_2   0.957077 0.812506 0.541892 -0.428597
O22   O     O_R   0.828828 0.975996 0.457488 -0.715228
O23   O     O_R   0.491670 0.258900 0.574910 -0.503871
O24   O     O_2   0.843364 0.655129 0.542345 -0.464937
O25   O     O_2   0.977645 0.016616 0.164210 -0.495104
O26   O     O_2   0.678450 0.703343 0.195138 -0.561374
O27   O     O_R   0.661442 0.577555 0.104007 -0.614663
O28   O     O_2   0.379817 0.612687 0.087120 -0.404207
O29   O     O_2   0.864492 0.806997 0.997586 -0.460138
O30   O     O_R   0.648659 0.834114 0.998879 -0.670790
O31   O     O_2   0.221308 0.581430 0.884590 -0.424209
O32   O     O_R   0.059929 0.699143 0.797541 -0.703773
O33   O     O_2   0.071987 0.347408 0.615285 -0.555620
O34   O     O_R   0.718780 0.304180 0.577850 -0.491061
O35   O     O_2   0.824394 0.061986 0.638197 -0.481456
O36   O     O_R   0.686361 0.100922 0.733233 -0.696422
O37   O     O_2   0.555070 0.653805 0.904756 -0.422042
O38   O     O_2   0.036230 0.632969 0.093739 -0.433640
O39   O     O_3   0.500010 0.500010 0.500020 -0.275464
O40   O     O_R   0.186690 0.923650 0.086970 -0.440219
O41   O     O_R   0.957250 0.194250 0.084630 -0.439371
O42   O     O_R   0.934970 0.407490 0.085330 -0.475913
O43   O     O_R   0.203780 0.365190 0.067090 -0.413455

loop_
_geom_bond_atom_site_label_1
_geom_bond_atom_site_label_2
_ccdc_geom_bond_type
C25   C31   A    
C49   O3    A    
C48   O43   A    
C67   H5    S    
C23   C45   A    
C27   C29   A    
C50   O7    A    
C41   C42   A    
H21   O32   S    
Cr2   O14   S    
C35   C36   A    
C5    C67   A    
C8    C56   A    
C53   O10   A    
C7    C8    A    
C39   C41   A    
Cr4   O6    S    
C59   O21   D    
C26   C27   A    
C29   C30   A    
C4    O15   A    
C30   H32   S    
C18   C24   A    
Cr4   O11   S    
C7    H1    S    
C36   C37   A    
C37   C38   A    
C58   O20   D    
C28   O19   A    
Cr5   O7    S    
C42   C53   S    
C30   C31   A    
C70   H26   S    
C56   H10   S    
C38   C52   S    
C10   C17   A    
C66   H22   S    
C22   H29   S    
C14   C62   S    
C37   C68   S    
Cr4   O5    S    
C31   C40   S    
C4    O14   A    
C18   C19   A    
C62   O26   D    
Cr6   O11   S    
Cr5   O43   S    
C47   O42   A    
C19   C20   A    
C44   C46   A    
C16   C17   S    
C54   C70   S    
C51   O9    A    
Cr2   O39   S    
C32   C38   A    
H15   O22   S    
Cr1   O39   S    
Cr2   O13   S    
C43   C69   S    
C13   C14   A    
Cr5   O42   S    
C52   O17   A    
C27   C51   S    
Cr1   O1    S    
C69   H25   S    
C59   O22   S    
C5    C59   S    
C6    C60   S    
C3    C8    S    
Cr3   O34   S    
H18   O27   S    
C13   C47   S    
C66   O33   D    
Cr4   O41   S    
C25   C26   A    
Cr1   O17   S    
C41   H6    S    
Cr1   O4    S    
C57   H9    S    
H20   O30   S    
Cr3   O15   S    
Cr6   O10   S    
C43   C44   A    
C1    O13   A    
C20   C49   S    
C3    C9    A    
C65   O31   D    
C71   H11   S    
Cr4   O40   S    
C36   H3    S    
C28   C46   S    
C35   C50   S    
C61   H17   S    
C34   C45   A    
C52   O34   A    
C15   H23   S    
C26   H31   S    
C39   C46   A    
C29   C65   S    
C12   C57   A    
C49   O40   A    
C48   O2    A    
C12   C71   A    
C47   O41   A    
Cr5   O8    S    
C55   C57   A    
C9    C34   A    
C69   O37   D    
C63   O28   D    
C22   C24   A    
Cr6   O3    S    
C70   O38   D    
C42   C43   A    
C44   H7    S    
C56   C67   A    
C60   O24   D    
C68   O36   S    
C61   O25   D    
C32   C66   S    
C64   O30   S    
C15   C17   A    
C54   C55   A    
C23   C48   S    
Cr2   O12   S    
C39   H4    S    
C12   C45   S    
C11   C61   S    
Cr3   O23   S    
C33   H2    S    
C6    C7    A    
Cr1   O18   S    
C40   O12   A    
C40   O23   A    
Cr3   O16   S    
C32   C33   A    
C55   H8    S    
Cr6   O9    S    
C16   O1    A    
C18   H27   S    
C71   C72   A    
C63   H19   S    
H24   O36   S    
C65   O32   S    
C11   C13   A    
C5    C6    A    
C16   O16   A    
Cr3   O39   S    
C33   C35   A    
C2    C3    A    
C50   O6    A    
C64   C72   S    
C62   O27   S    
C2    H13   S    
C21   C63   S    
Cr5   O11   S    
C10   C11   A    
C51   O8    A    
C19   H28   S    
C28   O18   A    
C54   C72   A    
C20   C21   A    
C10   H12   S    
C1    C24   S    
C1    O4    A    
Cr2   O19   S    
C2    C23   A    
C34   C58   S    
C14   C15   A    
Cr6   O2    S    
C4    C9    S    
C21   C22   A    
C58   H14   S    
C68   O35   D    
C53   O5    A    
C25   H30   S    
C64   O29   D    
C60   H16   S    
