data_mof_unit_34094.cif
_audit_creation_date              2012-12-11T14:29:43-0500
_audit_creation_method            fapswitch 2.2
_symmetry_space_group_name_H-M    P1
_symmetry_Int_Tables_number       1
_space_group_crystal_system       triclinic
_cell_length_a                    6.934839
_cell_length_b                    14.786813
_cell_length_c                    16.247914
_cell_angle_alpha                 90.581303
_cell_angle_beta                  89.523895
_cell_angle_gamma                 90.0998
_cell_volume                      1665.98325595

loop_
_atom_site_label
_atom_site_type_symbol
_atom_type_description
_atom_site_fract_x
_atom_site_fract_y
_atom_site_fract_z
_atom_type_partial_charge
O1    O     O_R   0.494400 0.416610 0.413880 -0.548339
O2    O     O_R   0.823920 0.406790 0.585520 -0.545153
O3    O     O_R   0.994250 0.583390 0.586120 -0.537635
C1    C     C_R   0.654062 0.385903 0.614170 0.751059
O4    O     O_R   0.824110 0.405730 0.414490 -0.515726
O5    O     O_R   0.994440 0.582310 0.413870 -0.530463
C2    C     C_R   0.656050 0.385261 0.385325 0.779832
O6    O     O_R   0.494210 0.417690 0.586130 -0.548947
O7    O     O_3   0.660810 0.557940 0.500000 -0.365808
V1    V     V_3+5 0.935650 0.489250 0.500000 1.468930
O8    O     O_R   0.324160 0.593210 0.414480 -0.539471
C3    C     C_R   0.156178 0.613588 0.385630 0.799858
O9    O     O_R   0.323970 0.594270 0.585510 -0.543517
C4    C     C_R   0.154771 0.615657 0.614276 0.683704
V2    V     V_3+5 0.435660 0.510750 0.500000 1.447488
O10   O     O_3   0.160630 0.442060 0.500000 -0.375790
C5    C     C_R   0.136156 0.563311 0.784827 -0.244182
C6    C     C_R   0.127430 0.534264 0.866639 0.260065
C7    C     C_R   0.115746 0.598281 0.930633 0.257557
C8    C     C_R   0.113253 0.690710 0.912161 -0.241808
C9    C     C_R   0.122380 0.721337 0.829947 0.015676
C10   C     C_R   0.133986 0.656217 0.765127 0.041400
C11   C     C_R   0.120132 0.815306 0.812214 -0.146396
C12   C     C_R   0.128316 0.844381 0.728361 0.066483
C13   C     C_R   0.140781 0.777882 0.663822 -0.026758
C14   C     C_R   0.143668 0.684325 0.682134 -0.121299
C15   C     C_R   0.122983 0.937683 0.705640 0.135405
C16   C     C_R   0.131867 0.962247 0.622602 -0.199905
C17   C     C_R   0.145132 0.897069 0.560294 0.236092
C18   C     C_R   0.148733 0.806046 0.580939 -0.138411
H1    H     H_    0.127320 0.033242 0.606825 0.117056
C19   C     C_2   0.001175 0.725162 0.294511 0.192786
C20   C     C_2   0.152128 0.669291 0.310647 0.004023
C21   C     C_2   0.979090 0.771883 0.214354 0.171501
C22   C     C_2   0.119029 0.827841 0.186136 -0.372337
C23   C     C_2   0.784788 0.223193 0.792251 0.225764
C24   C     C_2   0.620568 0.179845 0.816292 -0.313556
H2    H     H_    0.486375 0.191411 0.784534 0.092572
C25   C     C_2   0.791868 0.285737 0.720084 -0.170415
C26   C     C_2   0.637083 0.321360 0.682920 -0.336032
H3    H     H_    0.492490 0.306306 0.704514 0.123600
C27   C     C_2   0.766675 0.216429 0.207686 -0.234243
C28   C     C_2   0.608317 0.167580 0.187020 0.041898
C29   C     C_2   0.788259 0.271691 0.284256 0.219747
C30   C     C_2   0.644322 0.325370 0.312445 -0.288518
O11   O     O_R   0.770210 0.079270 0.910680 -0.510319
O12   O     O_R   0.440150 0.091160 0.082270 -0.532257
O13   O     O_R   0.269970 0.914530 0.082860 -0.543148
C31   C     C_R   0.607651 0.110657 0.112124 0.747958
O14   O     O_R   0.440480 0.090100 0.911240 -0.542934
O15   O     O_R   0.270310 0.913460 0.910610 -0.534925
C32   C     C_R   0.610584 0.112936 0.883948 0.760959
O16   O     O_R   0.769870 0.080340 0.082930 -0.557169
O17   O     O_3   0.603660 0.938980 0.996790 -0.380335
V3    V     V_3+5 0.328750 0.007610 0.996740 1.459719
O18   O     O_R   0.940600 0.902510 0.911180 -0.537611
C33   C     C_R   0.109715 0.881685 0.881922 0.791192
O19   O     O_R   0.940270 0.903570 0.082200 -0.548972
C34   C     C_R   0.108107 0.883709 0.111476 0.744624
V4    V     V_3+5 0.828770 0.986010 0.996670 1.446257
O20   O     O_3   0.103730 0.054750 0.996710 -0.360375
N1    N     N_3   0.151819 0.921999 0.475138 -0.672353
H4    H     H_    0.143872 0.992270 0.469421 0.224822
H5    H     H_    0.286419 0.902562 0.451566 0.224231
N2    N     N_3   0.305305 0.653718 0.251928 -0.686977
H6    H     H_    0.395045 0.710312 0.249561 0.238804
H7    H     H_    0.247658 0.640307 0.193824 0.239662
N3    N     N_3   0.800211 0.758865 0.171791 -0.663046
H8    H     H_    0.829214 0.739155 0.110963 0.236588
H9    H     H_    0.722801 0.819445 0.172711 0.243851
H10   H     H_    0.248138 0.837143 0.222473 0.117766
N4    N     N_3   0.960947 0.208675 0.836555 -0.629744
H11   H     H_    0.079165 0.234139 0.803842 0.200860
H12   H     H_    0.951523 0.245708 0.891599 0.241526
H13   H     H_    0.934033 0.305698 0.698277 0.132868
H14   H     H_    0.893985 0.211824 0.168428 0.130849
N5    N     N_3   0.441607 0.160726 0.239896 -0.678330
H15   H     H_    0.351210 0.215789 0.230110 0.224597
H16   H     H_    0.482130 0.157071 0.301600 0.242209
N6    N     N_3   0.971114 0.270942 0.324852 -0.636246
H17   H     H_    0.005125 0.203795 0.337977 0.226794
H18   H     H_    0.074855 0.295207 0.283602 0.216989
H19   H     H_    0.145114 0.512227 0.736774 0.106770
H20   H     H_    0.511473 0.329631 0.278333 0.103514
N7    N     N_3   0.127999 0.439512 0.885424 -0.646904
H21   H     H_    0.259495 0.425092 0.913380 0.224109
H22   H     H_    0.123667 0.400684 0.831345 0.207437
N8    N     N_3   0.104223 0.568543 0.014468 -0.636071
H23   H     H_    0.238668 0.541839 0.029620 0.226366
H24   H     H_    0.080459 0.623407 0.054334 0.212711
H25   H     H_    0.104356 0.738256 0.963098 0.094867
N9    N     N_3   0.105199 0.009016 0.765469 -0.647973
H26   H     H_    0.222488 0.052893 0.758472 0.226054
H27   H     H_    0.979345 0.044958 0.752943 0.248417
H28   H     H_    0.157377 0.757593 0.530661 0.115479
N10   N     N_3   0.850999 0.737483 0.355026 -0.653635
H29   H     H_    0.721212 0.714746 0.329878 0.255598
H30   H     H_    0.837700 0.806797 0.367008 0.237090

loop_
_geom_bond_atom_site_label_1
_geom_bond_atom_site_label_2
_ccdc_geom_bond_type
O13   V3    S    
C7    C8    A    
C12   C15   A    
C1    O6    A    
C20   N2    S    
O12   C31   A    
O17   V4    S    
N5    H15   S    
C17   C18   A    
C2    C30   S    
C23   C24   D    
C24   H2    S    
C21   C22   D    
O5    C3    A    
O19   V4    S    
V2    O10   S    
O11   C32   A    
O18   C33   A    
C18   H28   S    
C22   C34   S    
C6    C7    A    
N1    H5    S    
C17   N1    S    
O8    V2    S    
C1    C26   S    
N3    H8    S    
N2    H7    S    
N10   H30   S    
O14   C32   A    
C11   C12   A    
O15   C33   A    
C25   H13   S    
O7    V1    S    
N4    H11   S    
N7    H22   S    
C22   H10   S    
O9    C4    A    
C27   C29   S    
O16   V4    S    
N5    H16   S    
C8    H25   S    
C6    N7    S    
C29   N6    S    
C12   C13   A    
N6    H18   S    
C7    N8    S    
C21   N3    S    
C25   C26   D    
O4    C2    A    
C24   C32   S    
C28   C31   S    
O19   C34   A    
N7    H21   S    
O18   V4    S    
V4    O20   S    
C5    H19   S    
C19   C21   S    
O2    C1    A    
C16   H1    S    
N1    H4    S    
N10   H29   S    
C8    C9    A    
N9    H27   S    
C5    C6    A    
C15   N9    S    
C4    C14   S    
O3    C4    A    
O1    V2    S    
N4    H12   S    
C26   H3    S    
C19   N10   S    
N8    H24   S    
O6    V2    S    
O9    V2    S    
C30   H20   S    
C27   C28   D    
O2    V1    S    
C29   C30   D    
O13   C34   A    
O12   V3    S    
C13   C18   A    
C11   C33   S    
O17   V3    S    
C16   C17   A    
O11   V4    S    
O1    C2    A    
C23   C25   S    
C5    C10   A    
N6    H17   S    
O5    V1    S    
O8    C3    A    
C28   N5    S    
C27   H14   S    
O14   V3    S    
C19   C20   D    
C9    C11   A    
C13   C14   A    
O4    V1    S    
O3    V1    S    
V1    O10   S    
C31   O16   A    
V3    O20   S    
N9    H26   S    
O15   V3    S    
O7    V2    S    
N8    H23   S    
N3    H9    S    
N2    H6    S    
C10   C14   A    
C15   C16   A    
C3    C20   S    
C9    C10   A    
C23   N4    S    
