data_mof_unit_23162.cif
_audit_creation_date              2012-12-11T15:18:34-0500
_audit_creation_method            fapswitch 2.2
_symmetry_space_group_name_H-M    P1
_symmetry_Int_Tables_number       1
_space_group_crystal_system       triclinic
_cell_length_a                    6.936485
_cell_length_b                    19.897885
_cell_length_c                    23.733752
_cell_angle_alpha                 93.38113
_cell_angle_beta                  90.446002
_cell_angle_gamma                 89.292614
_cell_volume                      3269.73220057

loop_
_atom_site_label
_atom_site_type_symbol
_atom_type_description
_atom_site_fract_x
_atom_site_fract_y
_atom_site_fract_z
_atom_type_partial_charge
O1    O     O_R   0.620100 0.812200 0.810870 -0.558015
O2    O     O_R   0.379900 0.187800 0.189130 -0.561091
O3    O     O_R   0.296960 0.671650 0.794750 -0.547299
O4    O     O_R   0.703040 0.328350 0.205250 -0.545703
O5    O     O_R   0.120160 0.687800 0.689130 -0.546177
O6    O     O_R   0.879840 0.312200 0.310870 -0.544980
C1    C     C_R   0.466315 0.646848 0.804322 0.753667
C2    C     C_R   0.533685 0.353148 0.195674 0.759963
O7    O     O_R   0.290810 0.810670 0.817290 -0.495201
O8    O     O_R   0.709190 0.189330 0.182710 -0.496206
O9    O     O_R   0.113980 0.827820 0.711840 -0.527246
O10   O     O_R   0.886020 0.172180 0.288160 -0.533305
C3    C     C_R   0.459157 0.831848 0.834329 0.771535
C4    C     C_R   0.541032 0.167711 0.166017 0.762055
O11   O     O_R   0.626290 0.672180 0.788160 -0.538773
O12   O     O_R   0.373710 0.327820 0.211840 -0.536930
O13   O     O_3   0.451520 0.755460 0.715370 -0.378178
O14   O     O_3   0.548480 0.244540 0.284630 -0.381425
V1    V     V_3+5 0.179200 0.748980 0.756420 1.537410
V2    V     V_3+5 0.820800 0.251020 0.243580 1.521947
O15   O     O_R   0.783880 0.828350 0.705250 -0.545128
O16   O     O_R   0.216120 0.171650 0.294750 -0.549512
C5    C     C_R   0.952108 0.853011 0.694854 0.839129
C6    C     C_R   0.048223 0.146889 0.304919 0.838686
O17   O     O_R   0.790030 0.689320 0.682700 -0.539524
O18   O     O_R   0.209970 0.310680 0.317300 -0.540067
C7    C     C_R   0.959148 0.667913 0.665887 0.707005
C8    C     C_R   0.040834 0.331918 0.334218 0.707660
V3    V     V_3+5 0.678400 0.751010 0.743570 1.478886
V4    V     V_3+5 0.321600 0.248990 0.256430 1.464355
O19   O     O_3   0.955950 0.744540 0.784620 -0.367720
O20   O     O_3   0.044050 0.255460 0.215380 -0.366056
C9    C     C_R   0.180581 0.426894 0.395196 -0.197984
C10   C     C_R   0.819601 0.572593 0.605145 -0.197870
C11   C     C_R   0.030465 0.381075 0.383688 -0.109405
C12   C     C_R   0.969631 0.618488 0.616580 -0.110179
C13   C     C_R   0.868475 0.383208 0.419011 -0.150423
C14   C     C_R   0.131920 0.616132 0.581375 -0.124188
C15   C     C_R   0.856963 0.429582 0.465846 0.079883
C16   C     C_R   0.143581 0.569655 0.534626 0.080194
C17   C     C_R   0.006853 0.475914 0.476893 -0.008573
C18   C     C_R   0.993666 0.523333 0.523587 -0.011676
C19   C     C_R   0.169160 0.475105 0.441066 0.014723
C20   C     C_R   0.831273 0.524205 0.559385 0.014991
C21   C     C_R   0.697493 0.430252 0.501790 -0.219650
C22   C     C_R   0.303154 0.568939 0.498721 -0.200647
C23   C     C_R   0.685340 0.476092 0.549087 0.439228
C24   C     C_R   0.315230 0.523142 0.451418 0.434818
H1    H     H_    0.304277 0.425783 0.367524 0.181225
H2    H     H_    0.695773 0.573806 0.632770 0.181178
H3    H     H_    0.752353 0.347958 0.410521 0.123274
H4    H     H_    0.248149 0.651336 0.589855 0.131282
H5    H     H_    0.580890 0.395285 0.493109 0.135767
H6    H     H_    0.419776 0.603906 0.507378 0.139974
C25   C     C_R   0.965275 0.916622 0.665225 -0.358039
C26   C     C_R   0.042502 0.083792 0.335369 -0.346193
C27   C     C_R   0.094181 0.029864 0.665234 0.462729
C28   C     C_R   0.022667 0.961506 0.333019 0.446461
C29   C     C_R   0.038163 0.974236 0.694657 0.285462
C30   C     C_R   0.036753 0.021186 0.304647 0.290831
C31   C     C_R   0.928898 0.917973 0.606776 0.469559
C32   C     C_R   0.036568 0.086221 0.394945 0.471886
C33   C     C_R   0.011135 0.969612 0.574750 -0.106290
C34   C     C_R   0.042702 0.025357 0.424643 -0.087189
C35   C     C_R   0.089302 0.027157 0.605174 -0.282723
C36   C     C_R   0.017328 0.963216 0.392990 -0.298951
C37   C     C_R   0.017574 0.966362 0.513873 -0.169342
C38   C     C_R   0.065383 0.024685 0.484916 -0.156211
C39   C     C_R   0.158758 0.077218 0.516067 0.581144
C40   C     C_R   0.999592 0.905345 0.480890 0.592605
C41   C     C_R   0.164272 0.080458 0.575163 0.408924
C42   C     C_R   0.990467 0.903868 0.421946 0.385663
C43   C     C_R   0.474296 0.584727 0.834811 -0.177835
C44   C     C_R   0.525711 0.415273 0.165191 -0.179160
C45   C     C_R   0.425805 0.464865 0.835890 -0.208075
C46   C     C_R   0.574352 0.535127 0.164111 -0.205561
C47   C     C_R   0.437078 0.522935 0.805765 0.449838
C48   C     C_R   0.563132 0.477052 0.194231 0.448644
C49   C     C_R   0.497334 0.588249 0.893701 -0.193659
C50   C     C_R   0.502500 0.411764 0.106306 -0.193223
C51   C     C_R   0.491136 0.529645 0.925166 0.110161
C52   C     C_R   0.508723 0.470369 0.074842 0.110063
C53   C     C_R   0.445997 0.468192 0.894916 -0.032852
C54   C     C_R   0.553972 0.531814 0.105091 -0.033794
C55   C     C_R   0.518540 0.530060 0.985460 -0.127556
C56   C     C_R   0.481272 0.469960 0.014550 -0.127069
C57   C     C_R   0.416096 0.412252 0.982143 0.636937
C58   C     C_R   0.583720 0.587769 0.017865 0.637234
C59   C     C_R   0.409406 0.410925 0.923698 -0.210264
C60   C     C_R   0.590507 0.589087 0.076308 -0.207851
H7    H     H_    0.363928 0.365037 0.900711 0.161324
H8    H     H_    0.636029 0.634970 0.099293 0.163509
H9    H     H_    0.493093 0.361914 0.086568 0.205634
H10   H     H_    0.506604 0.638102 0.913441 0.205441
H11   H     H_    0.395843 0.417262 0.813105 0.127167
H12   H     H_    0.604448 0.582720 0.186895 0.129483
C61   C     C_R   0.684685 0.072247 0.104902 0.662538
C62   C     C_R   0.314348 0.925660 0.896891 0.670765
C63   C     C_R   0.531617 0.118094 0.116829 -0.247709
C64   C     C_R   0.468813 0.880804 0.884041 -0.241168
C65   C     C_R   0.366470 0.115750 0.082050 -0.214707
C66   C     C_R   0.634750 0.883378 0.918556 -0.211253
C67   C     C_R   0.353416 0.069156 0.035403 0.008380
C68   C     C_R   0.647174 0.929482 0.965632 0.004278
C69   C     C_R   0.506454 0.023003 0.023929 -0.074519
C70   C     C_R   0.493824 0.975432 0.977329 -0.075601
C71   C     C_R   0.672005 0.024291 0.058992 -0.034777
C72   C     C_R   0.327636 0.973832 0.942557 -0.032793
C73   C     C_R   0.190296 0.067890 0.999875 0.607909
C74   C     C_R   0.809850 0.930508 0.001354 0.608870
C75   C     C_R   0.177783 0.020655 0.954034 -0.183780
C76   C     C_R   0.821637 0.977346 0.047547 -0.176913
H13   H     H_    0.248720 0.150972 0.091064 0.222985
H14   H     H_    0.753261 0.848619 0.909111 0.224291
H15   H     H_    0.049616 0.020730 0.927656 0.181501
H16   H     H_    0.949365 0.977034 0.074108 0.192750
O21   O     O_3   0.584312 0.480489 0.252368 -0.564160
C77   C     C_3   0.781471 0.488113 0.266082 -0.258362
H17   H     H_    0.832139 0.539017 0.256672 0.133386
H18   H     H_    0.872741 0.448532 0.243950 0.140492
H19   H     H_    0.800527 0.482744 0.312059 0.179361
O22   O     O_3   0.416190 0.519478 0.747619 -0.563578
C78   C     C_3   0.219123 0.511780 0.733819 -0.262235
H20   H     H_    0.127673 0.551373 0.755866 0.140665
H21   H     H_    0.168484 0.460883 0.743259 0.129590
H22   H     H_    0.200318 0.517068 0.687824 0.177652
F1    F     F_    0.344561 0.357404 0.005481 -0.690516
F2    F     F_    0.655200 0.642624 0.994523 -0.689521
F3    F     F_    0.843873 0.073180 0.138659 -0.676899
F4    F     F_    0.152305 0.923227 0.864477 -0.683125
F5    F     F_    0.042092 0.112213 0.009517 -0.674047
F6    F     F_    0.958101 0.886226 0.991647 -0.670387
O23   O     O_3   0.524504 0.476539 0.583228 -0.554840
C79   C     C_3   0.537680 0.421268 0.617664 -0.237208
H23   H     H_    0.669089 0.424272 0.644911 0.141734
H24   H     H_    0.534949 0.372496 0.592231 0.121274
H25   H     H_    0.410712 0.422407 0.645767 0.180298
O24   O     O_3   0.476047 0.522759 0.417284 -0.555680
C80   C     C_3   0.461456 0.577583 0.382404 -0.216498
H26   H     H_    0.461795 0.626614 0.407491 0.130026
H27   H     H_    0.330709 0.573662 0.354936 0.143816
H28   H     H_    0.588987 0.576753 0.354531 0.179896
O25   O     O_3   0.262147 0.132783 0.603515 -0.510874
C81   C     C_3   0.165141 0.194572 0.595922 -0.130064
H29   H     H_    0.205742 0.215305 0.555332 0.189666
H30   H     H_    0.210873 0.231480 0.630129 0.130338
H31   H     H_    0.005360 0.190364 0.598419 0.085827
O26   O     O_3   0.964743 0.842291 0.392868 -0.516004
C82   C     C_3   0.766103 0.827732 0.391900 -0.095568
H32   H     H_    0.680744 0.867469 0.371431 0.108014
H33   H     H_    0.711054 0.821015 0.435108 0.146920
H34   H     H_    0.744273 0.779701 0.366634 0.145078
O27   O     O_3   0.013222 0.148637 0.423220 -0.527653
C83   C     C_3   0.816154 0.158733 0.435780 -0.193837
H35   H     H_    0.765015 0.121882 0.465652 0.152764
H36   H     H_    0.725607 0.156246 0.396787 0.136454
H37   H     H_    0.797023 0.209804 0.456498 0.153371
O28   O     O_3   0.807176 0.869773 0.582530 -0.511525
C84   C     C_3   0.621277 0.898608 0.577928 -0.164901
H38   H     H_    0.620025 0.940710 0.549059 0.118921
H39   H     H_    0.564144 0.916193 0.620060 0.120962
H40   H     H_    0.522301 0.859550 0.559741 0.173297
O29   O     O_3   0.020613 0.017193 0.246294 -0.512975
C85   C     C_3   0.198544 0.031669 0.221303 -0.074773
H41   H     H_    0.325582 0.031537 0.250486 0.060329
H42   H     H_    0.186730 0.081141 0.202464 0.175738
H43   H     H_    0.226700 0.993436 0.186309 0.152906
O30   O     O_3   0.062929 0.976685 0.752764 -0.515637
C86   C     C_3   0.880891 0.978803 0.779468 -0.079362
H44   H     H_    0.835747 0.927271 0.788420 0.155181
H45   H     H_    0.765316 0.003976 0.755077 0.069356
H46   H     H_    0.894700 0.007834 0.820628 0.174699
O31   O     O_3   0.170195 0.084872 0.695774 -0.504580
C87   C     C_3   0.017870 0.127485 0.715551 -0.115215
H47   H     H_    0.956303 0.109181 0.754697 0.141967
H48   H     H_    0.901716 0.133457 0.683422 0.095393
H49   H     H_    0.076872 0.178216 0.726359 0.145629
O32   O     O_3   0.007790 0.901430 0.300910 -0.512326
C88   C     C_3   0.195072 0.874820 0.291183 -0.079149
H50   H     H_    0.275747 0.868318 0.331291 0.116736
H51   H     H_    0.278710 0.906723 0.263604 0.108958
H52   H     H_    0.182309 0.824368 0.269079 0.155019
F7    F     F_    0.273572 0.119989 0.489448 -0.667582
F8    F     F_    0.020579 0.844960 0.504105 -0.642244

loop_
_geom_bond_atom_site_label_1
_geom_bond_atom_site_label_2
_ccdc_geom_bond_type
C14   C16   A    
C33   C35   A    
C25   C29   A    
C86   H45   S    
C17   C18   A    
O29   C85   S    
O4    C2    A    
V1    O19   S    
C46   C54   A    
C79   H25   S    
C68   C70   A    
O32   C88   S    
C45   H11   S    
C4    C63   S    
C1    C43   S    
C55   C56   A    
C16   C22   A    
C69   C71   A    
O9    V1    S    
C85   H42   S    
C18   C20   A    
C34   C38   A    
O16   C6    A    
C85   H41   S    
C11   C13   A    
C46   C48   A    
O3    C1    A    
C82   H33   S    
C13   H3    S    
C80   H28   S    
C78   H21   S    
C14   H4    S    
C28   C30   A    
O25   C81   S    
C30   O29   S    
O13   V3    S    
C31   C33   A    
C71   C76   A    
C39   C41   A    
O7    C3    A    
C77   H17   S    
C32   C34   A    
C47   O22   S    
C61   C63   A    
O5    C7    A    
C82   H32   S    
O7    V1    S    
C36   C42   A    
C8    C11   S    
O8    V2    S    
C38   C39   A    
C73   F5    S    
C84   H39   S    
O3    V1    S    
O14   V4    S    
C59   H7    S    
C19   C24   A    
C83   H36   S    
C22   H6    S    
C20   C23   A    
C15   C21   A    
C88   H52   S    
C16   C18   A    
C21   H5    S    
C2    O12   A    
C44   C50   A    
C23   O23   S    
C17   C19   A    
C62   F4    S    
C54   C60   A    
C81   H31   S    
C57   F1    S    
C51   C53   A    
C28   C36   A    
O11   V3    S    
C77   H18   S    
C21   C23   A    
O17   V3    S    
C53   C59   A    
C33   C37   A    
C10   H2    S    
C37   C38   A    
C9    C19   A    
C86   H44   S    
C78   H20   S    
C48   O21   S    
C10   C20   A    
O26   C82   S    
C83   H37   S    
C81   H30   S    
O8    C4    A    
C82   H34   S    
C27   C35   A    
C49   C51   A    
C56   C57   A    
C78   H22   S    
C79   H24   S    
C1    O11   A    
C52   C56   A    
O15   V3    S    
C28   O32   S    
C26   C30   A    
C77   H19   S    
C34   C36   A    
C66   H14   S    
C13   C15   A    
C60   H8    S    
C84   H38   S    
V3    O19   S    
O10   V2    S    
C2    C44   S    
C43   C49   A    
C84   H40   S    
C67   C69   A    
C87   H48   S    
C66   C68   A    
C45   C47   A    
C87   H49   S    
C83   H35   S    
C49   H10   S    
C27   O31   S    
C50   C52   A    
O30   C86   S    
C63   C65   A    
C39   F7    S    
O18   V4    S    
C52   C54   A    
O15   C5    A    
O28   C84   S    
C86   H46   S    
C26   C32   A    
O1    C3    A    
O2    V4    S    
O12   V4    S    
C12   C14   A    
C76   H16   S    
C68   C74   A    
C41   O25   S    
C64   C66   A    
V2    O20   S    
C55   C58   A    
C40   F8    S    
O17   C7    A    
C50   H9    S    
O16   V4    S    
C74   F6    S    
C62   C72   A    
O18   C8    A    
C85   H43   S    
C58   C60   A    
C81   H29   S    
C40   C42   A    
C80   H26   S    
C72   C75   A    
C5    C25   S    
C79   H23   S    
O5    V1    S    
O4    V2    S    
C7    C12   S    
C6    C26   S    
O6    V2    S    
C69   C70   A    
O10   C6    A    
C62   C64   A    
C32   O27   S    
C24   O24   S    
C67   C73   A    
C37   C40   A    
C3    C64   S    
C73   C75   A    
O22   C78   S    
C61   F3    S    
C58   F2    S    
C42   O26   S    
O21   C77   S    
C46   H12   S    
V4    O20   S    
C80   H27   S    
C9    C11   A    
C45   C53   A    
O1    V3    S    
O23   C79   S    
C70   C72   A    
C25   C31   A    
O9    C5    A    
O13   V1    S    
C10   C12   A    
O14   V2    S    
C65   H13   S    
O2    C4    A    
C74   C76   A    
C27   C29   A    
O24   C80   S    
O31   C87   S    
C88   H50   S    
C61   C71   A    
C22   C24   A    
O6    C8    A    
C35   C41   A    
C15   C17   A    
C65   C67   A    
C44   C48   A    
C57   C59   A    
C43   C47   A    
C75   H15   S    
O27   C83   S    
C31   O28   S    
C9    H1    S    
C51   C55   A    
C29   O30   S    
C88   H51   S    
C87   H47   S    
