data_mof_unit_16317.cif
_audit_creation_date              2012-12-10T17:59:46-0500
_audit_creation_method            fapswitch 2.2
_symmetry_space_group_name_H-M    P1
_symmetry_Int_Tables_number       1
_space_group_crystal_system       triclinic
_cell_length_a                    10.824949
_cell_length_b                    9.758266
_cell_length_c                    15.959654
_cell_angle_alpha                 88.46528
_cell_angle_beta                  96.611667
_cell_angle_gamma                 90.424264
_cell_volume                      1674.03317548

loop_
_atom_site_label
_atom_site_type_symbol
_atom_type_description
_atom_site_fract_x
_atom_site_fract_y
_atom_site_fract_z
_atom_type_partial_charge
C1    C     C_R   0.263452 0.499391 0.502130 0.864675
C2    C     C_3   0.628132 0.519242 0.962829 -0.430550
C3    C     C_3   0.623466 0.557708 0.057255 0.446822
C4    C     C_1   0.504923 0.489074 0.823776 -0.015406
C5    C     C_1   0.482727 0.507727 0.172996 0.172874
C6    C     C_1   0.489893 0.506302 0.249319 0.017847
C7    C     C_R   0.058022 0.395828 0.462053 -0.171283
C8    C     C_R   0.074571 0.599623 0.545899 -0.157258
C9    C     C_R   0.929700 0.398432 0.458338 -0.062299
C10   C     C_R   0.946701 0.598952 0.547959 -0.008046
C11   C     C_R   0.872348 0.500111 0.502030 -0.098274
C12   C     C_R   0.130035 0.498288 0.503244 -0.063526
C13   C     C_R   0.414410 0.077340 0.444143 0.375956
C14   C     C_R   0.414555 0.926021 0.443834 0.378868
C15   C     C_R   0.499712 0.501825 0.340234 0.885884
C16   C     C_R   0.579806 0.925242 0.554915 -0.075699
C17   C     C_R   0.579957 0.071525 0.554938 -0.083108
C18   C     C_R   0.737353 0.500278 0.501167 0.742067
C19   C     C_R   0.502900 0.498125 0.659254 0.778286
C20   C     C_3   0.369163 0.601685 0.027109 0.539455
C21   C     C_3   0.457315 0.343659 0.049493 0.506599
C22   C     C_3   0.447269 0.350103 0.948916 -0.364744
C23   C     C_3   0.401987 0.605559 0.931572 -0.324655
C24   C     C_1   0.505517 0.492743 0.748636 -0.133263
C25   C     C_3   0.481571 0.503554 0.080068 -0.297884
C26   C     C_3   0.497190 0.491326 0.915689 -0.057937
Cu1   Cu    Cu3+1 0.500020 0.640660 0.500000 1.051050
Cu2   Cu    Cu3+1 0.500020 0.359340 0.500000 1.047232
H1    H     H_    0.319615 0.574633 0.888573 0.191458
H2    H     H_    0.348856 0.342618 0.923239 0.224913
H3    H     H_    0.643681 0.870476 0.600456 0.183186
H4    H     H_    0.645467 0.123616 0.599760 0.163721
H5    H     H_    0.675148 0.599187 0.926778 0.217806
H6    H     H_    0.685022 0.426743 0.958246 0.218172
H7    H     H_    0.100960 0.314851 0.431146 0.211491
H8    H     H_    0.131682 0.676185 0.580257 0.158096
N1    N     N_R   0.500030 0.852070 0.500020 -0.241435
N2    N     N_R   0.500030 0.147930 0.500020 -0.236689
O1    O     O_R   0.319660 0.618740 0.500000 -0.524104
O2    O     O_R   0.319660 0.381260 0.500000 -0.538223
O3    O     O_R   0.500020 0.618840 0.379440 -0.520053
O4    O     O_R   0.500020 0.381160 0.379440 -0.487948
O5    O     O_R   0.680370 0.618830 0.500010 -0.572431
O6    O     O_R   0.680370 0.381170 0.500010 -0.593401
O7    O     O_R   0.500010 0.618730 0.620560 -0.582017
O8    O     O_R   0.500010 0.381270 0.620560 -0.582488
S1    S     S_3+6 0.198947 0.557303 0.009842 0.068297
O9    O     O_2   0.143818 0.515584 0.088700 -0.142316
O10   O     O_2   0.132364 0.686038 0.976435 -0.253848
O11   O     O_3   0.156339 0.446051 0.932945 -0.549837
H9    H     H_    0.064200 0.447098 0.925517 0.388227
S2    S     S_3+6 0.317212 0.260688 0.087658 0.138486
O12   O     O_2   0.276900 0.337188 0.159774 -0.241593
O13   O     O_2   0.210688 0.245317 0.020062 -0.213559
O14   O     O_3   0.339675 0.099901 0.125776 -0.371734
H10   H     H_    0.257161 0.068717 0.140017 0.409702
S3    S     S_3+6 0.575225 0.218185 0.091552 0.129190
O15   O     O_2   0.699111 0.234038 0.060135 -0.196136
O16   O     O_2   0.586649 0.211540 0.186425 -0.200342
O17   O     O_3   0.529346 0.063977 0.058687 -0.390459
H11   H     H_    0.556842 0.003969 0.107862 0.461277
S4    S     S_3+6 0.351795 0.766113 0.080529 0.120114
O18   O     O_2   0.453537 0.795959 0.148626 -0.259018
O19   O     O_2   0.338464 0.883491 0.017335 -0.219410
O20   O     O_3   0.223789 0.764442 0.131905 -0.404684
H12   H     H_    0.174105 0.845283 0.110198 0.400986
C27   C     C_1   0.502932 0.232775 0.909567 0.447438
N3    N     N_1   0.546304 0.142083 0.878112 -0.162408
C28   C     C_1   0.420707 0.738572 0.888638 0.463373
N4    N     N_1   0.433515 0.841374 0.852625 -0.183247
S5    S     S_3+6 0.666034 0.741140 0.060566 0.100004
O21   O     O_2   0.790213 0.756683 0.027314 -0.195975
O22   O     O_2   0.580658 0.831411 0.005219 -0.232327
O23   O     O_3   0.685918 0.802971 0.159178 -0.411147
H13   H     H_    0.663039 0.728141 0.197641 0.356559
S6    S     S_3+6 0.766227 0.492107 0.125408 0.101511
O24   O     O_2   0.846574 0.603073 0.167311 -0.195473
O25   O     O_2   0.737476 0.400788 0.197263 -0.227475
O26   O     O_3   0.862828 0.411768 0.067364 -0.408615
H14   H     H_    0.894872 0.484734 0.031183 0.371848
C29   C     C_1   0.860202 0.297123 0.407381 0.354480
N5    N     N_1   0.804814 0.215986 0.366644 -0.128895
C30   C     C_1   0.897050 0.694623 0.602745 0.276485
N6    N     N_1   0.859111 0.771001 0.647613 -0.275512
S7    S     S_3+6 0.314820 0.167832 0.359623 0.102713
O27   O     O_2   0.379580 0.144133 0.283530 -0.179324
O28   O     O_2   0.186909 0.106012 0.348065 -0.237313
O29   O     O_3   0.282962 0.335717 0.354438 -0.532113
H15   H     H_    0.215489 0.348937 0.307540 0.389132
S8    S     S_3+6 0.292189 0.840329 0.373141 0.125161
O30   O     O_2   0.172069 0.867469 0.408561 -0.268696
O31   O     O_2   0.287743 0.903469 0.286199 -0.169998
O32   O     O_3   0.286008 0.673239 0.351980 -0.495687
H16   H     H_    0.204938 0.658810 0.317595 0.388421

loop_
_geom_bond_atom_site_label_1
_geom_bond_atom_site_label_2
_ccdc_geom_bond_type
O14   H10   S    
C11   C18   S    
O32   H16   S    
C23   C28   S    
S6    O26   S    
C29   N5    T    
S3    O15   D    
C19   O8    A    
S1    O10   D    
S7    O27   D    
C16   H3    S    
Cu2   O8    S    
C23   H1    S    
S6    O25   D    
C5    C6    T    
C4    C24   T    
S3    O16   D    
C20   C25   S    
Cu2   O2    S    
C10   C30   S    
C8    H8    S    
C23   C26   S    
C14   S8    S    
S4    O19   D    
C1    O2    A    
C6    C15   S    
C30   N6    T    
Cu1   O1    S    
C16   C17   A    
S2    O14   S    
C16   N1    A    
Cu1   O7    S    
C21   C22   S    
C1    C12   S    
S2    O13   D    
S1    O11   S    
S7    O28   D    
C7    C12   A    
O23   H13   S    
C27   N3    T    
C3    C25   S    
S6    O24   D    
C15   O3    A    
S5    O22   D    
S3    O17   S    
Cu2   O6    S    
O17   H11   S    
C3    S5    S    
C21   S3    S    
S4    O18   D    
C18   O6    A    
Cu1   O3    S    
S8    O31   D    
S1    O9    D    
C20   C23   S    
Cu2   N2    S    
C8    C12   A    
O11   H9    S    
C2    C26   S    
C3    S6    S    
C9    C11   A    
C13   N2    A    
C5    C25   S    
C2    H5    S    
S2    O12   D    
S8    O32   S    
S7    O29   S    
C7    C9    A    
C21   C25   S    
C22   H2    S    
S4    O20   S    
C7    H7    S    
C15   O4    A    
S5    O23   S    
C4    C26   S    
C19   O7    A    
C19   C24   S    
S5    O21   D    
C18   O5    A    
C14   N1    A    
C2    H6    S    
S8    O30   D    
Cu1   N1    S    
Cu2   O4    S    
C2    C3    S    
C17   N2    A    
C20   S4    S    
C28   N4    T    
C22   C27   S    
C20   S1    S    
C10   C11   A    
C1    O1    A    
O26   H14   S    
Cu1   O5    S    
O29   H15   S    
C8    C10   A    
O20   H12   S    
C22   C26   S    
C13   S7    S    
Cu1   Cu2   S    
C17   H4    S    
C13   C14   A    
C21   S2    S    
C9    C29   S    
