data_mof_unit_32384.cif
_audit_creation_date              2012-10-26T21:01:04-0400
_audit_creation_method            fapswitch 2.2
_symmetry_space_group_name_H-M    P1
_symmetry_Int_Tables_number       1
_space_group_crystal_system       triclinic
_cell_length_a                    10.931198
_cell_length_b                    10.830985
_cell_length_c                    9.539692
_cell_angle_alpha                 90.248707
_cell_angle_beta                  89.919246
_cell_angle_gamma                 90.088753
_cell_volume                      1129.44484781

loop_
_atom_site_label
_atom_site_type_symbol
_atom_type_description
_atom_site_fract_x
_atom_site_fract_y
_atom_site_fract_z
_atom_type_partial_charge
C1    C     C_R   0.504780 0.262305 0.499381 0.560002
C2    C     C_R   0.437426 0.413053 0.074139 0.011378
C3    C     C_R   0.437385 0.413078 0.925208 0.001847
C4    C     C_R   0.265318 0.497789 0.500152 0.565011
C5    C     C_R   0.551813 0.595476 0.926617 0.154690
C6    C     C_3   0.681777 0.636855 0.920278 -0.274075
C7    C     C_3   0.682086 0.636499 0.079449 -0.273344
C8    C     C_R   0.502852 0.737488 0.500313 0.549168
C9    C     C_R   0.734707 0.501208 0.500039 0.554099
C10   C     C_2   0.933168 0.489973 0.385587 -0.151281
C11   C     C_2   0.866719 0.507322 0.502099 -0.109814
C12   C     C_R   0.519511 0.128885 0.498416 -0.001455
C13   C     C_2   0.067051 0.496305 0.385022 -0.152885
C14   C     C_2   0.133357 0.490202 0.502749 -0.099013
C15   C     C_R   0.501670 0.063736 0.623059 0.009236
C16   C     C_1   0.593458 0.120196 0.248059 0.214183
C17   C     C_1   0.288757 0.123195 0.685038 0.195311
C18   C     C_R   0.556080 0.061610 0.377093 -0.041452
C19   C     C_R   0.553258 0.932511 0.379420 -0.158471
C20   C     C_R   0.517175 0.870012 0.501298 -0.003245
C21   C     C_R   0.502461 0.937016 0.624926 -0.001568
C22   C     C_3   0.406029 0.930243 0.735816 -0.254274
C23   C     C_3   0.405237 0.071054 0.734779 -0.128298
C24   C     C_R   0.551899 0.595469 0.073946 0.155957
Cu1   Cu    Cu3+1 0.499990 0.499980 0.640670 0.957576
Cu2   Cu    Cu3+1 0.500010 0.500020 0.359330 0.963118
H1    H     H_    0.888640 0.472428 0.285828 0.145546
H2    H     H_    0.439128 0.113442 0.833701 0.123622
H3    H     H_    0.388712 0.341301 0.129669 0.126680
H4    H     H_    0.690773 0.730846 0.875015 0.131038
H5    H     H_    0.111716 0.504254 0.283645 0.148697
H6    H     H_    0.092150 0.476320 0.604690 0.111922
H7    H     H_    0.388309 0.341645 0.869176 0.121158
H8    H     H_    0.743652 0.566219 0.874034 0.157551
H9    H     H_    0.743759 0.565369 0.123811 0.152562
H10   H     H_    0.691988 0.730204 0.125980 0.123119
H11   H     H_    0.907801 0.528916 0.602405 0.097364
H12   H     H_    0.575137 0.881307 0.284752 0.129733
H13   H     H_    0.320540 0.885534 0.697438 0.144997
H14   H     H_    0.442360 0.891453 0.835093 0.131981
N1    N     N_R   0.500780 0.500930 0.147930 -0.230183
N2    N     N_R   0.500780 0.500890 0.852020 -0.233465
N3    N     N_1   0.623588 0.166681 0.144555 -0.308952
N4    N     N_1   0.197409 0.164395 0.645930 -0.302020
O1    O     O_R   0.500000 0.319640 0.618810 -0.501580
O2    O     O_R   0.500010 0.319680 0.381230 -0.494844
O3    O     O_R   0.321940 0.499980 0.618760 -0.499205
O4    O     O_R   0.321950 0.500020 0.381180 -0.503050
O5    O     O_R   0.499990 0.680320 0.618770 -0.501324
O6    O     O_R   0.500000 0.680360 0.381190 -0.508273
O7    O     O_R   0.678050 0.499980 0.618820 -0.505395
O8    O     O_R   0.678060 0.500020 0.381240 -0.500082

loop_
_geom_bond_atom_site_label_1
_geom_bond_atom_site_label_2
_ccdc_geom_bond_type
Cu1   N2    S    
C10   H1    S    
C5    N2    A    
Cu1   O7    S    
C3    N2    A    
C6    C7    S    
C19   H12   S    
Cu2   O8    S    
C7    H10   S    
Cu1   O3    S    
C19   C20   A    
C9    O7    A    
C12   C15   A    
Cu2   O4    S    
C22   H14   S    
C15   C23   S    
C2    C3    A    
C17   N4    T    
C4    O3    A    
C17   C23   S    
C21   C22   S    
C24   N1    A    
C9    C11   S    
C16   N3    T    
C1    O1    A    
C8    C20   S    
C9    O8    A    
C2    H3    S    
C22   H13   S    
Cu1   O1    S    
C6    H4    S    
Cu2   O6    S    
C4    C14   S    
C5    C6    S    
Cu1   O5    S    
C1    O2    A    
C10   C11   D    
C3    H7    S    
C2    N1    A    
C7    C24   S    
C8    O6    A    
C15   C21   A    
C20   C21   A    
C16   C18   S    
C18   C19   A    
C4    O4    A    
C12   C18   A    
C11   H11   S    
Cu2   O2    S    
C22   C23   S    
C5    C24   A    
C13   C14   D    
Cu1   Cu2   S    
C23   H2    S    
C7    H9    S    
C8    O5    A    
C13   H5    S    
C1    C12   S    
C6    H8    S    
Cu2   N1    S    
C14   H6    S    
C10   C13   S    
