data_mof_unit_62066.cif
_audit_creation_date              2012-12-10T18:33:14-0500
_audit_creation_method            fapswitch 2.2
_symmetry_space_group_name_H-M    P1
_symmetry_Int_Tables_number       1
_space_group_crystal_system       triclinic
_cell_length_a                    21.735142
_cell_length_b                    21.719862
_cell_length_c                    24.720353
_cell_angle_alpha                 116.047216
_cell_angle_beta                  115.881961
_cell_angle_gamma                 89.942532
_cell_volume                      9166.89855858

loop_
_atom_site_label
_atom_site_type_symbol
_atom_type_description
_atom_site_fract_x
_atom_site_fract_y
_atom_site_fract_z
_atom_type_partial_charge
C1    C     C_R   0.066260 0.566265 0.632544 0.801986
C2    C     C_R   0.014047 0.276423 0.268118 0.480327
C3    C     C_R   0.659329 0.304353 0.389783 0.319475
C4    C     C_R   0.534568 0.204259 0.473327 -0.189529
C5    C     C_R   0.502057 0.188489 0.505028 -0.153937
C6    C     C_R   0.470197 0.237626 0.537676 -0.034052
C7    C     C_R   0.466115 0.299639 0.532930 0.376557
C8    C     C_R   0.498903 0.314531 0.500064 -0.159426
C9    C     C_R   0.534333 0.267239 0.471463 -0.030092
C10   C     C_R   0.372609 0.218816 0.561266 -0.043852
C11   C     C_R   0.348677 0.208194 0.601338 -0.143725
C12   C     C_R   0.396108 0.205724 0.660456 -0.087173
C13   C     C_R   0.254529 0.442763 0.446319 0.234894
C14   C     C_R   0.467592 0.213978 0.679694 -0.104235
C15   C     C_R   0.491743 0.224500 0.639744 -0.139778
C16   C     C_R   0.444340 0.226882 0.580150 0.173440
C17   C     C_R   0.313893 0.498490 0.501156 -0.199328
C18   C     C_R   0.308766 0.552833 0.557209 -0.011143
C19   C     C_R   0.243608 0.553428 0.555454 0.276783
C20   C     C_R   0.184673 0.499379 0.499500 -0.166443
C21   C     C_R   0.189696 0.443945 0.445141 -0.053288
C22   C     C_R   0.401937 0.605604 0.681327 0.498942
C23   C     C_R   0.461123 0.658852 0.739418 -0.282000
C24   C     C_R   0.489280 0.713576 0.735515 -0.180033
C25   C     C_R   0.118155 0.499603 0.499303 0.866081
C26   C     C_R   0.459157 0.715709 0.673782 0.350233
C27   C     C_R   0.400429 0.663195 0.615851 -0.185453
C28   C     C_R   0.371099 0.608435 0.619303 0.084745
C29   C     C_R   0.102683 0.674379 0.745193 -0.134919
C30   C     C_R   0.139045 0.710353 0.817102 -0.141664
C31   C     C_R   0.179158 0.677230 0.853672 0.037382
C32   C     C_R   0.181924 0.607274 0.816640 -0.090403
C33   C     C_R   0.144581 0.570939 0.744746 -0.132133
C34   C     C_R   0.104856 0.604264 0.708419 -0.041471
C35   C     C_R   0.287552 0.784863 0.069998 0.468056
C36   C     C_R   0.933165 0.433735 0.367408 0.774388
C37   C     C_R   0.217563 0.715269 0.929919 0.429632
C38   C     C_R   0.308803 0.884305 0.183210 -0.245338
C39   C     C_R   0.343821 0.920065 0.255657 0.386604
C40   C     C_R   0.396148 0.893522 0.291767 -0.177633
C41   C     C_R   0.412275 0.830414 0.254687 0.342196
C42   C     C_R   0.377242 0.796416 0.182737 -0.118382
C43   C     C_R   0.325211 0.822507 0.146320 -0.084348
C44   C     C_R   0.945409 0.444188 0.671802 0.283366
C45   C     C_R   0.890959 0.443808 0.614090 -0.247861
C46   C     C_R   0.871086 0.506310 0.617448 -0.083946
C47   C     C_R   0.881744 0.500460 0.500827 0.803762
C48   C     C_R   0.908026 0.570936 0.679979 0.383652
C49   C     C_R   0.962096 0.570471 0.737593 -0.209439
C50   C     C_R   0.980490 0.507674 0.734155 0.217942
C51   C     C_R   0.744892 0.503104 0.554837 -0.202834
C52   C     C_R   0.686168 0.502912 0.499573 -0.090417
C53   C     C_R   0.692753 0.503436 0.445286 0.027360
C54   C     C_R   0.757678 0.502438 0.446961 -0.166881
C55   C     C_R   0.815466 0.501052 0.501447 -0.048931
C56   C     C_R   0.809657 0.502221 0.556300 0.008210
C57   C     C_R   0.603840 0.448020 0.320549 -0.126309
C58   C     C_R   0.051351 0.272141 0.328939 -0.328508
C59   C     C_R   0.548576 0.450539 0.265149 -0.178550
C60   C     C_R   0.523478 0.511696 0.275466 -0.124551
C61   C     C_R   0.553492 0.570508 0.341299 0.323896
C62   C     C_R   0.608301 0.567887 0.397217 -0.145294
C63   C     C_R   0.633834 0.506462 0.387001 0.065745
C64   C     C_R   0.887729 0.431577 0.254510 -0.167341
C65   C     C_R   0.850317 0.395827 0.182638 -0.114393
C66   C     C_R   0.817239 0.323771 0.146171 0.072768
C67   C     C_R   0.822127 0.288414 0.183287 -0.058855
C68   C     C_R   0.859885 0.324110 0.255176 -0.135075
C69   C     C_R   0.107607 0.327225 0.386949 -0.103898
C70   C     C_R   0.893246 0.395966 0.291456 -0.053556
C71   C     C_R   0.706552 0.216046 0.930005 0.466002
C72   C     C_R   0.778241 0.285728 0.069939 0.415746
C73   C     C_R   0.700851 0.190369 0.819592 -0.171160
C74   C     C_R   0.668541 0.155049 0.747719 0.271502
C75   C     C_R   0.603013 0.106060 0.708591 -0.142765
C76   C     C_R   0.570775 0.094895 0.742953 -0.279411
C77   C     C_R   0.603154 0.130127 0.814801 0.282149
C78   C     C_R   0.669339 0.177990 0.853936 -0.047969
C79   C     C_R   0.497412 0.618882 0.499836 0.780123
C80   C     C_R   0.126813 0.387754 0.385483 0.104049
C81   C     C_R   0.380879 0.499134 0.500265 0.821559
C82   C     C_R   0.500460 0.381213 0.499980 0.799722
C83   C     C_R   0.619066 0.501369 0.499795 0.793214
C84   C     C_R   0.500945 0.119818 0.502152 0.822986
C85   C     C_R   0.433935 0.932851 0.367644 0.823615
C86   C     C_R   0.500493 0.881519 0.500896 0.767531
C87   C     C_R   0.566130 0.067231 0.632555 0.808596
C88   C     C_R   0.288656 0.533794 0.318543 0.444685
C89   C     C_R   0.350919 0.585608 0.355776 -0.112793
C90   C     C_R   0.364447 0.647650 0.415898 -0.141307
C91   C     C_R   0.089104 0.392955 0.325602 -0.338655
C92   C     C_R   0.311325 0.660735 0.435151 0.217169
C93   C     C_R   0.248814 0.608258 0.398045 0.245717
C94   C     C_R   0.238105 0.545029 0.340690 -0.302652
C95   C     C_R   0.437340 0.763096 0.458669 -0.109616
C96   C     C_R   0.500475 0.814873 0.501341 -0.051926
C97   C     C_R   0.561778 0.802643 0.544242 0.098851
C98   C     C_R   0.559129 0.737703 0.542372 -0.133969
C99   C     C_R   0.496221 0.685573 0.499321 -0.053106
C100  C     C_R   0.433985 0.698551 0.457712 0.103866
C101  C     C_R   0.684719 0.861090 0.583688 0.316638
C102  C     C_R   0.032907 0.337149 0.266487 0.463044
C103  C     C_R   0.745907 0.914712 0.633677 -0.240581
C104  C     C_R   0.750901 0.965090 0.695881 -0.106689
C105  C     C_R   0.694863 0.962558 0.709037 0.471973
C106  C     C_R   0.632593 0.909558 0.658230 -0.301497
C107  C     C_R   0.627318 0.858636 0.595660 -0.011038
C108  C     C_R   0.585847 0.286014 0.350520 -0.168032
C109  C     C_R   0.544517 0.275582 0.377525 -0.135767
C110  C     C_R   0.576632 0.284247 0.444321 0.091549
C111  C     C_R   0.650269 0.304139 0.483927 -0.207813
C112  C     C_R   0.691327 0.314042 0.456653 -0.138157
Cu1   Cu    Cu3+1 0.000000 0.438230 0.500020 1.016551
Cu2   Cu    Cu3+1 0.000000 0.561770 0.499980 1.060940
Cu3   Cu    Cu3+1 0.465780 0.465820 0.431560 1.034552
Cu4   Cu    Cu3+1 0.534220 0.534230 0.568440 1.005462
Cu5   Cu    Cu3+1 0.561810 0.999860 0.500000 1.067644
Cu6   Cu    Cu3+1 0.438190 0.999810 0.500000 1.037059
H1    H     H_    0.534800 0.754128 0.780454 0.189757
H2    H     H_    0.378307 0.663918 0.567755 0.180593
H3    H     H_    0.072132 0.701170 0.718368 0.172958
H4    H     H_    0.135864 0.764219 0.843960 0.169656
H5    H     H_    0.212231 0.580139 0.843146 0.178611
H6    H     H_    0.147320 0.516945 0.717581 0.176190
H7    H     H_    0.268651 0.904955 0.155758 0.169758
H8    H     H_    0.037510 0.225726 0.331117 0.160516
H9    H     H_    0.390431 0.748540 0.155290 0.196089
H10   H     H_    0.863723 0.394431 0.566500 0.192051
H11   H     H_    0.989903 0.619483 0.785624 0.204624
H12   H     H_    0.740288 0.503281 0.596853 0.176434
H13   H     H_    0.763271 0.502633 0.405508 0.156028
H14   H     H_    0.622891 0.400424 0.311669 0.179018
H15   H     H_    0.525441 0.405161 0.214101 0.168531
H16   H     H_    0.136809 0.322435 0.432788 0.170440
H17   H     H_    0.481045 0.513524 0.232215 0.175827
H18   H     H_    0.631336 0.613573 0.448138 0.156409
H19   H     H_    0.912991 0.486968 0.281098 0.168834
H20   H     H_    0.847506 0.424742 0.155725 0.160800
H21   H     H_    0.797316 0.232933 0.156869 0.165571
H22   H     H_    0.862949 0.295375 0.282318 0.170948
H23   H     H_    0.751287 0.227571 0.848878 0.193469
H24   H     H_    0.520064 0.058168 0.713770 0.205928
H25   H     H_    0.104422 0.439765 0.324671 0.168132
H26   H     H_    0.189899 0.505074 0.312773 0.167726
H27   H     H_    0.389706 0.576650 0.338475 0.203163
H28   H     H_    0.390214 0.773225 0.426280 0.165336
H29   H     H_    0.606263 0.727993 0.575222 0.157425
H30   H     H_    0.789985 0.917149 0.624524 0.193619
H31   H     H_    0.798838 0.005908 0.734345 0.185166
H32   H     H_    0.588541 0.907480 0.667555 0.185975
H33   H     H_    0.560819 0.278335 0.298648 0.162285
H34   H     H_    0.487780 0.259394 0.346027 0.165039
H35   H     H_    0.675833 0.310492 0.535355 0.171519
H36   H     H_    0.747996 0.327796 0.486969 0.165515
H37   H     H_    0.560595 0.167313 0.449877 0.181734
H38   H     H_    0.335333 0.220255 0.515370 0.149131
H39   H     H_    0.293333 0.201791 0.586516 0.149985
H40   H     H_    0.377479 0.197467 0.691381 0.155532
H41   H     H_    0.504283 0.212216 0.725549 0.152431
H42   H     H_    0.547257 0.230688 0.655105 0.136746
H43   H     H_    0.485570 0.657890 0.787630 0.160967
N1    N     N_R   0.262125 0.686311 0.965395 -0.213706
N2    N     N_R   0.296448 0.720416 0.033968 -0.219324
N3    N     N_R   0.242965 0.813795 0.034500 -0.219400
N4    N     N_R   0.208771 0.779768 0.965930 -0.226164
N5    N     N_R   0.741568 0.217633 0.034496 -0.207500
N6    N     N_R   0.706555 0.183457 0.965928 -0.147322
N7    N     N_R   0.743822 0.283844 0.965338 -0.224518
N8    N     N_R   0.778733 0.318055 0.033893 -0.221566
O1    O     O_R   0.049920 0.497760 0.599870 -0.583700
O2    O     O_R   0.528910 0.619050 0.557800 -0.574306
O3    O     O_R   0.380930 0.471140 0.442200 -0.532964
O4    O     O_R   0.438710 0.528900 0.557790 -0.594250
O5    O     O_R   0.471090 0.380990 0.442200 -0.567971
O6    O     O_R   0.528880 0.438760 0.557790 -0.570623
O7    O     O_R   0.561290 0.471140 0.442210 -0.576164
O8    O     O_R   0.619070 0.528910 0.557800 -0.585544
O9    O     O_R   0.552160 0.089990 0.499980 -0.571029
O10   O     O_R   0.447770 0.089950 0.499980 -0.574670
O11   O     O_R   0.502270 0.949920 0.400150 -0.576942
O12   O     O_R   0.049920 0.602100 0.599840 -0.562069
O13   O     O_R   0.397880 0.949890 0.400140 -0.537457
O14   O     O_R   0.552230 0.909720 0.500030 -0.561495
O15   O     O_R   0.447840 0.909680 0.500020 -0.575722
O16   O     O_R   0.602120 0.049780 0.599860 -0.537506
O17   O     O_R   0.497730 0.049740 0.599850 -0.589961
O18   O     O_R   0.090180 0.447830 0.500020 -0.594995
O19   O     O_R   0.090180 0.552170 0.499990 -0.523428
O20   O     O_R   0.950080 0.397900 0.400160 -0.582071
O21   O     O_R   0.950080 0.502240 0.400130 -0.581416
O22   O     O_R   0.909820 0.447830 0.500010 -0.562793
O23   O     O_R   0.909820 0.552170 0.499980 -0.587135
O24   O     O_R   0.471120 0.561280 0.442210 -0.589537
O25   O     O_3   0.959336 0.222033 0.209520 -0.680937
H44   H     H_    0.952199 0.183698 0.219238 0.319438
Br1   Br    Br    0.498639 0.790264 0.668768 -0.479269
O26   O     O_3   0.328832 0.981754 0.292222 -0.708706
H45   H     H_    0.291403 0.993302 0.259461 0.332561
O27   O     O_3   0.460446 0.799114 0.285973 -0.663619
H46   H     H_    0.470326 0.818147 0.334103 0.337418
Br2   Br    Br    0.052464 0.510585 0.816033 -0.416371
Br3   Br    Br    0.969408 0.356752 0.663478 -0.392457
O28   O     O_3   0.893221 0.635194 0.687542 -0.709488
H47   H     H_    0.857907 0.629571 0.642519 0.338246
Br4   Br    Br    0.520429 0.654581 0.353713 -0.476058
Br5   Br    Br    0.715019 0.179690 0.706908 -0.461234
Br6   Br    Br    0.552076 0.113225 0.855589 -0.430242
O29   O     O_3   0.279116 0.472661 0.261331 -0.695321
H48   H     H_    0.233035 0.441289 0.241221 0.342597
Br7   Br    Br    0.322268 0.750442 0.509800 -0.393077
Br8   Br    Br    0.176527 0.620339 0.423941 -0.438927
Br9   Br    Br    0.681498 0.793014 0.499833 -0.445017
O30   O     O_3   0.996045 0.340190 0.206328 -0.672640
H49   H     H_    0.015156 0.386328 0.213733 0.320147
O31   O     O_3   0.702804 0.011826 0.771990 -0.705399
H50   H     H_    0.659960 0.001084 0.774289 0.342752
Br10  Br    Br    0.716394 0.312598 0.351351 -0.564646
O32   O     O_3   0.431582 0.345041 0.562631 -0.710782
H51   H     H_    0.417589 0.376644 0.542513 0.333046
Br11  Br    Br    0.260896 0.360170 0.375145 -0.477533
Br12  Br    Br    0.235414 0.628071 0.630761 -0.426056
O33   O     O_3   0.373756 0.550394 0.683608 -0.702929
H52   H     H_    0.401428 0.556359 0.730537 0.331684

loop_
_geom_bond_atom_site_label_1
_geom_bond_atom_site_label_2
_ccdc_geom_bond_type
C86   O14   A    
C101  C107  A    
C86   O15   A    
C55   C56   A    
C85   O13   A    
C105  O31   S    
C84   O10   A    
C41   C42   A    
C57   H14   S    
C92   Br7   S    
C95   C96   A    
C19   Br12  S    
C69   H16   S    
C41   O27   S    
C26   Br1   S    
C97   C98   A    
Cu6   O17   S    
C7    C8    A    
C87   O16   A    
C73   H23   S    
C77   C78   A    
Cu5   O9    S    
C89   H27   S    
C54   H13   S    
C22   O33   S    
C48   O28   S    
C26   C27   A    
C62   C63   A    
Cu4   O4    S    
Cu2   O21   S    
C5    C6    A    
C79   C99   S    
N3    N4    A    
C24   C26   A    
Cu1   Cu2   S    
Cu3   O5    S    
C77   Br6   S    
C30   C31   A    
C57   C59   A    
C20   C25   S    
C2    C102  A    
C45   H10   S    
C62   H18   S    
C15   C16   A    
Cu1   O18   S    
C1    O1    A    
Cu2   O19   S    
C108  C109  A    
C17   C18   A    
C18   C19   A    
C73   C74   A    
C81   O3    A    
C79   O2    A    
C47   O23   A    
C110  C111  A    
C25   O18   A    
C111  C112  A    
C7    O32   S    
C66   C72   S    
C30   H4    S    
C53   C54   A    
C8    C9    A    
C29   H3    S    
C93   Br8   S    
C33   H6    S    
C23   C24   A    
C64   C70   A    
C35   C43   S    
C61   C62   A    
Cu5   O11   S    
C3    Br10  S    
Cu6   O10   S    
C66   C67   A    
C39   O26   S    
O27   H46   S    
C101  C103  A    
C71   N6    A    
C83   O7    A    
C44   Br3   S    
C32   H5    S    
O33   H52   S    
C95   H28   S    
C88   O29   S    
C90   C100  S    
C104  C105  A    
C22   C28   A    
C51   H12   S    
C36   C70   S    
C103  H30   S    
C57   C63   A    
C87   O17   A    
C91   H25   S    
C64   H19   S    
Cu6   O13   S    
C101  Br9   S    
Cu1   O22   S    
C46   C48   A    
Cu2   O23   S    
C74   C75   A    
C83   O8    A    
C51   C52   A    
C82   O5    A    
C109  H34   S    
C18   C28   S    
C76   C77   A    
C10   H38   S    
C39   C40   A    
C5    C84   S    
C1    O12   A    
C95   C100  A    
O29   H48   S    
C37   N4    A    
C104  H31   S    
C106  H32   S    
C45   C46   A    
C49   H11   S    
C29   C34   A    
C59   H15   S    
C35   N2    A    
C67   C68   A    
Cu4   O2    S    
C60   C61   A    
C2    O25   S    
C81   O4    A    
C40   C85   S    
C52   C83   S    
C75   C76   A    
C59   C60   A    
C29   C30   A    
C25   O19   A    
C108  H33   S    
C102  O30   S    
C90   C92   A    
C31   C32   A    
C27   H2    S    
O30   H49   S    
C3    C112  A    
C73   C78   A    
C1    C34   S    
C96   C97   A    
C20   C21   A    
Cu5   O14   S    
C33   C34   A    
C13   C21   A    
C93   C94   A    
C52   C53   A    
C82   O6    A    
C84   O9    A    
C111  H35   S    
C60   H17   S    
Cu1   O1    S    
C86   C96   S    
C42   H9    S    
C65   H20   S    
C75   C87   S    
C40   C41   A    
C12   C14   A    
C49   C50   A    
C36   O20   A    
C71   N7    A    
N5    N6    A    
C8    C82   S    
C68   H22   S    
C42   C43   A    
C91   C102  A    
C103  C104  A    
C38   H7    S    
C67   H21   S    
C44   C45   A    
C11   H39   S    
C47   C55   S    
N1    N2    A    
C74   Br5   S    
C50   Br2   S    
C44   C50   A    
C9    C110  S    
C54   C55   A    
N7    N8    A    
C24   H1    S    
Cu4   O6    S    
C14   C15   A    
C72   N5    A    
C51   C56   A    
Cu3   O3    S    
C11   C12   A    
C2    C58   A    
C58   C69   A    
C58   H8    S    
C6    C7    A    
C36   O21   A    
Cu6   O15   S    
C3    C108  A    
Cu2   O12   S    
Cu1   O20   S    
C105  C106  A    
Cu5   Cu6   S    
C35   N3    A    
C79   O24   A    
C99   C100  A    
C13   C17   A    
C14   H41   S    
C47   O22   A    
C94   H26   S    
C64   C65   A    
C19   C20   A    
C106  C107  A    
C89   C90   A    
C15   H42   S    
C10   C16   A    
C109  C110  A    
C32   C33   A    
C72   N8    A    
C53   C63   S    
Cu3   O7    S    
O32   H51   S    
C38   C39   A    
C80   C91   A    
C85   O11   A    
C48   C49   A    
C4    C5    A    
C21   C80   S    
C92   C93   A    
O25   H44   S    
C17   C81   S    
C65   C66   A    
O31   H50   S    
Cu3   O24   S    
O26   H45   S    
Cu5   O16   S    
C10   C11   A    
C6    C16   S    
C97   C107  S    
C31   C37   S    
C13   Br11  S    
C38   C43   A    
C4    H37   S    
C88   C89   A    
C68   C70   A    
C98   C99   A    
C98   H29   S    
C46   C56   S    
C27   C28   A    
C88   C94   A    
C22   C23   A    
C69   C80   A    
C112  H36   S    
O28   H47   S    
C12   H40   S    
C4    C9    A    
Cu4   O8    S    
C71   C78   S    
Cu3   Cu4   S    
C61   Br4   S    
C37   N1    A    
C23   H43   S    
C76   H24   S    
