data_mof_unit_62060.cif
_audit_creation_date              2013-03-05T16:17:57-0500
_audit_creation_method            fapswitch 2.2
_symmetry_space_group_name_H-M    P1
_symmetry_Int_Tables_number       1
_space_group_crystal_system       triclinic
_cell_length_a                    34.634221
_cell_length_b                    34.590458
_cell_length_c                    24.934279
_cell_angle_alpha                 90.00009
_cell_angle_beta                  46.257345
_cell_angle_gamma                 89.999988
_cell_volume                      21580.8184799

loop_
_atom_site_label
_atom_site_type_symbol
_atom_site_description
_atom_site_fract_x
_atom_site_fract_y
_atom_site_fract_z
_atom_type_partial_charge
Zn1   Zn    Zn3+2 0.563280 0.782480 0.438420 0.978998
Zn2   Zn    Zn3+2 0.436720 0.217520 0.561580 0.982405
Zn3   Zn    Zn3+2 0.436720 0.782480 0.561580 0.979040
Zn4   Zn    Zn3+2 0.563280 0.217520 0.438420 0.982328
Zn5   Zn    Zn3+2 0.063280 0.282480 0.438420 0.979957
Zn6   Zn    Zn3+2 0.936720 0.717520 0.561580 0.982477
Zn7   Zn    Zn3+2 0.936720 0.282480 0.561580 0.980073
Zn8   Zn    Zn3+2 0.063280 0.717520 0.438420 0.982619
Zn9   Zn    Zn3+2 0.501700 0.717510 0.561590 1.004324
Zn10  Zn    Zn3+2 0.498300 0.282490 0.438410 0.999860
Zn11  Zn    Zn3+2 0.498300 0.717510 0.438410 1.003403
Zn12  Zn    Zn3+2 0.501700 0.282490 0.561590 1.000635
Zn13  Zn    Zn3+2 0.001700 0.217510 0.561590 1.003095
Zn14  Zn    Zn3+2 0.998300 0.782490 0.438410 0.999451
Zn15  Zn    Zn3+2 0.998300 0.217510 0.438410 1.003954
Zn16  Zn    Zn3+2 0.001700 0.782490 0.561590 0.998682
O1    O     O_3   0.500000 0.749990 0.500000 -0.492532
O2    O     O_3   0.500000 0.250010 0.500000 -0.492426
O3    O     O_3   1.000000 0.249990 0.500000 -0.492523
O4    O     O_3   0.000000 0.750010 0.500000 -0.492101
O5    O     O_R   0.395070 0.772730 0.664400 -0.634239
O6    O     O_R   0.604930 0.227270 0.335600 -0.642167
O7    O     O_R   0.604930 0.772730 0.335600 -0.633771
O8    O     O_R   0.395070 0.227270 0.664400 -0.642621
O9    O     O_R   0.895070 0.272730 0.664400 -0.633828
O10   O     O_R   0.104930 0.727270 0.335600 -0.642289
O11   O     O_R   0.104930 0.272730 0.335600 -0.634382
O12   O     O_R   0.895070 0.727270 0.664400 -0.641904
O13   O     O_R   0.565180 0.727260 0.543110 -0.598722
O14   O     O_R   0.434820 0.272740 0.456890 -0.599244
O15   O     O_R   0.434820 0.727260 0.456890 -0.598683
O16   O     O_R   0.565180 0.272740 0.543110 -0.599160
O17   O     O_R   0.065180 0.227260 0.543110 -0.600885
O18   O     O_R   0.934820 0.772740 0.456890 -0.599390
O19   O     O_R   0.934820 0.227260 0.456890 -0.600946
O20   O     O_R   0.065180 0.772740 0.543110 -0.599270
O21   O     O_R   0.501190 0.663260 0.543120 -0.637824
O22   O     O_R   0.498810 0.336740 0.456880 -0.650443
O23   O     O_R   0.498810 0.663260 0.456880 -0.638405
O24   O     O_R   0.501190 0.336740 0.543120 -0.650038
O25   O     O_R   0.001190 0.163260 0.543120 -0.638852
O26   O     O_R   0.998810 0.836740 0.456880 -0.650600
O27   O     O_R   0.998810 0.163260 0.456880 -0.638414
O28   O     O_R   0.001190 0.836740 0.543120 -0.651115
O29   O     O_R   0.455720 0.836720 0.543090 -0.644954
O30   O     O_R   0.544280 0.163280 0.456910 -0.641691
O31   O     O_R   0.544280 0.836720 0.456910 -0.644876
O32   O     O_R   0.455720 0.163280 0.543090 -0.641591
O33   O     O_R   0.955720 0.336720 0.543090 -0.644800
O34   O     O_R   0.044280 0.663280 0.456910 -0.641487
O35   O     O_R   0.044280 0.336720 0.456910 -0.644935
O36   O     O_R   0.955720 0.663280 0.543090 -0.641634
O37   O     O_R   0.608280 0.772740 0.456900 -0.651875
O38   O     O_R   0.391720 0.227260 0.543100 -0.650702
O39   O     O_R   0.391720 0.772740 0.543100 -0.651539
O40   O     O_R   0.608280 0.227260 0.456900 -0.651104
O41   O     O_R   0.108280 0.272740 0.456900 -0.651276
O42   O     O_R   0.891720 0.727260 0.543100 -0.650881
O43   O     O_R   0.891720 0.272740 0.543100 -0.651591
O44   O     O_R   0.108280 0.727260 0.456900 -0.650492
O45   O     O_R   0.440550 0.727250 0.664400 -0.631105
O46   O     O_R   0.559450 0.272750 0.335600 -0.616645
O47   O     O_R   0.559450 0.727250 0.335600 -0.633238
O48   O     O_R   0.440550 0.272750 0.664400 -0.614860
O49   O     O_R   0.940550 0.227250 0.664400 -0.632394
O50   O     O_R   0.059450 0.772750 0.335600 -0.615977
O51   O     O_R   0.059450 0.227250 0.335600 -0.630411
O52   O     O_R   0.940550 0.772750 0.664400 -0.617896
C1    C     C_R   0.400331 0.749948 0.699419 0.818175
C2    C     C_R   0.599667 0.250051 0.300582 0.825094
C3    C     C_R   0.599669 0.749947 0.300581 0.820291
C4    C     C_R   0.400333 0.250051 0.699418 0.823329
C5    C     C_R   0.900332 0.249948 0.699419 0.822050
C6    C     C_R   0.099667 0.750051 0.300582 0.821959
C7    C     C_R   0.099668 0.249948 0.300581 0.820228
C8    C     C_R   0.900333 0.750051 0.699418 0.823938
C9    C     C_R   0.605287 0.749745 0.499899 0.833889
C10   C     C_R   0.394987 0.249965 0.499529 0.834352
C11   C     C_R   0.394712 0.749744 0.500104 0.834912
C12   C     C_R   0.605014 0.249965 0.500470 0.833585
C13   C     C_R   0.105293 0.249731 0.499864 0.835954
C14   C     C_R   0.895015 0.749944 0.499497 0.834949
C15   C     C_R   0.894707 0.249730 0.500137 0.835294
C16   C     C_R   0.104987 0.749946 0.500500 0.835658
C17   C     C_R   0.500000 0.644777 0.500000 0.795199
C18   C     C_R   0.500000 0.355217 0.500000 0.776546
C19   C     C_R   1.000000 0.144783 0.500000 0.795880
C20   C     C_R   0.000000 0.855223 0.500000 0.777088
C21   C     C_R   0.500000 0.855166 0.500000 0.786088
C22   C     C_R   0.500000 0.144832 0.500000 0.795177
C23   C     C_R   1.000000 0.355166 0.500000 0.786656
C24   C     C_R   1.000000 0.644832 0.500000 0.794779
C25   C     C_R   0.454007 0.958145 0.528874 -0.170995
C26   C     C_R   0.545657 0.041849 0.439873 -0.170428
C27   C     C_R   0.545993 0.958145 0.471123 -0.171399
C28   C     C_R   0.454343 0.041849 0.560124 -0.170778
C29   C     C_R   0.954009 0.458145 0.528871 -0.171160
C30   C     C_R   0.045658 0.541848 0.439879 -0.170679
C31   C     C_R   0.045991 0.458145 0.471133 -0.170782
C32   C     C_R   0.954342 0.541849 0.560124 -0.170348
H1    H     H_    0.418297 0.973161 0.550237 0.135175
H2    H     H_    0.581085 0.026832 0.392155 0.136091
H3    H     H_    0.581703 0.973161 0.449760 0.134840
H4    H     H_    0.418915 0.026832 0.607842 0.136028
H5    H     H_    0.918299 0.473161 0.550229 0.134918
H6    H     H_    0.081087 0.526832 0.392163 0.136160
H7    H     H_    0.081700 0.473161 0.449775 0.135236
H8    H     H_    0.918913 0.526833 0.607840 0.136203
C33   C     C_R   0.453891 0.917902 0.529380 -0.179783
C34   C     C_R   0.545781 0.082092 0.440145 -0.176238
C35   C     C_R   0.546109 0.917901 0.470618 -0.180139
C36   C     C_R   0.454219 0.082092 0.559853 -0.176627
C37   C     C_R   0.953892 0.417901 0.529376 -0.179685
C38   C     C_R   0.045782 0.582092 0.440149 -0.176675
C39   C     C_R   0.046107 0.417901 0.470626 -0.179443
C40   C     C_R   0.954218 0.582092 0.559853 -0.176347
H9    H     H_    0.417977 0.902741 0.551787 0.158986
H10   H     H_    0.581432 0.097250 0.393057 0.161839
H11   H     H_    0.582023 0.902741 0.448212 0.158673
H12   H     H_    0.418568 0.097250 0.606941 0.161779
H13   H     H_    0.917980 0.402741 0.551777 0.158663
H14   H     H_    0.081435 0.597249 0.393063 0.161931
H15   H     H_    0.082020 0.402741 0.448225 0.158923
H16   H     H_    0.918566 0.597250 0.606938 0.161900
C41   C     C_R   0.500000 0.897523 0.499999 -0.000844
C42   C     C_R   0.500000 0.102472 0.499999 -0.004705
C43   C     C_R   1.000000 0.397523 0.500001 -0.000763
C44   C     C_R   0.000000 0.602472 0.500001 -0.004801
C45   C     C_R   0.500000 0.978665 0.499999 0.110786
C46   C     C_R   0.500000 0.021329 0.499999 0.109103
C47   C     C_R   1.000000 0.478664 0.500002 0.110704
C48   C     C_R   0.000000 0.521329 0.500002 0.109066
C49   C     C_3   0.243524 0.281483 0.974601 -0.272896
C50   C     C_3   0.754387 0.717306 0.025364 -0.271218
C51   C     C_3   0.751392 0.284087 0.025337 -0.272503
C52   C     C_3   0.240117 0.720870 0.974563 -0.270060
C53   C     C_3   0.745626 0.782684 0.974630 -0.273642
C54   C     C_3   0.256490 0.218508 0.025393 -0.270236
C55   C     C_3   0.259867 0.779120 0.025443 -0.273978
C56   C     C_3   0.748596 0.215903 0.974669 -0.271149
C57   C     C_3   0.702589 0.751320 0.023210 0.396414
C58   C     C_3   0.297432 0.251039 0.976790 0.392333
C59   C     C_3   0.297073 0.744926 0.976799 0.396798
C60   C     C_3   0.702837 0.245457 0.023224 0.392166
C61   C     C_3   0.202582 0.248951 0.023204 0.396121
C62   C     C_3   0.797425 0.748670 0.976783 0.392633
C63   C     C_3   0.797150 0.254532 0.976783 0.395704
C64   C     C_3   0.202911 0.755064 0.023208 0.393138
H17   H     H_    0.237652 0.306924 0.953750 0.180715
H18   H     H_    0.758558 0.690841 0.046192 0.181762
H19   H     H_    0.753145 0.311756 0.046139 0.180801
H20   H     H_    0.231510 0.697428 0.953676 0.182324
H21   H     H_    0.741456 0.809149 0.953802 0.180219
H22   H     H_    0.262363 0.193066 0.046244 0.182346
H23   H     H_    0.268474 0.802562 0.046331 0.180243
H24   H     H_    0.746842 0.188232 0.953867 0.181958
H25   H     H_    0.241131 0.191229 0.953370 0.181089
H26   H     H_    0.762672 0.806501 0.046663 0.182076
H27   H     H_    0.767557 0.196955 0.046715 0.181050
H28   H     H_    0.247886 0.812018 0.953452 0.181677
H29   H     H_    0.737343 0.693489 0.953330 0.180956
H30   H     H_    0.258884 0.308761 0.046623 0.182238
H31   H     H_    0.252098 0.687972 0.046555 0.181024
H32   H     H_    0.732430 0.303034 0.953291 0.182623
C65   C     C_1   0.639236 0.749877 0.221305 -0.103907
C66   C     C_1   0.360769 0.250117 0.778693 -0.100524
C67   C     C_1   0.360761 0.749877 0.778695 -0.103739
C68   C     C_1   0.639228 0.250115 0.221307 -0.100622
C69   C     C_1   0.139237 0.249878 0.221305 -0.102729
C70   C     C_1   0.860770 0.750118 0.778692 -0.101730
C71   C     C_1   0.860766 0.249880 0.778695 -0.102882
C72   C     C_1   0.139232 0.750118 0.221308 -0.101560
C73   C     C_3   0.756658 0.781254 0.025622 -0.268935
C74   C     C_3   0.245450 0.217515 0.974394 -0.270913
C75   C     C_3   0.249174 0.784226 0.974441 -0.270229
C76   C     C_3   0.759356 0.220612 0.025654 -0.271215
C77   C     C_3   0.254564 0.282475 0.025600 -0.269033
C78   C     C_3   0.743356 0.718735 0.974371 -0.270988
C79   C     C_3   0.740631 0.279377 0.974352 -0.267995
C80   C     C_3   0.250810 0.715764 0.025565 -0.270706
C81   C     C_3   0.713024 0.749924 0.073593 0.038534
C82   C     C_3   0.286988 0.250072 0.926402 0.038072
C83   C     C_3   0.286969 0.749905 0.926407 0.038362
C84   C     C_3   0.713008 0.250053 0.073598 0.038166
C85   C     C_3   0.213025 0.249918 0.073593 0.038063
C86   C     C_3   0.786989 0.750066 0.926402 0.038503
C87   C     C_3   0.786980 0.249937 0.926407 0.038131
C88   C     C_3   0.213016 0.750085 0.073598 0.038373
C89   C     C_1   0.672540 0.749873 0.154613 0.051778
C90   C     C_1   0.327469 0.250121 0.845384 0.050967
C91   C     C_1   0.327454 0.749867 0.845387 0.051833
C92   C     C_1   0.672526 0.250112 0.154616 0.051082
C93   C     C_1   0.172541 0.249872 0.154613 0.052468
C94   C     C_1   0.827470 0.750119 0.845383 0.050300
C95   C     C_1   0.827464 0.249880 0.845387 0.052461
C96   C     C_1   0.172535 0.750125 0.154616 0.050402
C97   C     C_R   0.279126 0.782261 0.525901 -0.170275
C98   C     C_R   0.738317 0.235166 0.439135 -0.170915
C99   C     C_R   0.720960 0.782227 0.473934 -0.170630
C100  C     C_R   0.261667 0.235211 0.560900 -0.170663
C101  C     C_R   0.780089 0.282612 0.524049 -0.170044
C102  C     C_R   0.238649 0.736110 0.438389 -0.170536
C103  C     C_R   0.219966 0.282592 0.475845 -0.169793
C104  C     C_R   0.761319 0.736201 0.561683 -0.170809
H33   H     H_    0.254146 0.807699 0.546287 0.144905
H34   H     H_    0.777011 0.223484 0.391187 0.149853
H35   H     H_    0.746006 0.807637 0.453415 0.144834
H36   H     H_    0.222957 0.223565 0.608880 0.149983
H37   H     H_    0.755836 0.308354 0.542966 0.144622
H38   H     H_    0.277670 0.725182 0.389795 0.150164
H39   H     H_    0.244257 0.308319 0.456849 0.144700
H40   H     H_    0.722269 0.725345 0.610337 0.149998
C105  C     C_R   0.318764 0.781578 0.526927 -0.256897
C106  C     C_R   0.697497 0.234698 0.440477 -0.258940
C107  C     C_R   0.681317 0.781544 0.472917 -0.257741
C108  C     C_R   0.302486 0.234739 0.559559 -0.258943
C109  C     C_R   0.819666 0.281941 0.525190 -0.257865
C110  C     C_R   0.197840 0.735579 0.439718 -0.259323
C111  C     C_R   0.180385 0.281921 0.474711 -0.257015
C112  C     C_R   0.802128 0.735665 0.560355 -0.259277
H41   H     H_    0.323319 0.806450 0.548552 0.182509
H42   H     H_    0.705492 0.222405 0.393657 0.187301
H43   H     H_    0.676827 0.806385 0.451164 0.182293
H44   H     H_    0.294475 0.222481 0.606413 0.187603
H45   H     H_    0.824931 0.307128 0.545406 0.181379
H46   H     H_    0.206158 0.724009 0.392231 0.187223
H47   H     H_    0.175159 0.307091 0.454417 0.181681
H48   H     H_    0.793781 0.724164 0.607902 0.186868
C113  C     C_R   0.352654 0.749466 0.499334 -0.113964
C114  C     C_R   0.647239 0.250396 0.500944 -0.121827
C115  C     C_R   0.647344 0.749470 0.500676 -0.113676
C116  C     C_R   0.352765 0.250394 0.499052 -0.122058
C117  C     C_R   0.852644 0.249428 0.499420 -0.112039
C118  C     C_R   0.147164 0.750346 0.501031 -0.120795
C119  C     C_R   0.147356 0.249429 0.500582 -0.112527
C120  C     C_R   0.852842 0.750342 0.498962 -0.120291
C121  C     C_R   0.346542 0.717732 0.470023 0.521926
C122  C     C_R   0.638281 0.266964 0.560594 0.526086
C123  C     C_R   0.653376 0.717778 0.530152 0.521142
C124  C     C_R   0.361746 0.266920 0.439358 0.527282
C125  C     C_R   0.845677 0.217254 0.471898 0.522633
C126  C     C_R   0.137715 0.766000 0.561602 0.525370
C127  C     C_R   0.154277 0.217278 0.528201 0.523228
C128  C     C_R   0.862336 0.765908 0.438307 0.523827
C129  C     C_R   0.305416 0.718249 0.471465 -0.265226
C130  C     C_R   0.679150 0.266166 0.559656 -0.266690
C131  C     C_R   0.694504 0.718294 0.528706 -0.265427
C132  C     C_R   0.320877 0.266122 0.440295 -0.266516
C133  C     C_R   0.804592 0.217789 0.473239 -0.265116
C134  C     C_R   0.178612 0.765247 0.560625 -0.266931
C135  C     C_R   0.195365 0.217812 0.526852 -0.265018
C136  C     C_R   0.821435 0.765160 0.439291 -0.267226
H49   H     H_    0.298902 0.692993 0.452890 0.152862
H50   H     H_    0.671182 0.276915 0.607317 0.158586
H51   H     H_    0.700947 0.693066 0.547422 0.152807
H52   H     H_    0.328861 0.276835 0.392604 0.158521
H53   H     H_    0.797345 0.192255 0.456136 0.152242
H54   H     H_    0.170349 0.775231 0.608887 0.158374
H55   H     H_    0.202571 0.192292 0.544036 0.152360
H56   H     H_    0.829724 0.775072 0.390975 0.158351
C137  C     C_R   0.272049 0.750557 0.498399 0.075967
C138  C     C_R   0.729389 0.250783 0.498809 0.070176
C139  C     C_R   0.727956 0.750563 0.501599 0.076052
C140  C     C_R   0.270618 0.250785 0.501182 0.070083
C141  C     C_R   0.772144 0.250501 0.498309 0.076324
C142  C     C_R   0.229285 0.750826 0.498919 0.070267
C143  C     C_R   0.227863 0.250503 0.501682 0.076185
C144  C     C_R   0.770721 0.750831 0.501076 0.070432
C145  C     C_R   0.486013 0.541827 0.559989 -0.171288
C146  C     C_R   0.482583 0.458146 0.471349 -0.172542
C147  C     C_R   0.513983 0.541827 0.440015 -0.171357
C148  C     C_R   0.517414 0.458146 0.528656 -0.172276
C149  C     C_R   0.017396 0.041855 0.528679 -0.172545
C150  C     C_R   0.014025 0.958174 0.439986 -0.173363
C151  C     C_R   0.982606 0.041855 0.471316 -0.172274
C152  C     C_R   0.985978 0.958175 0.560011 -0.173421
H57   H     H_    0.474101 0.526813 0.607605 0.135686
H58   H     H_    0.468002 0.473160 0.450174 0.134153
H59   H     H_    0.525895 0.526812 0.392400 0.135214
H60   H     H_    0.531993 0.473160 0.549832 0.134428
H61   H     H_    0.031959 0.026840 0.549878 0.135007
H62   H     H_    0.025966 0.973189 0.392352 0.135530
H63   H     H_    0.968044 0.026840 0.450117 0.135271
H64   H     H_    0.974036 0.973190 0.607644 0.135089
C153  C     C_R   0.486417 0.582064 0.559710 -0.172564
C154  C     C_R   0.482983 0.417909 0.470824 -0.184581
C155  C     C_R   0.513580 0.582064 0.440293 -0.173005
C156  C     C_R   0.517014 0.417909 0.529180 -0.184020
C157  C     C_R   0.016998 0.082092 0.529202 -0.173961
C158  C     C_R   0.013623 0.917937 0.440264 -0.185859
C159  C     C_R   0.983004 0.082092 0.470795 -0.173338
C160  C     C_R   0.986379 0.917937 0.559734 -0.186231
H65   H     H_    0.475382 0.597224 0.606672 0.161740
H66   H     H_    0.469253 0.402737 0.448587 0.153376
H67   H     H_    0.524616 0.597223 0.393330 0.160894
H68   H     H_    0.530744 0.402738 0.551416 0.153638
H69   H     H_    0.030713 0.097263 0.551458 0.166791
H70   H     H_    0.024692 0.902777 0.393279 0.160009
H71   H     H_    0.969288 0.097263 0.448539 0.167024
H72   H     H_    0.975310 0.902778 0.606718 0.159258
C161  C     C_R   0.499999 0.602434 0.500001 -0.002296
C162  C     C_R   0.499999 0.397547 0.500001 0.004472
C163  C     C_R   0.000001 0.102453 0.499999 -0.007237
C164  C     C_R   0.000001 0.897566 0.499999 0.000122
C165  C     C_R   0.499998 0.521313 0.500002 0.108891
C166  C     C_R   0.499998 0.478660 0.500003 0.112373
C167  C     C_R   0.000001 0.021341 0.499998 0.109361
C168  C     C_R   0.000001 0.978688 0.499998 0.112157
N1    N     N_R   0.650396 0.752795 0.047504 0.211880
O53   O     O_R   0.647279 0.753922 0.998470 -0.375045
O54   O     O_R   0.606842 0.752971 0.117776 -0.391672
N2    N     N_R   0.349635 0.252213 0.952498 0.213380
O55   O     O_R   0.352764 0.252922 0.001534 -0.364949
O56   O     O_R   0.393184 0.252585 0.882226 -0.367963
N3    N     N_R   0.348889 0.739252 0.952512 0.211705
O57   O     O_R   0.351757 0.735424 0.001552 -0.375413
O58   O     O_R   0.392349 0.737950 0.882241 -0.392067
N4    N     N_R   0.650933 0.240391 0.047527 0.213674
O59   O     O_R   0.648022 0.236784 0.998500 -0.364432
O60   O     O_R   0.607431 0.239461 0.117801 -0.368393
N5    N     N_R   0.150381 0.247778 0.047490 0.212013
O61   O     O_R   0.147255 0.247067 0.998452 -0.374749
O62   O     O_R   0.106831 0.247409 0.117761 -0.390778
N6    N     N_R   0.849620 0.747195 0.952485 0.213201
O63   O     O_R   0.852740 0.746067 0.001516 -0.365379
O64   O     O_R   0.893173 0.747023 0.882212 -0.368838
N7    N     N_R   0.849052 0.259599 0.952484 0.212183
O65   O     O_R   0.851960 0.263204 0.001514 -0.374259
O66   O     O_R   0.892555 0.260532 0.882211 -0.390436
N8    N     N_R   0.151093 0.760738 0.047499 0.212956
O67   O     O_R   0.148222 0.764565 0.998463 -0.366244
O68   O     O_R   0.107635 0.762043 0.117771 -0.369594
O69   O     O_3   0.377253 0.684764 0.446921 -0.596452
C169  C     C_3   0.412191 0.681184 0.369229 -0.231392
H73   H     H_    0.440490 0.657221 0.350276 0.196194
H74   H     H_    0.436334 0.707900 0.339994 0.168572
H75   H     H_    0.390052 0.673761 0.353233 0.144044
O70   O     O_3   0.588145 0.280471 0.622858 -0.573699
C170  C     C_3   0.590142 0.321090 0.625718 -0.227496
H76   H     H_    0.548866 0.332001 0.671232 0.205224
H77   H     H_    0.606146 0.334857 0.573274 0.139164
H78   H     H_    0.614004 0.330041 0.638304 0.141115
O71   O     O_3   0.622572 0.684845 0.553453 -0.597051
C171  C     C_3   0.587593 0.681416 0.631175 -0.226691
H79   H     H_    0.559221 0.657484 0.650273 0.197586
H80   H     H_    0.563531 0.708185 0.660210 0.168532
H81   H     H_    0.609684 0.674033 0.647260 0.143602
O72   O     O_3   0.411903 0.280383 0.377063 -0.573666
C172  C     C_3   0.409952 0.320997 0.374061 -0.231693
H82   H     H_    0.451246 0.331879 0.328557 0.203530
H83   H     H_    0.393915 0.334819 0.426483 0.140046
H84   H     H_    0.386145 0.329916 0.361370 0.141646
O73   O     O_3   0.875396 0.183935 0.450914 -0.600154
C173  C     C_3   0.909990 0.178851 0.373565 -0.237222
H85   H     H_    0.937692 0.154697 0.356118 0.194683
H86   H     H_    0.934808 0.205067 0.342367 0.170974
H87   H     H_    0.887453 0.170874 0.358418 0.144991
O74   O     O_3   0.087135 0.778433 0.624621 -0.575299
C174  C     C_3   0.087922 0.818935 0.630538 -0.224992
H88   H     H_    0.046272 0.829096 0.676337 0.204662
H89   H     H_    0.104020 0.833829 0.578894 0.142293
H90   H     H_    0.111043 0.827360 0.644565 0.141375
O75   O     O_3   0.124505 0.183977 0.549302 -0.599507
C175  C     C_3   0.089873 0.178988 0.626678 -0.240982
H91   H     H_    0.062158 0.154830 0.644200 0.193849
H92   H     H_    0.065073 0.205229 0.657747 0.170324
H93   H     H_    0.112373 0.171068 0.641906 0.145310
O76   O     O_3   0.912958 0.778231 0.375213 -0.576197
C176  C     C_3   0.912301 0.818720 0.369013 -0.220402
H94   H     H_    0.953985 0.828800 0.323149 0.207083
H95   H     H_    0.896244 0.833714 0.420557 0.141513
H96   H     H_    0.889214 0.827111 0.354917 0.140922

loop_
_geom_bond_atom_site_label_1
_geom_bond_atom_site_label_2
_geom_bond_distance
_ccdc_geom_bond_type
C17   C161  1.464646 S    
C60   C84   1.529353 S    
C135  C143  1.400940 A    
C98   H34   1.083064 S    
Zn8   O10   1.911361 S    
Zn6   O42   1.935968 S    
C61   N5    1.457063 S    
C150  H62   1.082675 S    
C149  C167  1.404880 A    
C153  H65   1.083213 S    
C150  C168  1.404811 A    
C21   C41   1.465141 S    
O69   C169  1.410943 S    
C23   C43   1.465138 S    
C148  C166  1.404880 A    
O42   C14   1.280287 A    
C30   C38   1.392072 A    
C58   C77   1.539225 S    
O46   C2    1.279526 A    
O24   C18   1.275708 A    
H30   C77   1.110110 S    
C106  H42   1.083204 S    
N6    O63   1.300196 A    
C32   C40   1.392072 A    
C54   C74   1.561022 S    
Zn16  O28   1.935208 S    
C63   N7    1.457051 S    
C176  H96   1.111651 S    
Zn4   O2    1.941770 S    
C54   H22   1.110110 S    
C147  H59   1.082675 S    
C40   C44   1.402174 A    
C100  H36   1.083063 S    
C35   C41   1.402151 A    
Zn4   O40   1.935968 S    
C34   H10   1.083184 S    
C101  C141  1.401987 A    
O33   C23   1.278628 A    
O11   C7    1.279333 A    
Zn7   O43   1.935968 S    
O76   C176  1.410943 S    
C52   H20   1.110108 S    
C154  C162  1.401984 A    
C104  C144  1.401910 A    
O25   C19   1.275707 A    
C39   H15   1.083199 S    
N8    O67   1.300203 A    
C57   C78   1.539223 S    
C54   C85   1.545697 S    
C125  C133  1.400150 A    
C29   C47   1.404860 A    
C71   C95   1.201386 T    
C109  C117  1.402629 A    
C36   H12   1.083182 S    
Zn3   O29   1.935492 S    
C63   C76   1.539218 S    
C69   C93   1.201384 T    
C129  H49   1.083075 S    
Zn12  O24   1.935208 S    
C108  H44   1.083207 S    
Zn13  O17   1.938785 S    
O16   C12   1.275133 A    
C38   C44   1.402175 A    
Zn10  O14   1.938789 S    
C125  O73   1.384471 S    
Zn16  O4    1.936262 S    
C104  H40   1.083062 S    
C22   C42   1.465241 S    
C121  C129  1.399907 A    
C8    C70   1.428042 S    
C119  C127  1.413081 A    
H32   C79   1.110107 S    
C56   H24   1.110110 S    
C145  C165  1.404819 A    
C58   C82   1.529346 S    
O47   C3    1.279529 A    
Zn7   O3    1.941772 S    
C28   H4    1.082677 S    
C72   C96   1.201368 T    
C49   C61   1.539240 S    
O23   C17   1.275819 A    
C113  C121  1.413431 A    
C98   C106  1.390934 A    
Zn8   O34   1.935492 S    
Zn6   O4    1.941775 S    
C136  H56   1.083074 S    
C75   C83   1.545750 S    
C53   C86   1.545679 S    
C76   C84   1.545742 S    
C56   C87   1.545687 S    
C4    C66   1.428044 S    
C29   H5    1.082676 S    
O43   C15   1.280026 A    
C30   H6    1.082676 S    
C32   C48   1.404847 A    
C64   C88   1.529341 S    
C67   C91   1.201385 T    
C68   C92   1.201368 T    
Zn10  O22   1.935207 S    
C50   C62   1.539254 S    
C157  H69   1.083299 S    
C149  H61   1.082674 S    
C137  C142  1.472180 S    
C152  C168  1.404814 A    
C169  H75   1.111658 S    
Zn10  O2    1.936269 S    
C52   C83   1.545703 S    
O72   C172  1.410944 S    
C155  H67   1.083213 S    
Zn3   O1    1.941772 S    
C57   C81   1.529356 S    
C156  H68   1.083290 S    
C78   C86   1.545744 S    
C26   H2    1.082678 S    
N5    O61   1.300197 A    
O5    C1    1.279328 A    
C174  H88   1.109291 S    
Zn5   O35   1.935490 S    
C103  C143  1.401987 A    
C82   C90   1.459453 S    
Zn6   O36   1.935490 S    
C110  H46   1.083235 S    
C131  C139  1.400769 A    
C132  C140  1.400691 A    
C172  H82   1.109285 S    
C19   C163  1.464218 S    
C20   C164  1.464664 S    
C129  C137  1.400776 A    
C74   C82   1.545738 S    
Zn7   O33   1.935492 S    
C26   C46   1.404847 A    
O22   C18   1.275710 A    
C99   C107  1.390847 A    
O14   C10   1.275128 A    
Zn11  O47   1.913831 S    
Zn12  O48   1.913832 S    
O50   C6    1.279533 A    
N2    O55   1.300196 A    
C154  H66   1.083290 S    
C35   H11   1.083199 S    
C133  C141  1.400950 A    
Zn1   O37   1.935968 S    
C11   C113  1.470021 S    
N4    O60   1.300253 A    
Zn5   O11   1.911360 S    
C55   C59   1.539244 S    
Zn6   O12   1.911360 S    
C15   C117  1.469288 S    
C175  H92   1.114305 S    
C18   C162  1.464231 S    
C13   C119  1.469325 S    
C151  H63   1.082674 S    
H25   C74   1.110111 S    
C135  H55   1.083049 S    
C148  H60   1.082673 S    
O32   C22   1.278654 A    
C103  H39   1.083059 S    
C105  H41   1.083245 S    
C101  H37   1.083058 S    
C27   H3    1.082674 S    
N1    O54   1.300255 A    
C32   H8    1.082676 S    
C127  C135  1.400126 A    
C62   N6    1.457069 S    
C111  C119  1.402646 A    
N7    O66   1.300250 A    
C169  H73   1.109312 S    
C152  H64   1.082674 S    
C61   C85   1.529351 S    
C16   C118  1.470025 S    
C7    C69   1.428077 S    
Zn4   O6    1.911361 S    
C55   H23   1.110110 S    
Zn15  O51   1.913831 S    
C127  O75   1.384455 S    
C124  O72   1.384167 S    
C145  H57   1.082672 S    
C150  C158  1.391869 A    
C52   C64   1.539255 S    
C118  C126  1.413432 A    
C34   C42   1.402173 A    
C172  H84   1.111745 S    
C57   N1    1.457061 S    
H27   C76   1.110108 S    
H28   C75   1.110112 S    
O51   C7    1.279537 A    
C55   C88   1.545691 S    
O8    C4    1.279320 A    
C124  C132  1.399678 A    
C45   C46   1.475774 S    
C117  C125  1.413066 A    
C86   C94   1.459455 S    
Zn14  O18   1.938789 S    
O52   C8    1.279524 A    
C51   C63   1.539240 S    
O40   C12   1.280583 A    
C175  H93   1.111595 S    
C102  C110  1.390825 A    
C64   N8    1.457073 S    
Zn16  O20   1.938785 S    
C146  C166  1.404883 A    
C140  C143  1.472222 S    
C100  C108  1.390927 A    
C174  H90   1.111655 S    
O9    C5    1.279339 A    
C147  C165  1.404819 A    
C153  C161  1.402083 A    
Zn3   O5    1.911362 S    
C151  C167  1.404882 A    
C170  H78   1.111748 S    
O13   C9    1.275038 A    
C171  H79   1.109313 S    
O7    C3    1.279339 A    
N6    O64   1.300258 A    
C173  H85   1.109333 S    
C3    C65   1.428075 S    
C30   C48   1.404847 A    
O18   C14   1.275015 A    
O6    C2    1.279328 A    
C109  H45   1.083276 S    
C176  H95   1.114293 S    
C14   C120  1.469959 S    
C97   H33   1.083061 S    
C158  H70   1.083210 S    
C159  C163  1.401997 A    
C138  C141  1.472217 S    
Zn13  O25   1.935207 S    
O73   C173  1.410918 S    
C33   H9    1.083201 S    
Zn15  O3    1.936266 S    
N8    O68   1.300266 A    
C104  C112  1.390816 A    
C146  C154  1.391857 A    
Zn5   O3    1.941773 S    
C31   C39   1.392072 A    
C79   C87   1.545749 S    
C10   C116  1.470679 S    
C77   C85   1.545748 S    
C112  H48   1.083237 S    
C123  C131  1.399885 A    
C97   C137  1.401915 A    
C80   C88   1.545743 S    
O35   C23   1.278628 A    
C81   C89   1.459483 S    
C136  C144  1.400796 A    
C65   C89   1.201384 T    
O75   C175  1.410916 S    
C84   C92   1.459454 S    
O29   C21   1.278628 A    
C36   C42   1.402173 A    
C130  C138  1.400689 A    
C73   C81   1.545752 S    
N3    O57   1.300205 A    
Zn9   O1    1.936265 S    
Zn10  O46   1.913828 S    
C25   C45   1.404863 A    
C139  C144  1.472184 S    
Zn13  O3    1.936265 S    
C167  C168  1.475394 S    
C126  C134  1.399923 A    
Zn14  O4    1.936269 S    
C134  C142  1.400781 A    
C99   H35   1.083062 S    
Zn2   O38   1.935968 S    
C70   C94   1.201368 T    
O19   C15   1.274907 A    
Zn1   O31   1.935490 S    
Zn13  O49   1.913831 S    
C130  H50   1.083116 S    
C63   C87   1.529365 S    
C26   C34   1.392075 A    
C83   C91   1.459484 S    
C59   C83   1.529348 S    
O37   C9    1.280340 A    
C1    C67   1.428075 S    
C2    C68   1.428042 S    
O39   C11   1.280311 A    
H26   C73   1.110108 S    
C170  H76   1.109290 S    
C171  H81   1.111659 S    
C122  C130  1.399669 A    
C50   C78   1.561022 S    
C121  O69   1.384330 S    
C149  C157  1.391860 A    
C123  O71   1.384315 S    
C54   C58   1.539247 S    
C157  C163  1.401992 A    
Zn9   O45   1.913831 S    
O36   C24   1.278656 A    
C158  C164  1.402086 A    
C25   H1    1.082674 S    
C47   C48   1.475778 S    
O12   C8    1.279326 A    
C97   C105  1.390839 A    
C28   C46   1.404849 A    
C9    C115  1.470090 S    
O21   C17   1.275817 A    
C53   C57   1.539242 S    
Zn11  O1    1.936266 S    
C40   H16   1.083186 S    
C156  C162  1.401987 A    
C62   C86   1.529349 S    
C56   C60   1.539245 S    
C133  H53   1.083048 S    
C147  C155  1.391855 A    
O30   C22   1.278654 A    
C103  C111  1.390746 A    
C31   H7    1.082679 S    
Zn7   O9    1.911362 S    
Zn5   O41   1.935968 S    
Zn2   O32   1.935490 S    
C146  H58   1.082673 S    
N7    O65   1.300199 A    
C151  C159  1.391860 A    
Zn8   O44   1.935968 S    
C49   C77   1.561019 S    
C51   H19   1.110109 S    
N2    O56   1.300259 A    
Zn15  O27   1.935208 S    
C165  C166  1.475401 S    
C27   C45   1.404861 A    
C111  H47   1.083271 S    
H29   C78   1.110107 S    
C59   N3    1.457068 S    
O38   C10   1.280572 A    
C131  H51   1.083082 S    
O71   C171  1.410948 S    
Zn2   O2    1.941775 S    
C55   C75   1.561017 S    
C39   C43   1.402150 A    
Zn4   O30   1.935492 S    
N1    O53   1.300196 A    
C175  H91   1.109330 S    
C53   C73   1.561017 S    
C28   C36   1.392072 A    
Zn8   O4    1.941770 S    
C107  C115  1.402920 A    
C145  C153  1.391856 A    
C99   C139  1.401906 A    
C169  H74   1.114302 S    
C100  C140  1.401839 A    
C50   H18   1.110109 S    
C62   C73   1.539222 S    
O49   C5    1.279529 A    
C115  C123  1.413462 A    
O10   C6    1.279319 A    
N5    O62   1.300255 A    
C58   N2    1.457069 S    
Zn16  O52   1.913832 S    
C5    C71   1.428075 S    
C25   C33   1.392072 A    
C128  O76   1.384342 S    
C6    C72   1.428041 S    
C56   C76   1.561021 S    
Zn14  O26   1.935207 S    
Zn11  O15   1.938788 S    
C172  H83   1.114288 S    
Zn12  O16   1.938785 S    
O31   C21   1.278628 A    
C122  O70   1.384160 S    
Zn3   O39   1.935968 S    
C51   C84   1.545674 S    
C102  H38   1.083063 S    
C24   C44   1.465241 S    
Zn15  O19   1.938788 S    
N3    O58   1.300262 A    
C64   C75   1.539233 S    
C53   H21   1.110110 S    
C49   H17   1.110106 S    
C110  C118  1.402889 A    
C98   C138  1.401834 A    
C101  C109  1.390740 A    
C12   C114  1.470711 S    
C66   C90   1.201368 T    
C152  C160  1.391866 A    
N4    O59   1.300200 A    
C60   C79   1.539222 S    
Zn9   O21   1.935207 S    
Zn14  O50   1.913828 S    
C37   H13   1.083201 S    
C174  H89   1.114298 S    
C59   C80   1.539229 S    
C61   C74   1.539221 S    
Zn11  O23   1.935208 S    
C60   N4    1.457058 S    
C105  C113  1.402899 A    
C33   C41   1.402151 A    
C170  H77   1.114284 S    
C171  H80   1.114304 S    
Zn1   O7    1.911360 S    
C173  H86   1.114309 S    
Zn2   O8    1.911360 S    
O41   C13   1.280039 A    
C114  C122  1.413773 A    
O26   C20   1.275827 A    
C50   C81   1.545693 S    
C29   C37   1.392072 A    
C159  H71   1.083302 S    
C176  H94   1.109300 S    
O45   C1    1.279540 A    
C102  C142  1.401904 A    
O34   C24   1.278656 A    
C128  C136  1.399951 A    
C87   C95   1.459479 S    
C112  C120  1.402867 A    
C85   C93   1.459481 S    
C107  H43   1.083242 S    
C126  O74   1.384327 S    
C132  H52   1.083115 S    
O15   C11   1.275026 A    
C37   C43   1.402151 A    
Zn9   O13   1.938785 S    
C148  C156  1.391860 A    
C173  H87   1.111588 S    
C52   C80   1.561022 S    
C31   C47   1.404859 A    
O27   C19   1.275704 A    
C120  C128  1.413401 A    
C51   C79   1.561019 S    
C27   C35   1.392072 A    
O44   C16   1.280313 A    
O20   C16   1.275025 A    
C108  C116  1.403132 A    
C160  C164  1.402089 A    
O48   C4    1.279532 A    
O74   C174  1.410946 S    
C160  H72   1.083209 S    
C38   H14   1.083184 S    
C49   C82   1.545685 S    
Zn1   O1    1.941773 S    
C88   C96   1.459455 S    
O70   C170  1.410941 S    
C155  C161  1.402082 A    
Zn12  O2    1.936262 S    
H31   C80   1.110111 S    
C116  C124  1.413756 A    
O28   C20   1.275824 A    
O17   C13   1.274915 A    
C134  H54   1.083081 S    
C106  C114  1.403144 A    
