data_mof_unit_31702.cif
_audit_creation_date              2013-03-05T16:00:37-0500
_audit_creation_method            fapswitch 2.2
_symmetry_space_group_name_H-M    P1
_symmetry_Int_Tables_number       1
_space_group_crystal_system       triclinic
_cell_length_a                    10.718184
_cell_length_b                    14.718964
_cell_length_c                    14.711941
_cell_angle_alpha                 64.271546
_cell_angle_beta                  103.855848
_cell_angle_gamma                 102.451922
_cell_volume                      2013.41524763

loop_
_atom_site_label
_atom_site_type_symbol
_atom_site_description
_atom_site_fract_x
_atom_site_fract_y
_atom_site_fract_z
_atom_type_partial_charge
O1    O     O_R   0.455060 0.022100 0.338110 -0.582195
O2    O     O_R   0.512640 0.160150 0.379180 -0.584979
C1    C     C_R   0.476131 0.120305 0.311657 0.781785
O3    O     O_R   0.288900 0.930980 0.479450 -0.574206
O4    O     O_R   0.346480 0.069030 0.520520 -0.606197
C2    C     C_R   0.259982 0.004003 0.494779 0.732265
Cu1   Cu    Cu3+1 0.465900 0.918260 0.475680 0.973641
Cu2   Cu    Cu3+1 0.534100 0.081740 0.524320 0.943098
O5    O     O_R   0.487360 0.839850 0.620820 -0.570884
O6    O     O_R   0.544940 0.977900 0.661890 -0.585564
O7    O     O_R   0.653520 0.930970 0.479480 -0.584848
O8    O     O_R   0.711100 0.069020 0.520550 -0.590228
C3    C     C_R   0.521248 0.879793 0.688259 0.841449
C4    C     C_R   0.739414 0.002178 0.496269 0.778217
C5    C     C_3   0.035143 0.988266 0.398840 -0.340017
H1    H     H_    0.039521 0.909787 0.408005 0.214215
H2    H     H_    0.069638 0.041487 0.325880 0.161187
C6    C     C_3   0.893465 0.000213 0.393072 -0.338937
H3    H     H_    0.866410 0.070778 0.326084 0.197991
H4    H     H_    0.828663 0.935915 0.380045 0.204945
H5    H     H_    0.104396 0.848397 0.603093 0.209005
H6    H     H_    0.886956 0.843848 0.579473 0.263374
C7    C     C_3   0.080501 0.923192 0.591195 -0.390045
C8    C     C_3   0.099598 0.113369 0.483486 -0.147434
C9    C     C_3   0.122154 0.008159 0.491250 0.060911
H7    H     H_    0.163863 0.129896 0.547640 0.131039
C10   C     C_3   0.877744 0.005713 0.492801 0.051365
C11   C     C_3   0.934045 0.915485 0.586544 -0.350938
C12   C     C_3   0.958063 0.106180 0.496713 -0.315836
H8    H     H_    0.910203 0.172840 0.438590 0.218252
H9    H     H_    0.959300 0.107136 0.572245 0.157422
H10   H     H_    0.133982 0.940130 0.658057 0.169122
H11   H     H_    0.915013 0.913155 0.658717 0.164362
C13   C     C_R   0.442986 0.188955 0.203284 -0.056278
C14   C     C_R   0.524973 0.812183 0.797418 -0.125912
C15   C     C_R   0.310646 0.222071 0.036909 -0.129359
C16   C     C_R   0.357852 0.153584 0.134182 -0.171817
C17   C     C_R   0.482683 0.293183 0.172455 -0.231418
C18   C     C_R   0.422372 0.364510 0.080573 0.063753
C19   C     C_R   0.342192 0.328397 0.007987 0.096718
C20   C     C_R   0.442999 0.470500 0.058491 -0.012869
C21   C     C_R   0.411894 0.540095 0.955557 0.002172
C22   C     C_R   0.322377 0.504463 0.885255 -0.081549
C23   C     C_R   0.289908 0.398556 0.910949 -0.045429
C24   C     C_R   0.489423 0.510531 0.135002 -0.012519
C25   C     C_R   0.524543 0.615041 0.106673 -0.112381
C26   C     C_R   0.519630 0.682510 0.004204 -0.006674
C27   C     C_R   0.468539 0.643872 0.927805 0.032990
C28   C     C_R   0.564063 0.787892 0.975777 0.395092
C29   C     C_R   0.563335 0.851580 0.872333 -0.266373
C30   C     C_R   0.483283 0.708328 0.826249 -0.226894
H12   H     H_    0.464155 0.677762 0.768765 0.190000
H13   H     H_    0.594730 0.932156 0.850056 0.189782
H14   H     H_    0.556569 0.642688 0.166595 0.244074
H15   H     H_    0.244732 0.190263 0.986934 0.175918
H16   H     H_    0.325049 0.073131 0.156005 0.157451
H17   H     H_    0.560712 0.317379 0.222072 0.171015
N1    N     N_R   0.585360 0.204570 0.560800 -0.187764
N2    N     N_R   0.414550 0.795430 0.439160 -0.200171
C31   C     C_R   0.717041 0.279795 0.671244 -0.245367
C32   C     C_R   0.684467 0.200856 0.638853 0.093186
C33   C     C_R   0.511732 0.282288 0.515090 0.089249
C34   C     C_R   0.540035 0.365586 0.544330 0.024843
C35   C     C_R   0.647170 0.363405 0.622422 0.079753
C36   C     C_R   0.470571 0.452255 0.496000 0.044180
C37   C     C_R   0.519650 0.540837 0.517251 -0.033049
C38   C     C_R   0.641014 0.539590 0.584841 0.383972
C39   C     C_R   0.691772 0.448125 0.645058 -0.205720
C40   C     C_R   0.356248 0.453651 0.424433 -0.142352
C41   C     C_R   0.296712 0.541637 0.365357 -0.013230
C42   C     C_R   0.343660 0.629729 0.385087 0.082571
C43   C     C_R   0.447542 0.626693 0.466931 0.035926
C44   C     C_R   0.287896 0.720820 0.326411 -0.249587
C45   C     C_R   0.326690 0.803171 0.353819 0.145344
C46   C     C_R   0.469936 0.708416 0.497752 0.060197
H18   H     H_    0.779266 0.447051 0.700695 0.185145
H19   H     H_    0.529312 0.702996 0.569100 0.180304
H20   H     H_    0.284072 0.872901 0.308117 0.116983
H21   H     H_    0.798992 0.277047 0.731752 0.144434
H22   H     H_    0.738402 0.136305 0.675858 0.122755
H23   H     H_    0.434391 0.278216 0.454731 0.091964
H24   H     H_    0.310907 0.385997 0.412602 0.141791
H25   H     H_    0.215621 0.730410 0.258823 0.133932
C47   C     C_2   0.198278 0.362179 0.836725 0.420459
H26   H     H_    0.103437 0.387864 0.805926 0.100543
O9    O     O_2   0.230419 0.306878 0.806366 -0.537832
C48   C     C_2   0.248352 0.577550 0.792203 0.327280
H27   H     H_    0.220734 0.642764 0.795345 0.099069
O10   O     O_2   0.222756 0.568466 0.710853 -0.511910
C49   C     C_2   0.485882 0.448919 0.245023 0.355283
H28   H     H_    0.410458 0.385415 0.269133 0.081850
O11   O     O_2   0.568929 0.467863 0.309599 -0.529198
S1    S     S_3+6 0.619587 0.843610 0.066256 0.003792
O12   O     O_2   0.513816 0.824306 0.125983 -0.263453
O13   O     O_2   0.735412 0.796404 0.139143 -0.281993
O14   O     O_3   0.660710 0.970000 0.008103 -0.511601
H29   H     H_    0.748011 0.978252 0.991759 0.343019
C50   C     C_2   0.180629 0.536586 0.287431 0.385559
H30   H     H_    0.107717 0.586900 0.262974 0.091893
O15   O     O_2   0.164218 0.474469 0.249993 -0.515202
S2    S     S_3+6 0.756551 0.648231 0.574075 -0.027341
O16   O     O_2   0.743606 0.689115 0.648496 -0.379627
O17   O     O_2   0.891467 0.620294 0.599921 -0.240378
O18   O     O_3   0.736776 0.735445 0.452762 -0.503995
H31   H     H_    0.702100 0.791049 0.454856 0.358361
C51   C     C_2   0.134880 0.200038 0.384923 0.364217
H32   H     H_    0.234906 0.219396 0.373353 0.062159
O19   O     O_2   0.053497 0.247839 0.316991 -0.501070

loop_
_geom_bond_atom_site_label_1
_geom_bond_atom_site_label_2
_geom_bond_distance
_ccdc_geom_bond_type
N1    C33   1.360443 A    
C5    C6    1.544196 S    
C48   H27   1.085700 S    
C34   C36   1.433789 A    
C31   H21   1.084045 S    
S1    O12   1.503159 D    
C10   C12   1.559607 S    
C13   C16   1.395551 A    
C20   C21   1.418589 A    
Cu1   Cu2   2.705989 S    
C26   C28   1.421723 A    
C24   C25   1.396605 A    
Cu1   O7    1.968509 S    
S2    O16   1.503626 D    
C35   C39   1.386234 A    
C15   C16   1.393132 A    
C47   O9    1.221045 D    
C3    C14   1.473045 S    
C43   C46   1.416704 A    
O4    C2    1.297263 A    
O7    C4    1.306465 A    
C5    C9    1.557046 S    
C2    C9    1.479257 S    
C51   H32   1.083111 S    
C32   H22   1.081821 S    
C5    H1    1.113471 S    
C5    H2    1.112490 S    
C6    H3    1.112839 S    
C44   C45   1.389754 A    
C28   C29   1.397757 A    
O5    C3    1.305257 A    
C8    C12   1.550691 S    
C40   H24   1.076738 S    
Cu2   N1    2.032573 S    
C16   H16   1.083243 S    
C27   C30   1.405373 A    
C37   C43   1.441263 A    
C41   C42   1.412127 A    
C4    C10   1.484654 S    
C12   H8    1.111557 S    
N1    C32   1.355103 A    
C37   C38   1.433928 A    
S2    O17   1.504012 D    
H6    C11   1.103605 S    
O3    Cu1   1.962084 S    
Cu1   N2    2.032932 S    
O18   H31   0.983593 S    
C29   H13   1.081889 S    
C30   H12   1.080362 S    
C15   C19   1.416754 A    
C47   H26   1.085336 S    
C18   C20   1.426134 A    
C18   C19   1.420472 A    
C42   C44   1.411965 A    
C1    C13   1.474459 S    
C38   C39   1.393836 A    
C31   C32   1.387472 A    
O1    C1    1.305675 A    
C22   C23   1.418261 A    
C33   C34   1.419620 A    
C17   H17   1.078878 S    
C49   O11   1.220894 D    
C26   C27   1.418621 A    
Cu2   O8    1.962085 S    
O14   H29   0.990717 S    
C25   H14   1.080221 S    
C14   C29   1.398241 A    
C21   C27   1.430345 A    
C7    C11   1.536276 S    
C8    C9    1.569792 S    
C24   C49   1.477817 S    
C46   H19   1.068836 S    
N2    C45   1.353486 A    
O3    C2    1.299917 A    
C33   H23   1.073090 S    
O8    C4    1.293621 A    
C11   H11   1.113244 S    
C36   C37   1.433115 A    
S1    O14   1.682915 S    
C50   O15   1.221365 D    
H5    C7    1.114027 S    
C14   C30   1.396269 A    
C8    C51   1.523675 S    
C21   C22   1.429682 A    
N2    C46   1.363840 A    
C38   S2    1.770808 S    
Cu1   O5    1.919374 S    
C25   C26   1.395109 A    
C13   C17   1.395399 A    
Cu2   O6    1.929776 S    
O2    Cu2   1.919374 S    
C6    C10   1.554055 S    
C8    H7    1.113620 S    
C23   C47   1.486895 S    
O6    C3    1.304951 A    
O4    Cu2   1.968509 S    
S2    O18   1.680819 S    
C31   C35   1.401285 A    
C22   C48   1.493348 S    
C7    H10   1.113360 S    
C48   O10   1.221212 D    
O2    C1    1.305597 A    
C42   C43   1.422736 A    
C12   H9    1.114289 S    
C15   H15   1.079963 S    
C39   H18   1.084980 S    
C49   H28   1.084729 S    
C17   C18   1.410435 A    
C51   O19   1.221199 D    
C36   C40   1.408750 A    
C6    H4    1.106828 S    
C7    C9    1.549994 S    
C40   C41   1.397589 A    
C34   C35   1.411215 A    
C19   C23   1.415958 A    
S1    O13   1.503755 D    
C50   H30   1.082664 S    
C45   H20   1.081700 S    
C10   C11   1.544901 S    
C20   C24   1.429309 A    
O1    Cu1   1.929776 S    
C28   S1    1.776679 S    
C44   H25   1.079407 S    
C41   C50   1.489572 S    
