data_mof_unit_40133.cif
_audit_creation_date              2012-12-10T19:45:00-0500
_audit_creation_method            fapswitch 2.2
_symmetry_space_group_name_H-M    P1
_symmetry_Int_Tables_number       1
_space_group_crystal_system       triclinic
_cell_length_a                    15.079629
_cell_length_b                    10.832647
_cell_length_c                    13.676024
_cell_angle_alpha                 90.10603
_cell_angle_beta                  89.836994
_cell_angle_gamma                 89.720342
_cell_volume                      2233.97041079

loop_
_atom_site_label
_atom_site_type_symbol
_atom_type_description
_atom_site_fract_x
_atom_site_fract_y
_atom_site_fract_z
_atom_type_partial_charge
Br1   Br    Br    0.289292 0.315965 0.060794 -0.567165
Br2   Br    Br    0.710708 0.684034 0.939206 -0.567165
C1    C     C_R   0.497546 0.262138 0.499733 0.798756
C2    C     C_R   0.579900 0.879772 0.667215 0.128003
C3    C     C_R   0.457495 0.106506 0.239167 -0.217826
C4    C     C_R   0.542505 0.893494 0.760833 -0.217826
C5    C     C_R   0.418531 0.164392 0.158600 -0.174246
C6    C     C_R   0.581469 0.835608 0.841400 -0.174246
C7    C     C_R   0.341798 0.235857 0.170778 0.323319
C8    C     C_R   0.658202 0.764143 0.829221 0.323319
C9    C     C_R   0.468430 0.933222 0.420061 -0.233584
C10   C     C_R   0.531570 0.066778 0.579939 -0.233584
C11   C     C_R   0.504328 0.871722 0.500800 -0.085658
C12   C     C_R   0.502454 0.737861 0.500267 0.798756
C13   C     C_R   0.495672 0.128277 0.499200 -0.085658
C14   C     C_R   0.537198 0.938947 0.581547 0.015562
C15   C     C_R   0.462802 0.061053 0.418453 0.015562
C16   C     C_R   0.328441 0.500136 0.500107 0.811299
C17   C     C_R   0.671558 0.499864 0.499892 0.811300
C18   C     C_R   0.554925 0.420963 0.792967 0.025465
C19   C     C_R   0.445075 0.579037 0.207033 0.025466
C20   C     C_R   0.445003 0.578849 0.793520 0.031780
C21   C     C_R   0.554997 0.421151 0.206480 0.031780
C22   C     C_R   0.443783 0.580892 0.896631 0.002940
C23   C     C_R   0.046761 0.516628 0.322348 -0.200621
C24   C     C_R   0.556217 0.419108 0.103369 0.002940
C25   C     C_R   0.499908 0.499868 0.948160 0.125526
C26   C     C_R   0.500092 0.500132 0.051840 0.125526
C27   C     C_R   0.556004 0.418767 0.896064 0.016524
C28   C     C_R   0.443996 0.581233 0.103936 0.016524
C29   C     C_R   0.388207 0.661886 0.949182 -0.186184
C30   C     C_R   0.611793 0.338114 0.050818 -0.186184
C31   C     C_R   0.388278 0.662017 0.051934 -0.167558
C32   C     C_R   0.611722 0.337983 0.948066 -0.167558
C33   C     C_R   0.814489 0.490960 0.588481 -0.255215
C34   C     C_R   0.953239 0.483372 0.677651 -0.200621
C35   C     C_R   0.185510 0.509040 0.411519 -0.255215
C36   C     C_R   0.768375 0.499626 0.499793 -0.079609
C37   C     C_R   0.231625 0.500374 0.500206 -0.079608
C38   C     C_R   0.814950 0.507961 0.411127 -0.236573
C39   C     C_R   0.185050 0.492039 0.588873 -0.236573
C40   C     C_R   0.907347 0.508097 0.410579 0.101547
C41   C     C_R   0.092653 0.491903 0.589421 0.101547
C42   C     C_R   0.953523 0.499891 0.499950 0.065458
C43   C     C_R   0.046477 0.500109 0.500050 0.065458
C44   C     C_R   0.906839 0.491388 0.589217 0.103431
C45   C     C_R   0.303505 0.248473 0.263549 -0.142944
C46   C     C_R   0.093161 0.508612 0.410783 0.103431
C47   C     C_R   0.954303 0.516379 0.322248 -0.196510
C48   C     C_R   0.045697 0.483621 0.677752 -0.196510
C49   C     C_R   0.696495 0.751527 0.736451 -0.142945
C50   C     C_R   0.342265 0.190725 0.344313 -0.153222
C51   C     C_R   0.657735 0.809275 0.655687 -0.153222
C52   C     C_R   0.420100 0.120227 0.332785 0.128003
Cu1   Cu    Cu3+1 0.500010 0.499980 0.597420 0.950386
Cu2   Cu    Cu3+1 0.499990 0.500020 0.402580 0.950386
H1    H     H_    0.778639 0.483481 0.657038 0.159903
H2    H     H_    0.655256 0.274831 0.089167 0.141060
H3    H     H_    0.344739 0.725242 0.090704 0.140132
H4    H     H_    0.655261 0.274758 0.909296 0.140132
H5    H     H_    0.779436 0.514581 0.342483 0.163572
H6    H     H_    0.220564 0.485419 0.657517 0.163572
H7    H     H_    0.919529 0.522673 0.253185 0.161288
H8    H     H_    0.080471 0.477327 0.746815 0.161288
H9    H     H_    0.081974 0.523046 0.253365 0.162425
H10   H     H_    0.918025 0.476954 0.746635 0.162425
H11   H     H_    0.243758 0.302906 0.273076 0.151872
H12   H     H_    0.221361 0.516519 0.342962 0.159903
H13   H     H_    0.756242 0.697094 0.726924 0.151872
H14   H     H_    0.312177 0.201679 0.415844 0.123149
H15   H     H_    0.687823 0.798321 0.584156 0.123149
H16   H     H_    0.517423 0.052446 0.228893 0.147755
H17   H     H_    0.482577 0.947553 0.771107 0.147755
H18   H     H_    0.448328 0.154348 0.086901 0.164436
H19   H     H_    0.551672 0.845652 0.913099 0.164436
H20   H     H_    0.441814 0.881332 0.358975 0.155612
H21   H     H_    0.558186 0.118668 0.641024 0.155612
H22   H     H_    0.597845 0.359540 0.751725 0.121486
H23   H     H_    0.402155 0.640460 0.248275 0.121486
H24   H     H_    0.402364 0.640621 0.752708 0.128600
H25   H     H_    0.597636 0.359378 0.247292 0.128599
H26   H     H_    0.344744 0.725169 0.910832 0.141060
N1    N     N_R   0.499960 0.499900 0.743810 -0.184966
N2    N     N_R   0.500040 0.500100 0.256190 -0.184966
O1    O     O_R   0.500000 0.319630 0.582270 -0.589284
O2    O     O_R   0.500000 0.680370 0.417730 -0.589284
O3    O     O_R   0.499990 0.319660 0.417730 -0.574672
O4    O     O_R   0.500010 0.680340 0.582270 -0.574672
O5    O     O_R   0.370260 0.499960 0.582280 -0.587642
O6    O     O_R   0.629740 0.500040 0.417720 -0.587642
O7    O     O_R   0.370250 0.499990 0.417740 -0.587808
O8    O     O_R   0.629750 0.500010 0.582260 -0.587808

loop_
_geom_bond_atom_site_label_1
_geom_bond_atom_site_label_2
_ccdc_geom_bond_type
Cu1   Cu2   S    
C24   C30   A    
C47   H7    S    
C2    C51   A    
C1    O1    A    
C48   H8    S    
C22   C25   A    
C30   H2    S    
C34   C48   A    
C37   C39   A    
C29   H26   S    
C16   O7    A    
C3    H16   S    
C9    H20   S    
C34   H10   S    
Cu1   O1    S    
C25   C27   A    
C35   H12   S    
C13   C15   A    
C21   C24   A    
Cu1   O4    S    
C17   O8    A    
Cu2   O7    S    
C10   C14   A    
C50   C52   A    
C10   C13   A    
C34   C44   A    
C38   C40   A    
C31   H3    S    
C11   C12   S    
C32   H4    S    
C39   C41   A    
C40   C42   A    
C39   H6    S    
C8    C49   A    
C45   H11   S    
C42   C44   A    
Cu2   N2    S    
C5    H18   S    
C18   C27   A    
C21   N2    A    
C1    O3    A    
C3    C52   A    
C33   C36   A    
Br1   C7    S    
C12   O2    A    
C2    C4    A    
C3    C5    A    
Cu2   O3    S    
C4    C6    A    
C27   C32   A    
C6    H19   S    
C38   H5    S    
C49   C51   A    
C30   C32   A    
C2    C14   S    
C16   C37   S    
Cu1   O8    S    
C17   C36   S    
Cu2   O2    S    
C19   N2    A    
C10   H21   S    
C19   H23   S    
C29   C31   A    
C23   H9    S    
C35   C46   A    
C41   C43   A    
C23   C46   A    
C6    C8    A    
C7    C45   A    
C20   C22   A    
C18   N1    A    
Cu1   N1    S    
Br2   C8    S    
C1    C13   S    
C42   C43   A    
C4    H17   S    
C43   C46   A    
C5    C7    A    
C9    C15   A    
C21   H25   S    
C28   C31   A    
C16   O5    A    
C41   C48   A    
C45   C50   A    
C19   C28   A    
C24   C26   A    
C18   H22   S    
C33   H1    S    
C20   N1    A    
C26   C28   A    
C22   C29   A    
C12   O4    A    
C35   C37   A    
C17   O6    A    
C36   C38   A    
C9    C11   A    
Cu2   O6    S    
C23   C47   A    
C50   H14   S    
C40   C47   A    
C20   H24   S    
Cu1   O5    S    
C11   C14   A    
C25   C26   A    
C49   H13   S    
C33   C44   A    
C15   C52   S    
C51   H15   S    
