data_mof_unit_54449.cif
_audit_creation_date              2012-12-11T17:22:13-0500
_audit_creation_method            fapswitch 2.2
_symmetry_space_group_name_H-M    P1
_symmetry_Int_Tables_number       1
_space_group_crystal_system       triclinic
_cell_length_a                    20.604739
_cell_length_b                    7.191896
_cell_length_c                    20.583682
_cell_angle_alpha                 89.8541
_cell_angle_beta                  101.831419
_cell_angle_gamma                 89.866133
_cell_volume                      2985.41258454

loop_
_atom_site_label
_atom_site_type_symbol
_atom_type_description
_atom_site_fract_x
_atom_site_fract_y
_atom_site_fract_z
_atom_type_partial_charge
O1    O     O_R   0.807340 0.614490 0.194100 -0.519774
O2    O     O_R   0.192660 0.385510 0.805900 -0.521055
O3    O     O_R   0.692660 0.114490 0.305900 -0.517195
O4    O     O_R   0.307340 0.885510 0.694100 -0.518732
O5    O     O_R   0.672910 0.282300 0.178070 -0.520502
O6    O     O_R   0.327090 0.717700 0.821930 -0.522137
O7    O     O_R   0.827090 0.782300 0.321930 -0.526054
O8    O     O_R   0.172910 0.217700 0.678070 -0.526781
C1    C     C_R   0.648963 0.453349 0.161360 0.708486
C2    C     C_R   0.351010 0.546631 0.838676 0.708519
C3    C     C_R   0.850877 0.952667 0.339011 0.708628
C4    C     C_R   0.149128 0.047331 0.660977 0.708679
O9    O     O_R   0.805620 0.284620 0.186180 -0.538692
O10   O     O_R   0.194380 0.715380 0.813820 -0.532306
O11   O     O_R   0.694380 0.784620 0.313820 -0.541269
O12   O     O_R   0.305620 0.215380 0.686180 -0.534889
O13   O     O_R   0.826310 0.116750 0.314070 -0.532360
O14   O     O_R   0.173690 0.883250 0.685930 -0.533161
O15   O     O_R   0.673690 0.616750 0.185930 -0.536752
O16   O     O_R   0.326310 0.383250 0.814070 -0.537486
C5    C     C_R   0.824735 0.453390 0.171392 0.702654
C6    C     C_R   0.175271 0.546613 0.828622 0.698231
C7    C     C_R   0.675307 0.953416 0.328668 0.706624
C8    C     C_R   0.324690 0.046601 0.671318 0.701432
O17   O     O_3   0.756630 0.448770 0.291950 -0.366793
O18   O     O_3   0.243370 0.551230 0.708050 -0.366222
O19   O     O_3   0.743370 0.948770 0.208050 -0.368987
O20   O     O_3   0.256630 0.051230 0.791950 -0.368827
V1    V     V_3+5 0.748770 0.172970 0.242220 1.546268
V2    V     V_3+5 0.251230 0.827030 0.757780 1.564489
V3    V     V_3+5 0.751230 0.672970 0.257780 1.546524
V4    V     V_3+5 0.248770 0.327030 0.742220 1.565830
C9    C     C_R   0.464076 0.162737 0.504555 -0.182503
C10   C     C_R   0.535911 0.837935 0.495324 -0.151368
C11   C     C_R   0.036522 0.661029 0.995862 -0.178775
C12   C     C_R   0.963405 0.339059 0.004158 -0.151288
H1    H     H_    0.436706 0.289445 0.508915 0.179540
H2    H     H_    0.563308 0.711288 0.491013 0.170305
H3    H     H_    0.064488 0.786595 0.991871 0.178941
H4    H     H_    0.935454 0.213542 0.008209 0.172580
C13   C     C_R   0.453181 0.006651 0.541901 0.025353
C14   C     C_R   0.546848 0.994095 0.458025 0.034304
C15   C     C_R   0.046286 0.506367 0.957511 0.026152
C16   C     C_R   0.953561 0.493886 0.042412 0.035143
C17   C     C_R   0.489288 0.841048 0.536849 0.018341
C18   C     C_R   0.510935 0.159843 0.463191 0.010068
C19   C     C_R   0.009391 0.342062 0.961898 0.008539
C20   C     C_R   0.990233 0.658309 0.037870 0.006622
C21   C     C_1   0.407189 0.023474 0.587101 0.038078
C22   C     C_1   0.592799 0.977093 0.412826 0.034124
C23   C     C_1   0.092420 0.523450 0.912471 0.047167
C24   C     C_1   0.907530 0.476791 0.087521 0.042667
C25   C     C_1   0.630614 0.964122 0.374741 -0.128217
C26   C     C_1   0.369374 0.036063 0.625210 -0.109009
C27   C     C_1   0.869556 0.463913 0.125450 -0.123620
C28   C     C_1   0.130433 0.536147 0.874567 -0.104767
C29   C     C_R   0.912515 0.957847 0.392066 -0.171250
C30   C     C_R   0.087491 0.042159 0.607910 -0.171329
C31   C     C_R   0.587200 0.462479 0.108681 -0.177640
C32   C     C_R   0.412794 0.537461 0.891328 -0.178391
C33   C     C_R   0.976442 0.160070 0.561759 -0.141192
C34   C     C_R   0.023568 0.839960 0.438203 -0.138434
C35   C     C_R   0.533492 0.530704 0.923669 -0.145245
C36   C     C_R   0.466505 0.469129 0.076349 -0.142489
C37   C     C_R   0.032279 0.153721 0.613757 -0.023732
C38   C     C_R   0.967736 0.846358 0.386197 -0.026787
C39   C     C_R   0.475729 0.550110 0.874148 -0.052589
C40   C     C_R   0.524272 0.449262 0.125824 -0.055705
C41   C     C_R   0.083969 0.930586 0.550390 -0.070652
C42   C     C_R   0.916027 0.069371 0.449594 -0.068794
C43   C     C_R   0.409118 0.502687 0.958433 -0.073523
C44   C     C_R   0.590871 0.497691 0.041603 -0.071368
C45   C     C_R   0.026949 0.940875 0.497349 0.097101
C46   C     C_R   0.973053 0.059107 0.502625 0.096990
C47   C     C_R   0.468551 0.492185 0.008760 0.090522
C48   C     C_R   0.531437 0.508038 0.991270 0.090657
H5    H     H_    0.934584 0.241842 0.569305 0.186686
H6    H     H_    0.065432 0.758224 0.430652 0.187911
H7    H     H_    0.580520 0.534318 0.908295 0.200511
H8    H     H_    0.419490 0.465222 0.091746 0.201614
C49   C     C_2   0.521924 0.332878 0.427304 0.769814
O21   O     O_2   0.476853 0.445644 0.411616 -0.538842
O22   O     O_R   0.584115 0.370437 0.413085 -0.665861
H9    H     H_    0.585362 0.493899 0.389465 0.295615
C50   C     C_2   0.479513 0.668481 0.573484 0.755879
O23   O     O_2   0.425828 0.634926 0.587414 -0.563420
O24   O     O_R   0.531694 0.541281 0.590792 -0.653309
H10   H     H_    0.519305 0.429727 0.615870 0.312739
C51   C     C_2   0.981023 0.829926 0.075335 0.774961
O25   O     O_2   0.025874 0.943587 0.088266 -0.545173
O26   O     O_R   0.920834 0.865107 0.094434 -0.659570
H11   H     H_    0.920835 0.987392 0.118858 0.306211
C52   C     C_2   0.017351 0.170920 0.923694 0.767936
O27   O     O_2   0.068624 0.141649 0.904193 -0.553269
O28   O     O_R   0.966150 0.040252 0.911044 -0.658427
H12   H     H_    0.977177 0.929854 0.884689 0.307762
C53   C     C_2   0.858929 0.192564 0.453666 0.415075
H13   H     H_    0.808748 0.138795 0.441069 0.028273
O29   O     O_2   0.867245 0.357054 0.467341 -0.511915
C54   C     C_2   0.141049 0.807310 0.546334 0.418322
H14   H     H_    0.191240 0.860994 0.558962 0.028962
O30   O     O_2   0.132704 0.642844 0.532632 -0.510756
C55   C     C_2   0.657618 0.526180 0.026119 0.392251
H15   H     H_    0.698636 0.436841 0.048702 0.026991
O31   O     O_2   0.668317 0.656125 0.991543 -0.510329
C56   C     C_2   0.342359 0.474702 0.973944 0.395151
H16   H     H_    0.301440 0.564481 0.951445 0.027637
O32   O     O_2   0.331529 0.344694 0.008427 -0.508094
C57   C     C_2   0.970375 0.741014 0.324664 0.789767
O33   O     O_2   0.999637 0.591928 0.328267 -0.538794
O34   O     O_R   0.941409 0.814493 0.262493 -0.659372
H17   H     H_    0.947832 0.731022 0.224709 0.305968
C58   C     C_2   0.029658 0.259228 0.675256 0.780274
O35   O     O_2   0.000419 0.408358 0.671612 -0.542673
O36   O     O_R   0.058627 0.185875 0.737444 -0.651647
H18   H     H_    0.052290 0.269586 0.775192 0.311087
C59   C     C_2   0.516649 0.416108 0.195357 0.772698
O37   O     O_2   0.468493 0.479001 0.214238 -0.526060
O38   O     O_R   0.562940 0.308339 0.238748 -0.660258
H19   H     H_    0.550549 0.290349 0.283484 0.308857
C60   C     C_2   0.483358 0.581807 0.804517 0.766660
O39   O     O_2   0.531888 0.520094 0.786001 -0.537891
O40   O     O_R   0.436554 0.686532 0.760544 -0.657795
H20   H     H_    0.448762 0.702777 0.715658 0.316930

loop_
_geom_bond_atom_site_label_1
_geom_bond_atom_site_label_2
_ccdc_geom_bond_type
O17   V3    S    
C16   C20   A    
O24   H10   S    
O1    C5    A    
C52   O27   D    
O19   V1    S    
O13   V1    S    
C45   C46   A    
C11   H3    S    
O28   H12   S    
C10   C14   A    
C29   C38   A    
C44   C48   A    
O15   V3    S    
C53   H13   S    
O40   H20   S    
C35   H7    S    
C50   O23   D    
O7    C3    A    
C36   C40   A    
O9    V1    S    
C59   O38   S    
O4    C8    A    
C56   H16   S    
C8    C26   S    
C21   C26   T    
O1    V3    S    
C12   C19   A    
O2    V4    S    
C23   C28   T    
C14   C18   A    
O3    V1    S    
C42   C46   A    
C49   O22   S    
O3    C7    A    
C1    O15   A    
O34   H17   S    
C32   C39   A    
C2    O16   A    
O2    C6    A    
C34   C45   A    
C41   C45   A    
O14   V2    S    
C29   C42   A    
C51   O26   S    
C11   C15   A    
C24   C27   T    
C31   C44   A    
C4    C30   S    
C16   C24   S    
O11   C7    A    
O12   C8    A    
C9    C18   A    
C36   H8    S    
O10   V2    S    
C11   C20   A    
C39   C60   S    
C13   C21   S    
C53   O29   D    
C49   O21   D    
O5    V1    S    
C50   O24   S    
C35   C39   A    
C22   C25   T    
O7    V3    S    
C34   C38   A    
O8    V4    S    
C12   H4    S    
C33   H5    S    
O26   H11   S    
C5    C27   S    
C31   C40   A    
O18   V4    S    
C6    C28   S    
C32   C43   A    
C9    H1    S    
C1    C31   S    
C17   C50   S    
C47   C48   A    
O5    C1    A    
C40   C59   S    
C18   C49   S    
C30   C37   A    
O22   H9    S    
O8    C4    A    
C54   O30   D    
C19   C52   S    
O9    C5    A    
C55   O31   D    
C10   C17   A    
C60   O39   D    
C14   C22   S    
O6    V2    S    
C20   C51   S    
C12   C16   A    
C58   O35   D    
O16   V4    S    
C2    C32   S    
C3    O13   A    
C10   H2    S    
C37   C58   S    
C34   H6    S    
O6    C2    A    
O38   H19   S    
C42   C53   S    
C30   C41   A    
O11   V3    S    
C44   C55   S    
C33   C46   A    
O12   V4    S    
C9    C13   A    
O10   C6    A    
C57   O34   S    
C3    C29   S    
C59   O37   D    
C43   C47   A    
C15   C23   S    
C56   O32   D    
C7    C25   S    
O20   V2    S    
C54   H14   S    
C36   C47   A    
C38   C57   S    
C60   O40   S    
C41   C54   S    
C33   C37   A    
C52   O28   S    
C35   C48   A    
C43   C56   S    
C4    O14   A    
C55   H15   S    
C13   C17   A    
C51   O25   D    
C57   O33   D    
C15   C19   A    
O4    V2    S    
O36   H18   S    
C58   O36   S    
