data_mof_unit_7733.cif
_audit_creation_date              2012-10-26T20:00:11-0400
_audit_creation_method            fapswitch 2.2
_symmetry_space_group_name_H-M    P1
_symmetry_Int_Tables_number       1
_space_group_crystal_system       triclinic
_cell_length_a                    23.463393
_cell_length_b                    10.92453
_cell_length_c                    9.749884
_cell_angle_alpha                 89.897738
_cell_angle_beta                  90.204311
_cell_angle_gamma                 90.471575
_cell_volume                      2499.0496507

loop_
_atom_site_label
_atom_site_type_symbol
_atom_type_description
_atom_site_fract_x
_atom_site_fract_y
_atom_site_fract_z
_atom_type_partial_charge
C1    C     C_R   0.498528 0.265251 0.499768 0.553625
C2    C     C_R   0.119475 0.554227 0.597482 0.446464
C3    C     C_R   0.238583 0.549045 0.395492 0.369210
C4    C     C_R   0.391112 0.498287 0.499922 0.587297
C5    C     C_R   0.297924 0.551760 0.395251 -0.178829
C6    C     C_R   0.328582 0.494302 0.500369 -0.078566
C7    C     C_R   0.299246 0.432387 0.605533 0.325158
C8    C     C_R   0.239259 0.432033 0.608476 0.284877
C9    C     C_R   0.209107 0.489153 0.501356 0.204073
C10   C     C_R   0.756986 0.374765 0.525909 0.319930
C11   C     C_R   0.697152 0.383809 0.527156 -0.181988
C12   C     C_R   0.968827 0.348303 0.305645 -0.060843
C13   C     C_R   0.670687 0.495762 0.500536 0.003485
C14   C     C_R   0.703266 0.601442 0.474019 0.228311
C15   C     C_R   0.762906 0.593680 0.479425 -0.097435
C16   C     C_R   0.499995 0.734474 0.499838 0.580766
C17   C     C_R   0.789668 0.481505 0.504195 0.209688
C18   C     C_2   0.484678 0.931886 0.391798 0.331494
C19   C     C_2   0.503162 0.866595 0.499462 -0.111629
C20   C     C_2   0.492902 0.065189 0.384605 0.257832
C21   C     C_2   0.493055 0.132675 0.500339 -0.122256
C22   C     C_2   0.456293 0.521881 0.923466 0.121253
C23   C     C_R   0.028276 0.348803 0.304212 0.400440
C24   C     C_2   0.454694 0.488129 0.073384 0.450196
C25   C     C_R   0.608639 0.500533 0.500175 0.564430
C26   C     C_R   0.879663 0.539709 0.608490 0.439598
C27   C     C_R   0.879190 0.414810 0.407526 0.444376
C28   C     C_R   0.938945 0.413065 0.406288 -0.025074
C29   C     C_R   0.969321 0.479136 0.507038 -0.097639
C30   C     C_R   0.939617 0.543610 0.609424 0.043967
C31   C     C_3   0.690325 0.768543 0.334428 -0.003605
C32   C     C_3   0.655904 0.884984 0.317433 -0.389928
C33   C     C_3   0.544109 0.085187 0.187085 -0.018062
C34   C     C_R   0.059310 0.415628 0.403491 0.046765
C35   C     C_3   0.552206 0.166313 0.061889 -0.304980
C36   C     C_3   0.379338 0.354913 0.071505 -0.028773
C37   C     C_3   0.326460 0.315779 0.150624 -0.335349
C38   C     C_3   0.554689 0.664002 0.116186 0.037344
C39   C     C_3   0.591470 0.718972 0.003207 -0.376068
C40   C     C_3   0.222228 0.411476 0.840384 0.022121
C41   C     C_3   0.171542 0.388983 0.934273 -0.296871
C42   C     C_3   0.761411 0.165670 0.487144 0.000729
C43   C     C_3   0.805442 0.064475 0.480542 -0.319001
C44   C     C_R   0.029536 0.481461 0.504699 -0.097726
C45   C     C_R   0.059835 0.550435 0.603110 -0.027483
C46   C     C_R   0.030017 0.614311 0.704471 -0.064655
C47   C     C_R   0.970651 0.610606 0.708560 0.403431
C48   C     C_R   0.119312 0.418811 0.405315 0.493957
Cu1   Cu    Cu3+1 0.500010 0.500020 0.638630 1.094687
Cu2   Cu    Cu3+1 0.499990 0.499980 0.361370 1.088161
F1    F     F_    0.459276 0.875916 0.282553 -0.616528
F2    F     F_    0.533488 0.409719 0.892569 -0.537168
F3    F     F_    0.054911 0.284652 0.204348 -0.574547
F4    F     F_    0.944082 0.674076 0.809061 -0.560915
F5    F     F_    0.209557 0.605737 0.293229 -0.586642
F6    F     F_    0.328817 0.367377 0.700452 -0.644977
H1    H     H_    0.946284 0.296780 0.227325 0.194376
H2    H     H_    0.736126 0.794802 0.330255 0.134442
H3    H     H_    0.667165 0.951090 0.399784 0.146786
H4    H     H_    0.665267 0.927544 0.216400 0.097995
H5    H     H_    0.609655 0.863866 0.323319 0.140542
H6    H     H_    0.540289 0.988629 0.151993 0.166366
H7    H     H_    0.582707 0.095868 0.253261 0.098268
H8    H     H_    0.558486 0.262682 0.094943 0.233095
H9    H     H_    0.590327 0.136757 0.003879 0.108523
H10   H     H_    0.514190 0.160087 0.993947 0.186752
H11   H     H_    0.410439 0.278262 0.075482 0.177659
H12   H     H_    0.670919 0.304461 0.550155 0.102940
H13   H     H_    0.366580 0.372077 0.963243 0.173964
H14   H     H_    0.294013 0.389152 0.146380 0.168268
H15   H     H_    0.308061 0.231275 0.104665 0.142827
H16   H     H_    0.337721 0.297234 0.259413 0.187528
H17   H     H_    0.576918 0.679320 0.214928 0.176163
H18   H     H_    0.513150 0.712839 0.115551 0.170067
H19   H     H_    0.570100 0.707560 0.902178 0.184621
H20   H     H_    0.598314 0.818158 0.022507 0.080182
H21   H     H_    0.633501 0.673020 0.000677 0.180223
H22   H     H_    0.232194 0.511574 0.842060 0.169308
H23   H     H_    0.788975 0.675131 0.467316 0.136102
H24   H     H_    0.259018 0.360453 0.882858 0.188542
H25   H     H_    0.161585 0.289524 0.939532 0.204589
H26   H     H_    0.181682 0.422522 0.039086 0.183655
H27   H     H_    0.133631 0.438352 0.894996 0.194609
H28   H     H_    0.749036 0.189515 0.379800 0.147122
H29   H     H_    0.723661 0.129561 0.543181 0.123978
H30   H     H_    0.817910 0.036039 0.585805 0.187820
H31   H     H_    0.787306 0.984109 0.425636 0.096154
H32   H     H_    0.843871 0.097412 0.424931 0.194122
H33   H     H_    0.523467 0.909442 0.587394 0.035836
H34   H     H_    0.487264 0.090393 0.600109 0.066647
H35   H     H_    0.418961 0.563739 0.878019 0.085993
H36   H     H_    0.052551 0.667315 0.781564 0.198249
H37   H     H_    0.319963 0.599426 0.313319 0.206206
H38   H     H_    0.680183 0.706009 0.247438 0.139299
N1    N     N_R   0.850871 0.477171 0.507778 -0.382134
N2    N     N_R   0.147896 0.487541 0.501131 -0.352530
N3    N     N_2   0.499380 0.498660 0.846910 0.026096
N4    N     N_2   0.499370 0.498630 0.153040 -0.020399
O1    O     O_R   0.500010 0.321960 0.617040 -0.463895
O2    O     O_R   0.582130 0.500060 0.617050 -0.455226
O3    O     O_R   0.582110 0.500020 0.382900 -0.505328
O4    O     O_2   0.850159 0.597815 0.707085 -0.391974
O5    O     O_3   0.676255 0.713378 0.461143 -0.555804
O6    O     O_3   0.494330 0.121160 0.256757 -0.501133
O7    O     O_3   0.402330 0.462034 0.131503 -0.571840
O8    O     O_3   0.548290 0.537229 0.093452 -0.439323
O9    O     O_3   0.208881 0.367687 0.707436 -0.516167
O10   O     O_3   0.785110 0.266869 0.558139 -0.515073
O11   O     O_2   0.849576 0.356178 0.308185 -0.485137
O12   O     O_2   0.149023 0.353463 0.313047 -0.401718
O13   O     O_2   0.148927 0.624711 0.686966 -0.488548
O14   O     O_R   0.499990 0.321920 0.382900 -0.454411
O15   O     O_R   0.417890 0.499980 0.617100 -0.476788
O16   O     O_R   0.417870 0.499940 0.382950 -0.461564
O17   O     O_R   0.500010 0.678080 0.617100 -0.532418
O18   O     O_R   0.499990 0.678040 0.382960 -0.480635

loop_
_geom_bond_atom_site_label_1
_geom_bond_atom_site_label_2
_ccdc_geom_bond_type
Cu1   O15   S    
C16   O17   A    
C1    C21   S    
C33   O6    S    
C27   N1    A    
C1    O1    A    
C36   H11   S    
C7    C8    A    
C45   C46   A    
C44   C45   A    
C12   C23   A    
C12   C28   A    
C3    C9    A    
C43   H32   S    
C39   H21   S    
C31   H2    S    
C4    O16   A    
C36   C37   S    
C32   H5    S    
C1    O14   A    
C38   C39   S    
C46   H36   S    
C35   H9    S    
C10   C17   A    
C41   H27   S    
F2    N3    S    
C18   C19   D    
C40   O9    S    
C10   O10   S    
C15   H23   S    
C33   H6    S    
C22   H35   S    
C40   H24   S    
C35   H8    S    
C17   N1    S    
C39   H19   S    
C18   C20   S    
C22   N3    D    
C37   H14   S    
C13   C25   S    
C3    F5    S    
C7    F6    S    
C16   O18   A    
C18   F1    S    
C23   F3    S    
C21   H34   S    
C2    C45   A    
C2    O13   S    
Cu2   N4    S    
C30   C47   A    
C42   H28   S    
C4    C6    S    
C8    C9    A    
C35   H10   S    
Cu2   O16   S    
C31   O5    S    
C38   O8    S    
C29   C30   A    
C19   H33   S    
Cu1   O1    S    
C4    O15   A    
C25   O2    A    
C31   C32   S    
C33   H7    S    
C23   C34   A    
C41   H25   S    
Cu2   O14   S    
C34   C44   A    
C42   H29   S    
C39   H20   S    
C9    N2    S    
C47   F4    S    
C12   H1    S    
C24   N4    D    
C40   H22   S    
C40   C41   S    
Cu1   O17   S    
C26   C30   A    
C37   H15   S    
C29   C44   A    
C22   C24   S    
C34   C48   A    
C42   C43   S    
C32   H4    S    
C8    O9    S    
C11   H12   S    
C38   H18   S    
C26   N1    A    
C15   C17   A    
C46   C47   A    
C28   C29   A    
C48   N2    A    
C36   O7    S    
C43   H30   S    
C3    C5    A    
C5    H37   S    
C6    C7    A    
C20   O6    S    
C31   H38   S    
N4    O8    S    
C43   H31   S    
C2    N2    A    
C26   O4    S    
Cu1   O2    S    
C11   C13   A    
C25   O3    A    
C14   O5    S    
C5    C6    A    
C16   C19   S    
C41   H26   S    
C33   C35   S    
Cu2   O18   S    
C36   H13   S    
C10   C11   A    
Cu1   N3    S    
C20   C21   D    
C27   O11   S    
Cu2   O3    S    
Cu1   Cu2   S    
C37   H16   S    
C27   C28   A    
C14   C15   A    
C24   O7    S    
C32   H3    S    
C48   O12   S    
C13   C14   A    
C42   O10   S    
C38   H17   S    
