data_mof_unit_43032.cif
_audit_creation_date              2012-12-10T21:11:33-0500
_audit_creation_method            fapswitch 2.2
_symmetry_space_group_name_H-M    P1
_symmetry_Int_Tables_number       1
_space_group_crystal_system       triclinic
_cell_length_a                    17.426665
_cell_length_b                    16.762495
_cell_length_c                    10.663605
_cell_angle_alpha                 90.017847
_cell_angle_beta                  90.118165
_cell_angle_gamma                 90.016129
_cell_volume                      3114.985516

loop_
_atom_site_label
_atom_site_type_symbol
_atom_type_description
_atom_site_fract_x
_atom_site_fract_y
_atom_site_fract_z
_atom_type_partial_charge
C1    C     C_R   0.352844 0.499992 0.497383 0.835071
C2    C     C_R   0.647166 0.500008 0.497780 0.834279
C3    C     C_R   0.885262 0.500250 0.423686 0.163728
C4    C     C_R   0.114643 0.499781 0.422465 0.165160
C5    C     C_1   0.965818 0.500101 0.411038 -0.073609
C6    C     C_1   0.034011 0.499951 0.410636 -0.073829
C7    C     C_R   0.448553 0.832148 0.422863 0.006004
C8    C     C_R   0.550675 0.167719 0.578306 -0.005153
C9    C     C_R   0.550714 0.832375 0.577735 0.002221
C10   C     C_R   0.449847 0.167762 0.421658 -0.004163
C11   C     C_R   0.450174 0.747652 0.424586 -0.039091
C12   C     C_R   0.549166 0.252268 0.576542 -0.033941
C13   C     C_R   0.549659 0.747874 0.575478 -0.035611
C14   C     C_R   0.450946 0.252099 0.423486 -0.053964
C15   C     C_R   0.499618 0.875460 0.500217 0.106131
C16   C     C_R   0.500170 0.124489 0.499846 0.122214
C17   C     C_1   0.499763 0.963471 0.499823 0.008898
C18   C     C_1   0.499894 0.036501 0.499759 0.025298
C19   C     C_R   0.500021 0.499993 0.260396 0.885640
C20   C     C_R   0.499980 0.500007 0.739616 0.889344
C21   C     C_R   0.360689 0.529188 0.130049 -0.159076
C22   C     C_R   0.639385 0.470987 0.870074 -0.161662
C23   C     C_R   0.360561 0.528926 0.869311 -0.147187
C24   C     C_R   0.639382 0.470971 0.130811 -0.144366
C25   C     C_R   0.292675 0.543099 0.064731 -0.140297
C26   C     C_R   0.707371 0.457037 0.935545 -0.146967
C27   C     C_R   0.292609 0.542956 0.934401 -0.143326
C28   C     C_R   0.707375 0.457051 0.065874 -0.136125
C29   C     C_R   0.430360 0.514899 0.934378 0.072513
C30   C     C_R   0.569628 0.485074 0.065678 0.070005
C31   C     C_R   0.430400 0.514964 0.065295 0.068502
C32   C     C_R   0.569621 0.485090 0.934762 0.071109
C33   C     C_R   0.499985 0.500007 0.871703 -0.195017
C34   C     C_R   0.500017 0.499995 0.128330 -0.193225
C35   C     C_R   0.847268 0.572586 0.441162 -0.166730
C36   C     C_R   0.152699 0.427430 0.439621 -0.168213
C37   C     C_R   0.153467 0.572245 0.432468 -0.175504
C38   C     C_R   0.846490 0.427777 0.433715 -0.175587
C39   C     C_R   0.769489 0.572577 0.468572 -0.196822
C40   C     C_R   0.230543 0.427423 0.467060 -0.200507
C41   C     C_R   0.231297 0.572475 0.459973 -0.218705
C42   C     C_R   0.768726 0.427531 0.461195 -0.217607
C43   C     C_R   0.729815 0.499989 0.478882 -0.044173
C44   C     C_R   0.270209 0.500010 0.477805 -0.041237
H1    H     H_    0.760175 0.446444 0.116901 0.144078
H2    H     H_    0.239774 0.553555 0.883511 0.139075
H3    H     H_    0.760182 0.446398 0.884950 0.138427
H4    H     H_    0.239911 0.553807 0.115461 0.143675
H5    H     H_    0.357936 0.529490 0.231271 0.130085
H6    H     H_    0.642219 0.470855 0.768794 0.126420
H7    H     H_    0.357678 0.528939 0.768020 0.130567
H8    H     H_    0.642181 0.470786 0.232041 0.134075
H9    H     H_    0.877990 0.628704 0.435647 0.133181
H10   H     H_    0.121958 0.371317 0.434031 0.131618
H11   H     H_    0.123338 0.628360 0.421275 0.132937
H12   H     H_    0.876591 0.371670 0.422366 0.133508
H13   H     H_    0.740513 0.629169 0.481139 0.158181
H14   H     H_    0.259549 0.370821 0.479469 0.154799
H15   H     H_    0.260909 0.629145 0.466637 0.155429
H16   H     H_    0.739138 0.370857 0.467784 0.158512
H17   H     H_    0.411348 0.713936 0.365549 0.130842
H18   H     H_    0.587542 0.285930 0.636427 0.132003
H19   H     H_    0.588610 0.714341 0.634465 0.132535
H20   H     H_    0.412296 0.285218 0.363372 0.135587
N1    N     N_R   0.500000 0.707230 0.500000 -0.104070
N2    N     N_R   0.500000 0.292770 0.500000 -0.101138
O1    O     O_R   0.389110 0.566570 0.499990 -0.628172
O2    O     O_R   0.610890 0.433430 0.500010 -0.628229
O3    O     O_R   0.610890 0.566570 0.500010 -0.618605
O4    O     O_R   0.389110 0.433430 0.499990 -0.618504
O5    O     O_R   0.499990 0.566540 0.316770 -0.613402
O6    O     O_R   0.500010 0.433460 0.683230 -0.613172
O7    O     O_R   0.500010 0.566540 0.683230 -0.615334
O8    O     O_R   0.499990 0.433460 0.316770 -0.616176
Zn1   Zn    Zn3+2 0.500000 0.588860 0.500000 0.940980
Zn2   Zn    Zn3+2 0.500000 0.411140 0.500000 0.940230
N3    N     N_3   0.395912 0.873906 0.342445 -0.444478
H21   H     H_    0.364820 0.833483 0.287565 0.174686
H22   H     H_    0.356114 0.902870 0.399843 0.188125
N4    N     N_3   0.602606 0.125871 0.659822 -0.453851
H23   H     H_    0.633360 0.166250 0.715284 0.177231
H24   H     H_    0.642778 0.096789 0.603271 0.191278
N5    N     N_3   0.603687 0.874377 0.657336 -0.454643
H25   H     H_    0.639569 0.834112 0.704005 0.176258
H26   H     H_    0.571635 0.903403 0.726425 0.195727
N6    N     N_3   0.397680 0.126447 0.340565 -0.454822
H27   H     H_    0.341990 0.144560 0.363159 0.179687
H28   H     H_    0.408730 0.144527 0.248527 0.190440

loop_
_geom_bond_atom_site_label_1
_geom_bond_atom_site_label_2
_ccdc_geom_bond_type
C24   H8    S    
C30   C32   A    
C4    C36   A    
C35   H9    S    
C19   O5    A    
O6    Zn2   S    
C21   H5    S    
C13   N1    A    
N3    H21   S    
C7    C11   A    
C21   C31   A    
C22   C32   A    
C23   C29   A    
C38   C42   A    
C2    O2    A    
C5    C6    T    
N6    H28   S    
C39   H13   S    
C29   C33   A    
C9    C13   A    
C3    C38   A    
C23   C27   A    
C2    O3    A    
C7    N3    S    
C7    C15   A    
C14   H20   S    
C8    C16   A    
O7    Zn1   S    
N3    H22   S    
C28   H1    S    
C40   H14   S    
C30   C34   A    
C36   C40   A    
C41   H15   S    
N4    H24   S    
C10   C14   A    
C42   H16   S    
N6    H27   S    
C39   C43   A    
C3    C5    S    
C12   N2    A    
C35   C39   A    
C12   H18   S    
C1    C44   S    
C23   H7    S    
N5    H25   S    
C13   H19   S    
C3    C35   A    
C2    C43   S    
C8    C12   A    
N2    Zn2   S    
C17   C18   T    
C14   N2    A    
C31   C34   A    
C25   H4    S    
O8    Zn2   S    
C26   H3    S    
C9    N5    S    
C20   C33   S    
C27   H2    S    
C4    C6    S    
N5    H26   S    
O4    Zn2   S    
C25   C27   A    
C41   C44   A    
O1    Zn1   S    
C42   C43   A    
C15   C17   S    
C21   C25   A    
C10   N6    S    
C19   O8    A    
C24   C28   A    
N4    H23   S    
C11   H17   S    
C19   C34   S    
O2    Zn2   S    
C26   C28   A    
C1    O4    A    
N1    Zn1   S    
C22   H6    S    
C32   C33   A    
C9    C15   A    
C29   C31   A    
C10   C16   A    
O5    Zn1   S    
C1    O1    A    
C20   O7    A    
O3    Zn1   S    
C37   C41   A    
C24   C30   A    
C36   H10   S    
C37   H11   S    
C40   C44   A    
C38   H12   S    
C4    C37   A    
C16   C18   S    
C22   C26   A    
C8    N4    S    
C20   O6    A    
C11   N1    A    
