data_mof_unit_56420.cif
_audit_creation_date              2012-10-26T19:52:41-0400
_audit_creation_method            fapswitch 2.2
_symmetry_space_group_name_H-M    P1
_symmetry_Int_Tables_number       1
_space_group_crystal_system       triclinic
_cell_length_a                    15.002225
_cell_length_b                    10.804471
_cell_length_c                    9.668257
_cell_angle_alpha                 89.160319
_cell_angle_beta                  89.525753
_cell_angle_gamma                 91.536907
_cell_volume                      1566.34753317

loop_
_atom_site_label
_atom_site_type_symbol
_atom_type_description
_atom_site_fract_x
_atom_site_fract_y
_atom_site_fract_z
_atom_type_partial_charge
C1    C     C_R   0.496133 0.262363 0.500663 0.544762
C2    C     C_R   0.182141 0.386810 0.490318 0.265278
C3    C     C_R   0.232079 0.498104 0.500124 0.003983
C4    C     C_R   0.329038 0.498112 0.500256 0.576085
C5    C     C_R   0.189593 0.611141 0.506024 -0.177641
C6    C     C_R   0.419938 0.056401 0.543839 0.019055
C7    C     C_R   0.494658 0.127894 0.498225 -0.015132
C8    C     C_R   0.562685 0.069130 0.424878 -0.182711
C9    C     C_R   0.563821 0.939954 0.419934 -0.169643
C10   C     C_R   0.497768 0.869640 0.490702 0.007390
C11   C     C_R   0.423991 0.928266 0.542925 -0.002355
C12   C     C_R   0.907739 0.618190 0.500636 -0.004877
C13   C     C_3   0.379627 0.908642 0.678855 -0.273114
C14   C     C_3   0.374811 0.048423 0.683132 -0.132209
C15   C     C_R   0.563744 0.564912 0.071246 0.078703
C16   C     C_R   0.501343 0.736929 0.498266 0.535671
C17   C     C_R   0.448397 0.418019 0.074993 0.353265
C18   C     C_R   0.441337 0.428746 0.928331 0.065498
C19   C     C_R   0.565111 0.563241 0.925125 0.196126
C20   C     C_3   0.588256 0.698993 0.918305 0.142829
C21   C     C_3   0.586658 0.698909 0.076619 -0.253373
C22   C     C_R   0.670531 0.501567 0.499673 0.538136
C23   C     C_R   0.946358 0.278554 0.520482 -0.150051
C24   C     C_R   0.814058 0.615508 0.496678 -0.113548
C25   C     C_R   0.766539 0.502755 0.499995 0.010583
C26   C     C_R   0.810030 0.391049 0.509569 -0.124577
C27   C     C_R   0.902671 0.390841 0.512613 0.019872
C28   C     C_R   0.952150 0.504343 0.507188 0.046457
C29   C     C_1   0.281578 0.086170 0.686329 0.287460
C30   C     C_3   0.459116 0.215710 0.143952 0.013880
C31   C     C_3   0.451534 0.137313 0.015618 -0.309986
C32   C     C_3   0.494633 0.012472 0.039184 -0.491577
C33   C     C_1   0.365742 0.370846 0.863769 0.257078
C34   C     C_R   0.038786 0.277209 0.516963 -0.109095
C35   C     C_3   0.700735 0.845706 0.866951 0.001317
C36   C     C_3   0.672710 0.916023 0.736435 -0.254464
C37   C     C_3   0.707336 0.050169 0.737616 -0.462025
C38   C     C_3   0.240715 0.259980 0.326838 0.027744
C39   C     C_3   0.159977 0.203575 0.251646 -0.296576
C40   C     C_3   0.184975 0.165173 0.105504 -0.447292
C41   C     C_1   0.102694 0.845324 0.490564 0.189004
C42   C     C_1   0.913153 0.848522 0.490353 0.186003
C43   C     C_R   0.089215 0.388367 0.505675 0.032567
C44   C     C_R   0.045819 0.503078 0.506559 -0.001689
C45   C     C_R   0.096028 0.615704 0.503802 -0.023125
C46   C     C_R   0.051774 0.729598 0.498799 -0.010227
C47   C     C_R   0.957780 0.730988 0.496932 -0.016643
Cu1   Cu    Cu3+1 0.500000 0.499980 0.640670 0.984126
Cu2   Cu    Cu3+1 0.500000 0.500020 0.359330 0.970789
H1    H     H_    0.777113 0.700233 0.491201 0.112937
H2    H     H_    0.908902 0.191567 0.527347 0.149254
H3    H     H_    0.070484 0.188567 0.522084 0.195678
H4    H     H_    0.230536 0.695192 0.509285 0.122902
H5    H     H_    0.616729 0.122992 0.376613 0.117397
H6    H     H_    0.436532 0.156070 0.232234 0.168964
H7    H     H_    0.531157 0.240226 0.159242 0.153286
H8    H     H_    0.380152 0.122191 0.989760 0.174884
H9    H     H_    0.487718 0.186451 0.929669 0.152035
H10   H     H_    0.564272 0.025757 0.075356 0.143173
H11   H     H_    0.496142 0.961145 0.941165 0.131591
H12   H     H_    0.618762 0.895450 0.369067 0.117925
H13   H     H_    0.455921 0.956670 0.117446 0.159292
H14   H     H_    0.774649 0.850486 0.873263 0.166266
H15   H     H_    0.675348 0.892244 0.960922 0.108651
H16   H     H_    0.699300 0.869625 0.643550 0.186998
H17   H     H_    0.598931 0.915817 0.730377 0.158294
H18   H     H_    0.678970 0.099099 0.827448 0.146718
H19   H     H_    0.687257 0.098751 0.641421 0.158993
H20   H     H_    0.781272 0.053816 0.743349 0.164399
H21   H     H_    0.296287 0.194928 0.319008 0.186123
H22   H     H_    0.262107 0.347646 0.273013 0.186219
H23   H     H_    0.314665 0.857489 0.668584 0.146568
H24   H     H_    0.133680 0.120890 0.309164 0.205945
H25   H     H_    0.106584 0.272586 0.244605 0.156812
H26   H     H_    0.212588 0.246094 0.045770 0.192547
H27   H     H_    0.124745 0.128739 0.052019 0.164449
H28   H     H_    0.235090 0.091375 0.109213 0.153891
H29   H     H_    0.424341 0.869440 0.757781 0.117506
H30   H     H_    0.416377 0.091982 0.762185 0.113810
H31   H     H_    0.535335 0.753666 0.868816 0.108461
H32   H     H_    0.652868 0.716039 0.124551 0.144616
H33   H     H_    0.771507 0.304556 0.513933 0.097312
H34   H     H_    0.531612 0.753372 0.120050 0.113522
N1    N     N_R   0.500570 0.500930 0.147930 -0.243555
N2    N     N_R   0.500570 0.500890 0.852020 -0.306715
N3    N     N_1   0.207657 0.113561 0.692892 -0.226053
N4    N     N_1   0.303185 0.326417 0.813957 -0.290949
N5    N     N_1   0.143845 0.937172 0.483364 -0.315993
N6    N     N_1   0.877392 0.942018 0.484995 -0.355839
O1    O     O_R   0.500000 0.319640 0.618810 -0.504583
O2    O     O_3   0.674579 0.718970 0.860911 -0.546641
O3    O     O_3   0.223880 0.275888 0.469739 -0.565394
O4    O     O_R   0.500010 0.319680 0.381230 -0.497063
O5    O     O_R   0.370250 0.499950 0.618800 -0.484284
O6    O     O_R   0.370260 0.499990 0.381220 -0.486438
O7    O     O_R   0.499990 0.680320 0.618770 -0.509621
O8    O     O_R   0.500000 0.680360 0.381190 -0.511518
O9    O     O_R   0.629740 0.500010 0.618780 -0.466936
O10   O     O_R   0.629750 0.500050 0.381200 -0.508131
O11   O     O_3   0.403837 0.320777 0.141749 -0.589434

loop_
_geom_bond_atom_site_label_1
_geom_bond_atom_site_label_2
_ccdc_geom_bond_type
C38   H21   S    
C1    O1    A    
C22   O9    A    
C37   H20   S    
C35   C36   S    
C7    C8    A    
C45   C46   A    
C15   C19   A    
C26   C27   A    
Cu1   O5    S    
C12   C28   A    
C9    H12   S    
Cu2   N1    S    
C5    H4    S    
C36   C37   S    
C30   C31   S    
C36   H17   S    
C16   O8    A    
Cu2   O10   S    
C37   H19   S    
C30   O11   S    
C39   H25   S    
C38   H22   S    
C21   H34   S    
C8    C9    A    
C22   C25   S    
C41   C46   S    
C35   H15   S    
C23   C27   A    
C9    C10   A    
C26   H33   S    
Cu1   O1    S    
C13   C14   S    
C12   C47   A    
C18   C33   S    
C24   H1    S    
C20   O2    S    
C16   O7    A    
C18   N2    A    
C20   H31   S    
C24   C25   A    
C8    H5    S    
C39   C40   S    
C36   H16   S    
C3    C5    A    
C25   C26   A    
C5    C45   A    
C28   C44   A    
C40   H27   S    
C43   C44   A    
C6    C14   S    
C4    O6    A    
C23   H2    S    
C31   C32   S    
C2    C43   A    
C23   C34   A    
C17   C18   A    
C14   H30   S    
Cu2   O6    S    
C2    O3    S    
C29   N3    T    
C6    C7    A    
C4    O5    A    
Cu1   Cu2   S    
C21   H32   S    
C32   H11   S    
C14   C29   S    
C3    C4    S    
C6    C11   A    
C44   C45   A    
C31   H9    S    
C41   N5    T    
C46   C47   A    
C22   O10   A    
Cu1   O7    S    
C1    C7    S    
C34   C43   A    
C19   N2    A    
C15   N1    A    
C13   H23   S    
Cu1   O9    S    
C30   H6    S    
C12   C24   A    
C34   H3    S    
C40   H26   S    
C17   N1    A    
C42   N6    T    
C19   C20   S    
C2    C3    A    
C33   N4    T    
C32   H13   S    
C10   C16   S    
C11   C13   S    
C40   H28   S    
C31   H8    S    
C38   C39   S    
C30   H7    S    
C37   H18   S    
C42   C47   S    
C39   H24   S    
C17   O11   S    
C10   C11   A    
C13   H29   S    
Cu2   O8    S    
C15   C21   S    
C20   C21   S    
C1    O4    A    
C27   C28   A    
Cu1   N2    S    
C35   H14   S    
C32   H10   S    
Cu2   O4    S    
C38   O3    S    
C35   O2    S    
