data_mof_unit_6512.cif
_audit_creation_date              2012-12-11T18:13:34-0500
_audit_creation_method            fapswitch 2.2
_symmetry_space_group_name_H-M    P1
_symmetry_Int_Tables_number       1
_space_group_crystal_system       triclinic
_cell_length_a                    8.205454
_cell_length_b                    12.814625
_cell_length_c                    18.671041
_cell_angle_alpha                 99.45016
_cell_angle_beta                  91.006002
_cell_angle_gamma                 98.452478
_cell_volume                      1913.82802521

loop_
_atom_site_label
_atom_site_type_symbol
_atom_type_description
_atom_site_fract_x
_atom_site_fract_y
_atom_site_fract_z
_atom_type_partial_charge
Ba1   Ba    Ba6+2 0.852780 0.548340 0.465070 1.651021
Ba2   Ba    Ba6+2 0.337060 0.451750 0.534940 1.662681
C1    C     C_3   0.530096 0.866733 0.228524 -0.414663
C2    C     C_3   0.587617 0.804885 0.284483 0.340554
C3    C     C_3   0.456519 0.276981 0.313389 0.295503
C4    C     C_3   0.429786 0.239932 0.231710 -0.426788
C5    C     C_3   0.069496 0.251569 0.734939 0.412354
C6    C     C_3   0.070166 0.228422 0.812393 -0.378394
C7    C     C_3   0.565594 0.198008 0.750693 0.310825
C8    C     C_3   0.505083 0.117922 0.799813 -0.372342
C9    C     C_R   0.992736 0.453554 0.048643 0.002557
C10   C     C_R   0.889755 0.403529 0.096408 0.043107
C11   C     C_R   0.725346 0.361575 0.074549 -0.085894
C12   C     C_3   0.101622 0.753583 0.265967 0.348200
C13   C     C_R   0.664241 0.367725 0.005368 -0.094688
C14   C     C_R   0.767035 0.414842 0.956504 0.033969
C15   C     C_R   0.931493 0.458755 0.978195 0.013814
C16   C     C_R   0.708434 0.416195 0.885910 -0.114714
C17   C     C_R   0.813565 0.456557 0.834655 -0.038492
C18   C     C_R   0.976235 0.506610 0.857373 -0.004862
C19   C     C_R   0.034471 0.507363 0.929500 -0.009197
C20   C     C_R   0.762565 0.445780 0.760854 -0.018150
C21   C     C_R   0.872027 0.484267 0.711284 -0.288618
C22   C     C_R   0.026829 0.543081 0.733717 0.046725
C23   C     C_3   0.073329 0.775593 0.189415 -0.375517
C24   C     C_R   0.081074 0.554830 0.808092 -0.051725
C25   C     C_R   0.156641 0.497569 0.071097 -0.011709
C26   C     C_R   0.216635 0.494073 0.142422 0.003416
C27   C     C_R   0.111369 0.445390 0.191453 -0.049456
C28   C     C_R   0.950799 0.397313 0.165774 -0.049105
C29   C     C_R   0.237589 0.610476 0.834749 -0.044850
C30   C     C_R   0.298855 0.605492 0.904749 0.033079
C31   C     C_R   0.197390 0.553317 0.952262 0.006091
C32   C     C_R   0.258960 0.547593 0.022739 0.014450
C33   C     C_R   0.461922 0.649954 0.927521 -0.081633
C34   C     C_3   0.240080 0.787351 0.623082 0.294711
C35   C     C_R   0.523934 0.642231 0.996440 -0.091709
C36   C     C_R   0.423065 0.591860 0.044638 0.031074
C37   C     C_R   0.380751 0.540892 0.164768 -0.042470
C38   C     C_R   0.483517 0.586554 0.114516 -0.113710
C39   C     C_R   0.435171 0.543444 0.237428 0.005664
C40   C     C_R   0.328123 0.500965 0.286280 -0.282330
C41   C     C_R   0.169063 0.449326 0.264739 -0.002181
C42   C     C_R   0.777161 0.179752 0.519285 -0.259127
C43   C     C_R   0.430071 0.811536 0.473603 -0.299712
C44   C     C_R   0.402956 0.985698 0.447152 -0.092742
C45   C     C_3   0.297996 0.906431 0.646868 -0.405608
C46   C     C_R   0.338351 0.878397 0.444726 0.000770
C47   C     C_R   0.577641 0.852126 0.513504 0.076882
C48   C     C_R   0.642477 0.964122 0.521168 -0.050474
C49   C     C_R   0.555769 0.029952 0.483920 -0.087328
C50   C     C_R   0.623039 0.138825 0.485273 0.052433
C51   C     C_R   0.862964 0.117940 0.556520 -0.028587
C52   C     C_R   0.790800 0.013333 0.562558 0.131947
C53   C     C_3   0.888838 0.196646 0.286397 0.494904
C54   C     C_3   0.966430 0.149785 0.216532 -0.428348
C55   C     C_3   0.727795 0.696498 0.680479 0.322503
C56   C     C_3   0.751571 0.731602 0.762427 -0.418714
H1    H     H_    0.655577 0.861343 0.329994 0.038224
H2    H     H_    0.411228 0.917805 0.681855 0.107740
H3    H     H_    0.323088 0.946792 0.599265 0.091511
H4    H     H_    0.203558 0.943860 0.679362 0.140246
H5    H     H_    0.795994 0.244845 0.272384 0.023084
H6    H     H_    0.041851 0.213875 0.193214 0.073309
H7    H     H_    0.868189 0.107929 0.175794 0.078673
H8    H     H_    0.048450 0.092169 0.227437 0.126372
H9    H     H_    0.843869 0.674414 0.658034 0.010390
H10   H     H_    0.628186 0.626697 0.669181 0.076425
H11   H     H_    0.450828 0.924348 0.254198 0.100732
H12   H     H_    0.864175 0.792045 0.775387 0.113760
H13   H     H_    0.764319 0.662824 0.789794 0.068024
H14   H     H_    0.643204 0.767225 0.784072 0.119314
H15   H     H_    0.477341 0.764135 0.307871 -0.050547
H16   H     H_    0.458590 0.810246 0.183575 0.114472
H17   H     H_    0.340568 0.300488 0.335625 0.040639
H18   H     H_    0.556573 0.346843 0.323261 0.049277
H19   H     H_    0.331863 0.169224 0.220464 0.129271
H20   H     H_    0.392910 0.304681 0.205217 0.064187
H21   H     H_    0.544667 0.217043 0.207662 0.099395
H22   H     H_    0.637996 0.910811 0.205555 0.114542
H23   H     H_    0.066909 0.700340 0.149685 0.082191
H24   H     H_    0.160359 0.324121 0.732795 0.104263
H25   H     H_    0.944836 0.267895 0.720618 -0.120816
H26   H     H_    0.194570 0.215061 0.829320 0.144710
H27   H     H_    0.035972 0.296929 0.850216 0.075591
H28   H     H_    0.980085 0.156285 0.816466 0.095416
H29   H     H_    0.691643 0.235822 0.771216 -0.034129
H30   H     H_    0.569179 0.155727 0.693909 0.018643
H31   H     H_    0.495617 0.160713 0.856016 0.109123
H32   H     H_    0.592557 0.060111 0.801484 0.060527
H33   H     H_    0.998362 0.694045 0.277349 0.129956
H34   H     H_    0.381770 0.073879 0.779849 0.135382
H35   H     H_    0.643646 0.324251 0.111077 0.060530
H36   H     H_    0.537004 0.334382 0.989766 0.068393
H37   H     H_    0.831531 0.474310 0.654784 0.065314
H38   H     H_    0.581499 0.382476 0.871186 0.101975
H39   H     H_    0.868048 0.357239 0.199617 0.067695
H40   H     H_    0.316503 0.654718 0.800859 0.104909
H41   H     H_    0.542475 0.689525 0.891658 0.063544
H42   H     H_    0.650727 0.676450 0.012253 0.070858
H43   H     H_    0.610734 0.619817 0.129245 0.111409
H44   H     H_    0.217528 0.719514 0.268418 -0.045684
H45   H     H_    0.370815 0.506578 0.342150 0.064196
H46   H     H_    0.331316 0.033371 0.420346 0.103405
H47   H     H_    0.831396 0.261211 0.516595 0.082740
H48   H     H_    0.380922 0.727363 0.468324 0.064268
H49   H     H_    0.955951 0.807955 0.185171 0.148594
H50   H     H_    0.175322 0.835072 0.175799 0.105621
H51   H     H_    0.344179 0.749146 0.600122 0.013006
H52   H     H_    0.138080 0.775698 0.581509 0.065883
O1    O     O_2   0.873090 0.425890 0.325140 -0.490340
O2    O     O_3   0.685002 0.782454 0.650995 -0.628102
O3    O     O_3   0.108792 0.849166 0.315707 -0.625691
O4    O     O_2   0.316610 0.574140 0.674900 -0.464878
O5    O     O_3   0.067290 0.565720 0.585630 -0.497739
O6    O     O_3   0.530210 0.372990 0.631200 -0.462226
O7    O     O_3   0.186152 0.744949 0.684169 -0.641268
O8    O     O_3   0.611340 0.366290 0.463630 -0.477481
O9    O     O_3   0.108550 0.314140 0.595200 -0.477349
O10   O     O_2   0.207067 0.126834 0.555423 -0.472376
O11   O     O_3   0.111840 0.163130 0.687678 -0.596917
O12   O     O_3   0.122420 0.434370 0.414380 -0.449903
O13   O     O_3   0.578370 0.633800 0.536380 -0.495247
O14   O     O_2   0.341510 0.231850 0.465510 -0.444279
O15   O     O_3   0.499450 0.192266 0.344733 -0.645590
O16   O     O_2   0.437715 0.470583 0.755382 -0.492613
O17   O     O_3   0.455252 0.272179 0.753459 -0.583478
O18   O     O_3   0.659500 0.627100 0.368810 -0.470693
O19   O     O_2   0.776976 0.546800 0.243609 -0.505496
O20   O     O_3   0.011753 0.256090 0.336435 -0.614842
O21   O     O_3   0.694496 0.736481 0.251593 -0.609084
O22   O     O_2   0.848200 0.768190 0.534530 -0.456027
O23   O     O_3   0.081160 0.685950 0.404810 -0.493560
O24   O     O_2   0.999128 0.878806 0.446817 -0.490818
P1    P     P_3+3 0.041040 0.394770 0.336330 0.981648
P2    P     P_3+3 0.672880 0.754030 0.556100 1.001756
P3    P     P_3+3 0.131554 0.823160 0.404300 0.932561
P4    P     P_3+3 0.148670 0.605320 0.663680 0.967787
P5    P     P_3+3 0.070751 0.178168 0.597806 0.979910
P6    P     P_3+3 0.640644 0.609650 0.274596 0.936488
P7    P     P_3+3 0.522392 0.230920 0.439051 0.974737
P8    P     P_3+3 0.550555 0.389206 0.725628 0.939991
N1    N     N_2   0.801006 0.111520 0.319682 -0.437385
H53   H     H_    0.696021 0.071547 0.290745 0.184665
C57   C     C_3   0.897104 0.041388 0.349335 -0.175166
H54   H     H_    0.826092 0.004743 0.391024 0.104567
H55   H     H_    0.015165 0.085114 0.376044 0.150573
H56   H     H_    0.921612 0.977310 0.305260 0.141270
N2    N     N_2   0.860831 0.963464 0.615311 -0.387064
H57   H     H_    0.985727 0.964090 0.611522 0.204379
C58   C     C_3   0.811572 0.997229 0.688519 -0.164855
H58   H     H_    0.883175 0.963682 0.727826 0.113856
H59   H     H_    0.679109 0.969702 0.692851 0.111045
H60   H     H_    0.829253 0.084936 0.702994 0.063281

loop_
_geom_bond_atom_site_label_1
_geom_bond_atom_site_label_2
_ccdc_geom_bond_type
C5    H25   S    
C53   C54   S    
O23   P3    S    
C16   H38   S    
C39   C40   A    
C17   C18   A    
Ba1   O18   S    
Ba1   O22   S    
O1    P1    D    
C40   H45   S    
C45   H4    S    
C5    H24   S    
C57   H54   S    
Ba2   O8    S    
C5    C6    S    
C37   C39   A    
C42   H47   S    
C28   H39   S    
C7    O17   S    
C46   P3    S    
C26   C27   A    
C1    H11   S    
C55   H9    S    
C16   C17   A    
N2    C58   S    
C7    H30   S    
C3    C4    S    
C33   H41   S    
C56   H13   S    
C12   H44   S    
C55   O2    S    
C19   C31   A    
C54   H7    S    
C2    H1    S    
C34   C45   S    
C6    H27   S    
C29   H40   S    
C1    H16   S    
Ba1   O12   S    
C39   P6    S    
O21   P6    S    
C45   H2    S    
Ba2   O6    S    
C42   C51   A    
O20   P1    S    
C8    H31   S    
O15   P7    S    
C14   C15   A    
C53   H5    S    
C21   C22   A    
C54   H6    S    
C43   C47   A    
C52   N2    S    
Ba1   P2    S    
C7    C8    S    
C10   C28   A    
C42   C50   A    
C58   H59   S    
C38   H43   S    
C58   H58   S    
C8    H34   S    
C24   C29   A    
C32   C36   A    
C27   C41   A    
C23   H23   S    
O24   P3    D    
Ba1   O23   S    
C1    H22   S    
C57   H55   S    
C48   C49   A    
C2    O21   S    
C55   C56   S    
Ba2   O12   S    
C25   C32   A    
O12   P1    S    
C44   C46   A    
C53   N1    S    
C13   C14   A    
O2    P2    S    
C49   C50   A    
Ba2   P4    S    
C30   C33   A    
C17   C20   A    
C37   C38   A    
C56   H12   S    
C4    H19   S    
C26   C37   A    
C22   P4    S    
Ba2   O13   S    
O8    P7    S    
C44   H46   S    
C44   C49   A    
O16   P8    D    
C15   C19   A    
C11   H35   S    
O17   P8    S    
C3    H17   S    
Ba1   O13   S    
C35   C36   A    
Ba2   O5    S    
C5    O11   S    
C29   C30   A    
O5    P4    S    
C9    C25   A    
O22   P2    D    
C53   O20   S    
C20   P8    S    
C31   C32   A    
O10   P5    D    
C48   C52   A    
C10   C11   A    
C41   P1    S    
C34   O7    S    
C2    H15   S    
C58   H60   S    
O6    P8    S    
C47   P2    S    
C11   C13   A    
C34   H52   S    
O3    P3    S    
O14   P7    D    
C40   C41   A    
C55   H10   S    
C1    C2    S    
C34   H51   S    
C57   H56   S    
C43   H48   S    
C23   H49   S    
C43   C46   A    
N1    C57   S    
C9    C15   A    
C33   C35   A    
C6    H26   S    
C22   C24   A    
O7    P4    S    
C45   H3    S    
C9    C10   A    
C51   C52   A    
Ba2   O14   S    
C12   O3    S    
C4    H20   S    
C50   P7    S    
O13   P2    S    
O9    P5    S    
C30   C31   A    
O11   P5    S    
C3    H18   S    
O18   P6    S    
N2    H57   S    
C7    H29   S    
C36   C38   A    
Ba2   O4    S    
C56   H14   S    
C4    H21   S    
O19   P6    D    
C18   C24   A    
C54   H8    S    
Ba1   Ba2   S    
Ba2   O9    S    
C21   H37   S    
C6    H28   S    
Ba1   O8    S    
O4    P4    D    
C12   C23   S    
C12   H33   S    
C51   P5    S    
C27   C28   A    
C13   H36   S    
C18   C19   A    
C8    H32   S    
C14   C16   A    
C47   C48   A    
C3    O15   S    
C25   C26   A    
C20   C21   A    
Ba1   O5    S    
Ba1   P1    S    
C35   H42   S    
Ba1   O1    S    
N1    H53   S    
C23   H50   S    
