data_mof_unit_16705.cif
_audit_creation_date              2012-12-11T14:33:50-0500
_audit_creation_method            fapswitch 2.2
_symmetry_space_group_name_H-M    P1
_symmetry_Int_Tables_number       1
_space_group_crystal_system       triclinic
_cell_length_a                    13.820164
_cell_length_b                    13.952724
_cell_length_c                    27.448275
_cell_angle_alpha                 90.522675
_cell_angle_beta                  89.549044
_cell_angle_gamma                 119.84141
_cell_volume                      4590.80056056

loop_
_atom_site_label
_atom_site_type_symbol
_atom_type_description
_atom_site_fract_x
_atom_site_fract_y
_atom_site_fract_z
_atom_type_partial_charge
C1    C     C_R   0.233942 0.787199 0.569048 0.554412
C2    C     C_R   0.212691 0.447406 0.569235 0.556163
C3    C     C_R   0.552556 0.765548 0.569164 0.553540
C4    C     C_3   0.659180 0.734226 0.789078 -0.212344
C5    C     C_3   0.267605 0.922177 0.789575 -0.212768
C6    C     C_3   0.076599 0.343003 0.790413 -0.212315
C7    C     C_3   0.637174 0.721424 0.733447 -0.213272
C8    C     C_3   0.279982 0.913420 0.733806 -0.213375
C9    C     C_3   0.085140 0.365414 0.734866 -0.213376
C10   C     C_1   0.713302 0.863953 0.859157 -0.072988
C11   C     C_1   0.136328 0.848649 0.859191 -0.073802
C12   C     C_1   0.151960 0.285629 0.858956 -0.073210
C13   C     C_1   0.630044 0.816112 0.658789 -0.074233
C14   C     C_1   0.182785 0.814596 0.658645 -0.074355
C15   C     C_1   0.185129 0.370111 0.658739 -0.074412
C16   C     C_1   0.601304 0.797377 0.616737 -0.017718
C17   C     C_1   0.201708 0.804546 0.616562 -0.017689
C18   C     C_1   0.195098 0.398884 0.616757 -0.018371
C19   C     C_R   0.067709 0.159314 0.097373 0.526488
C20   C     C_R   0.775710 0.883921 0.087313 0.579855
C21   C     C_R   0.092819 0.928260 0.097869 0.514685
C22   C     C_R   0.107414 0.219871 0.950395 0.574489
C23   C     C_R   0.780458 0.887056 0.950404 0.566734
C24   C     C_R   0.113571 0.893030 0.950577 0.570686
C25   C     C_R   0.608934 0.872302 0.358818 -0.134663
C26   C     C_R   0.122037 0.723141 0.358822 -0.139241
C27   C     C_R   0.267944 0.386234 0.360677 -0.138290
C28   C     C_R   0.637949 0.893386 0.309801 0.000748
C29   C     C_R   0.099257 0.739136 0.311198 0.003109
C30   C     C_R   0.248622 0.343429 0.313547 -0.002832
C31   C     C_R   0.702976 0.933345 0.212000 0.002606
C32   C     C_R   0.055296 0.787703 0.217921 0.008018
C33   C     C_R   0.198390 0.249242 0.220266 0.008318
C34   C     C_R   0.259557 0.766276 0.425343 0.522617
C35   C     C_R   0.233347 0.491599 0.425305 0.521525
C36   C     C_R   0.506354 0.739692 0.425367 0.521361
C37   C     C_R   0.741173 0.021450 0.245266 -0.118324
C38   C     C_R   0.967295 0.714510 0.247985 -0.117226
C39   C     C_R   0.269891 0.232609 0.250544 -0.113702
C40   C     C_R   0.708471 0.001588 0.293919 -0.141310
C41   C     C_R   0.989113 0.691075 0.294585 -0.139576
C42   C     C_R   0.293885 0.278492 0.297258 -0.137535
C43   C     C_R   0.743438 0.951855 0.164611 -0.157678
C44   C     C_R   0.033556 0.817220 0.172676 -0.164558
C45   C     C_R   0.170687 0.200485 0.174323 -0.163902
C46   C     C_R   0.711506 0.863654 0.132125 0.009213
C47   C     C_R   0.120669 0.897339 0.144597 0.004675
C48   C     C_R   0.092674 0.210038 0.145912 0.002927
C49   C     C_R   0.500850 0.675533 0.341505 -0.142183
C50   C     C_R   0.321005 0.837961 0.343790 -0.135281
C51   C     C_R   0.158521 0.475332 0.344682 -0.135669
C52   C     C_R   0.526781 0.695381 0.292204 0.015168
C53   C     C_R   0.299672 0.854953 0.296467 0.015939
C54   C     C_R   0.137234 0.432185 0.298133 0.016056
C55   C     C_R   0.596757 0.804500 0.276252 0.062677
C56   C     C_R   0.188481 0.807885 0.280224 0.065805
C57   C     C_R   0.180791 0.364569 0.282454 0.058246
C58   C     C_R   0.485191 0.607846 0.258786 -0.137731
C59   C     C_R   0.388019 0.921877 0.265857 -0.139228
C60   C     C_R   0.069964 0.453024 0.267732 -0.138594
C61   C     C_R   0.515355 0.627395 0.209861 -0.098409
C62   C     C_R   0.366745 0.949292 0.220486 -0.100812
C63   C     C_R   0.039565 0.401435 0.222837 -0.100480
C64   C     C_R   0.589461 0.735130 0.193544 0.025695
C65   C     C_R   0.256171 0.910057 0.204851 0.023990
C66   C     C_R   0.077358 0.329022 0.207364 0.026821
C67   C     C_3   0.572237 0.860643 0.737808 -0.215101
C68   C     C_3   0.135259 0.711706 0.736437 -0.214875
C69   C     C_3   0.289100 0.424339 0.736920 -0.214995
C70   C     C_R   0.628569 0.824424 0.227079 0.030836
C71   C     C_R   0.166621 0.833823 0.233896 0.034149
C72   C     C_R   0.153353 0.315336 0.236342 0.031298
C73   C     C_R   0.629770 0.755600 0.145322 0.141878
C74   C     C_R   0.233556 0.948205 0.161878 0.143995
C75   C     C_R   0.039087 0.268651 0.164211 0.147000
C76   C     C_R   0.541105 0.763363 0.374688 -0.004583
C77   C     C_R   0.232899 0.775589 0.375348 -0.003747
C78   C     C_R   0.220634 0.450170 0.376204 -0.003345
C79   C     C_3   0.774699 0.923274 0.721927 -0.214840
C80   C     C_3   0.077322 0.854185 0.722554 -0.215395
C81   C     C_3   0.146496 0.225189 0.721080 -0.214673
C82   C     C_3   0.796585 0.936199 0.777699 -0.215175
C83   C     C_3   0.064808 0.862749 0.778466 -0.214872
C84   C     C_3   0.138233 0.202913 0.776770 -0.215251
C85   C     C_1   0.738436 0.873603 0.901659 -0.015911
C86   C     C_1   0.126929 0.864198 0.901774 -0.020148
C87   C     C_1   0.136583 0.260832 0.901501 -0.019356
C88   C     C_3   0.653654 0.830616 0.711501 0.071614
C89   C     C_3   0.168534 0.823375 0.711383 0.071859
C90   C     C_3   0.176559 0.346171 0.711401 0.071408
C91   C     C_3   0.594131 0.873347 0.793549 -0.214824
C92   C     C_3   0.122946 0.720478 0.792317 -0.215228
C93   C     C_3   0.280589 0.402061 0.792581 -0.214502
C94   C     C_3   0.690968 0.852365 0.806333 0.071020
C95   C     C_3   0.147503 0.838216 0.806331 0.071794
C96   C     C_3   0.162146 0.308181 0.806141 0.071088
Cr1   Cr    Cr6+3 0.164410 0.584450 0.499910 1.015291
Cr2   Cr    Cr6+3 0.415550 0.579960 0.499910 1.016344
Cr3   Cr    Cr6+3 0.420040 0.835590 0.499910 1.015841
Cr4   Cr    Cr6+3 0.155170 0.075460 0.019960 1.093412
Cr5   Cr    Cr6+3 0.924540 0.079710 0.019960 1.080180
Cr6   Cr    Cr6+3 0.920290 0.844830 0.019960 1.071054
H1    H     H_    0.614988 0.957960 0.805404 0.115688
H2    H     H_    0.036872 0.658480 0.803854 0.115668
H3    H     H_    0.343794 0.379003 0.803299 0.116174
H4    H     H_    0.484400 0.795195 0.730983 0.106241
H5    H     H_    0.199625 0.687596 0.728988 0.106684
H6    H     H_    0.312721 0.512067 0.730642 0.106417
H7    H     H_    0.516958 0.813840 0.813310 0.113223
H8    H     H_    0.181548 0.700889 0.811551 0.112566
H9    H     H_    0.299798 0.478955 0.812845 0.113667
H10   H     H_    0.727674 0.717067 0.797708 0.113411
H11   H     H_    0.287335 0.007711 0.799175 0.114173
H12   H     H_    0.990496 0.276681 0.799596 0.113874
H13   H     H_    0.806574 0.034041 0.154035 0.166386
H14   H     H_    0.948218 0.780968 0.159981 0.134502
H15   H     H_    0.207300 0.152448 0.161044 0.154032
H16   H     H_    0.640153 0.940452 0.384605 0.135395
H17   H     H_    0.053521 0.672777 0.383212 0.134496
H18   H     H_    0.317695 0.368209 0.385296 0.136439
H19   H     H_    0.798320 0.105374 0.233876 0.149353
H20   H     H_    0.881528 0.678033 0.236016 0.128564
H21   H     H_    0.305058 0.182129 0.238519 0.146609
H22   H     H_    0.740061 0.070479 0.319288 0.119120
H23   H     H_    0.919929 0.637043 0.317906 0.115888
H24   H     H_    0.347070 0.262700 0.320701 0.119357
H25   H     H_    0.482674 0.556776 0.185606 0.182214
H26   H     H_    0.438549 0.002361 0.198481 0.184854
H27   H     H_    0.986592 0.419863 0.200780 0.181600
H28   H     H_    0.430916 0.523857 0.270600 0.131083
H29   H     H_    0.473677 0.956266 0.277616 0.128144
H30   H     H_    0.038017 0.506557 0.279245 0.124516
H31   H     H_    0.582438 0.939159 0.723000 0.113488
H32   H     H_    0.055106 0.645313 0.721213 0.114129
H33   H     H_    0.356537 0.412105 0.721023 0.114098
H34   H     H_    0.448854 0.591925 0.354203 0.115063
H35   H     H_    0.406235 0.876203 0.356700 0.121613
H36   H     H_    0.123630 0.525733 0.357139 0.117853
H37   H     H_    0.834992 0.903403 0.703820 0.110316
H38   H     H_    0.099562 0.934505 0.705306 0.110247
H39   H     H_    0.065512 0.167184 0.703551 0.110511
H40   H     H_    0.788816 0.002890 0.706689 0.112984
H41   H     H_    0.996176 0.790613 0.706947 0.112730
H42   H     H_    0.211045 0.209087 0.704750 0.113157
H43   H     H_    0.821250 0.022088 0.789134 0.110844
H44   H     H_    0.977562 0.803282 0.789622 0.110729
H45   H     H_    0.198868 0.176125 0.787064 0.110446
H46   H     H_    0.867701 0.922975 0.786169 0.104395
H47   H     H_    0.080583 0.947083 0.787892 0.104773
H48   H     H_    0.053407 0.133892 0.785765 0.104539
H49   H     H_    0.550594 0.653236 0.726570 0.110072
H50   H     H_    0.347177 0.893246 0.726321 0.109870
H51   H     H_    0.104765 0.452003 0.728587 0.109681
H52   H     H_    0.694956 0.697928 0.715504 0.114338
H53   H     H_    0.305807 0.994768 0.716733 0.114405
H54   H     H_    0.003100 0.310006 0.717529 0.114319
H55   H     H_    0.583216 0.672114 0.808766 0.116111
H56   H     H_    0.328875 0.906263 0.808749 0.114892
H57   H     H_    0.091958 0.418785 0.810648 0.115455
O1    O     O_R   0.137150 0.468200 0.553200 -0.501792
O2    O     O_R   0.531800 0.668950 0.553200 -0.501841
O3    O     O_R   0.331050 0.862850 0.553200 -0.500771
O4    O     O_R   0.179100 0.982980 0.967000 -0.492880
O5    O     O_R   0.017020 0.196120 0.967000 -0.492390
O6    O     O_R   0.803880 0.820900 0.967000 -0.491773
O7    O     O_R   0.173970 0.688730 0.549930 -0.491859
O8    O     O_R   0.311270 0.485240 0.549930 -0.491239
O9    O     O_R   0.514760 0.826030 0.549930 -0.490700
O10   O     O_R   0.140110 0.470540 0.446010 -0.502688
O11   O     O_R   0.529460 0.669570 0.446010 -0.500374
O12   O     O_R   0.330430 0.859890 0.446010 -0.501338
O13   O     O_R   0.176710 0.690910 0.450560 -0.515616
O14   O     O_R   0.309090 0.485800 0.450560 -0.514096
O15   O     O_R   0.514200 0.823290 0.450560 -0.513521
O16   O     O_3   0.333333 0.666667 0.499990 -0.318544
O17   O     O_R   0.176750 0.985260 0.074180 -0.443579
O18   O     O_R   0.014740 0.191490 0.074180 -0.433721
O19   O     O_R   0.808510 0.823250 0.074180 -0.482244
O20   O     O_R   0.146100 0.172630 0.068980 -0.473127
O21   O     O_R   0.827370 0.973470 0.068980 -0.515759
O22   O     O_R   0.026530 0.853900 0.068980 -0.477596
O23   O     O_3   0.000000 0.000000 0.020040 -0.286056
O24   O     O_R   0.148270 0.170520 0.969620 -0.488192
O25   O     O_R   0.829480 0.977750 0.969620 -0.495644
O26   O     O_R   0.022250 0.851730 0.969620 -0.489226
Br1   Br    Br    0.575735 0.637593 0.097439 -0.475634
Br2   Br    Br    0.359364 0.077324 0.131592 -0.497670
Br3   Br    Br    0.907199 0.262134 0.134628 -0.515880

loop_
_geom_bond_atom_site_label_1
_geom_bond_atom_site_label_2
_ccdc_geom_bond_type
C15   C18   T    
C79   H37   S    
C43   C46   A    
C10   C85   T    
C36   O15   A    
Cr1   O16   S    
C2    C18   S    
C33   C45   A    
C75   Br3   S    
C48   C75   A    
C27   C78   A    
C92   H8    S    
C25   H16   S    
C82   H43   S    
C6    C9    S    
C6    H57   S    
C53   C59   A    
C50   H35   S    
C39   H21   S    
C20   O21   A    
C54   C60   A    
C27   H18   S    
C25   C28   A    
C21   O22   A    
C7    H52   S    
C59   H29   S    
C67   C88   S    
C33   C39   A    
Cr1   O13   S    
C31   C43   A    
C60   C63   A    
C82   C94   S    
C67   H31   S    
Cr3   O9    S    
C37   C40   A    
C69   C93   S    
C80   C83   S    
C34   C77   S    
C64   C70   A    
C84   H45   S    
C79   H40   S    
Cr3   O12   S    
C28   C40   A    
C11   C86   T    
C45   H15   S    
Cr1   O7    S    
C83   H44   S    
C30   C57   A    
Cr1   O10   S    
C84   C96   S    
C80   C89   S    
Cr4   O24   S    
C8    H53   S    
C6    H12   S    
C36   C76   S    
C33   C72   A    
C43   H13   S    
C23   O6    A    
C28   C55   A    
C31   C70   A    
C66   C72   A    
C7    C88   S    
C9    H54   S    
Cr4   O17   S    
Cr6   O23   S    
C64   C73   A    
C68   H5    S    
C32   C38   A    
C39   C42   A    
Cr4   O23   S    
C19   O18   A    
Cr2   O8    S    
C12   C87   T    
C44   C47   A    
C93   H3    S    
C49   C52   A    
C58   C61   A    
C81   H39   S    
C4    H10   S    
C63   C66   A    
C9    H51   S    
C69   H33   S    
C27   C30   A    
C14   C17   T    
C60   H30   S    
C4    C7    S    
C79   C88   S    
C5    C95   S    
C69   H6    S    
C3    O9    A    
C73   Br1   S    
C32   C71   A    
C81   H42   S    
C40   H22   S    
C26   C77   A    
C50   C53   A    
Cr1   O1    S    
C41   H23   S    
C83   H47   S    
C26   H17   S    
C38   C41   A    
Cr2   O14   S    
C92   H2    S    
C19   C48   S    
C20   O19   A    
C65   C71   A    
C92   C95   S    
C65   C74   A    
C31   C37   A    
C24   O26   A    
C35   O14   A    
C61   C64   A    
C3    C16   S    
C14   C89   S    
C22   O24   A    
C80   H41   S    
C79   C82   S    
Cr3   O3    S    
C22   O5    A    
C5    H11   S    
C4    H55   S    
C56   C71   A    
C83   C95   S    
C67   C91   S    
C68   C89   S    
C32   C44   A    
C49   C76   A    
C61   H25   S    
C22   C87   S    
C38   H20   S    
Cr5   O25   S    
C52   C58   A    
C93   H9    S    
C7    H49   S    
C81   C90   S    
Cr2   O2    S    
C49   H34   S    
C1    O3    A    
C93   C96   S    
C6    C96   S    
C35   O10   A    
C37   H19   S    
C24   O4    A    
C42   H24   S    
C69   C90   S    
C50   C77   A    
C19   O20   A    
C81   C84   S    
C34   O13   A    
C74   Br2   S    
C45   C48   A    
C11   C95   S    
C34   O12   A    
C59   C62   A    
C62   C65   A    
C29   C41   A    
Cr6   O22   S    
C1    C17   S    
Cr5   O5    S    
C30   C42   A    
C47   C74   A    
C91   H1    S    
C8    H50   S    
C9    C90   S    
C5    C8    S    
C82   H46   S    
C52   C55   A    
C67   H4    S    
C29   C56   A    
Cr6   O6    S    
Cr6   O26   S    
C35   C78   S    
C36   O11   A    
C51   C54   A    
C25   C76   A    
C68   H32   S    
C51   C78   A    
C23   O25   A    
Cr5   O21   S    
C80   H38   S    
C15   C90   S    
C62   H26   S    
Cr2   O16   S    
C91   H7    S    
C4    C94   S    
Cr3   O15   S    
C1    O7    A    
C58   H28   S    
Cr6   O19   S    
C66   C75   A    
C13   C88   S    
C68   C92   S    
Cr4   O4    S    
C63   H27   S    
C57   C72   A    
C21   O17   A    
C53   C56   A    
C55   C70   A    
Cr5   O18   S    
C3    O2    A    
Cr2   O11   S    
C51   H36   S    
Cr3   O16   S    
C44   H14   S    
C26   C29   A    
C2    O1    A    
C5    H56   S    
C23   C85   S    
C13   C16   T    
C10   C94   S    
C12   C96   S    
C8    C89   S    
C21   C47   S    
Cr4   O20   S    
C24   C86   S    
C2    O8    A    
C46   C73   A    
C20   C46   S    
Cr5   O23   S    
C91   C94   S    
C54   C57   A    
C84   H48   S    
