data_mof_unit_10600.cif
_audit_creation_date              2012-12-11T16:25:37-0500
_audit_creation_method            fapswitch 2.2
_symmetry_space_group_name_H-M    P1
_symmetry_Int_Tables_number       1
_space_group_crystal_system       triclinic
_cell_length_a                    20.370216
_cell_length_b                    7.276368
_cell_length_c                    13.278437
_cell_angle_alpha                 89.023174
_cell_angle_beta                  103.544593
_cell_angle_gamma                 91.71495
_cell_volume                      1912.44840621

loop_
_atom_site_label
_atom_site_type_symbol
_atom_type_description
_atom_site_fract_x
_atom_site_fract_y
_atom_site_fract_z
_atom_type_partial_charge
O1    O     O_R   0.449520 0.506760 0.599710 -0.508991
O2    O     O_R   0.550480 0.006760 0.400290 -0.528324
O3    O     O_R   0.587930 0.180200 0.595790 -0.540197
O4    O     O_R   0.412070 0.680200 0.404210 -0.525092
C1    C     C_R   0.613373 0.346470 0.620962 0.760113
C2    C     C_R   0.386872 0.843010 0.378188 0.775793
O5    O     O_R   0.452350 0.177380 0.611700 -0.534240
O6    O     O_R   0.547650 0.677380 0.388300 -0.533937
O7    O     O_R   0.413930 0.001760 0.416320 -0.539850
O8    O     O_R   0.586070 0.501760 0.583680 -0.530786
C3    C     C_R   0.436044 0.341869 0.638443 0.748730
C4    C     C_R   0.564156 0.848896 0.362305 0.730621
O9    O     O_3   0.487550 0.337460 0.435880 -0.371048
O10   O     O_3   0.512450 0.837460 0.564120 -0.367582
V1    V     V_3+5 0.502310 0.064670 0.511900 1.518316
V2    V     V_3+5 0.497690 0.564670 0.488100 1.512560
C5    C     C_R   0.620928 0.011524 0.124624 -0.050422
C6    C     C_R   0.379003 0.200426 0.879824 -0.099821
H1    H     H_    0.701411 0.031341 0.994969 0.148079
H2    H     H_    0.296942 0.178864 0.006829 0.141785
H3    H     H_    0.600444 0.086454 0.053581 0.207197
H4    H     H_    0.398683 0.125630 0.951265 0.204329
C7    C     C_R   0.605042 0.872761 0.284600 -0.148521
C8    C     C_R   0.396291 0.331851 0.718627 -0.108783
C9    C     C_R   0.929258 0.792994 0.317030 -0.053211
C10   C     C_R   0.072823 0.430368 0.682847 -0.050379
C11   C     C_R   0.894191 0.777959 0.395189 0.310357
C12   C     C_R   0.108600 0.441503 0.605493 0.336609
C13   C     C_R   0.824821 0.809375 0.372576 -0.178800
C14   C     C_R   0.177784 0.407718 0.629633 -0.253589
C15   C     C_R   0.788465 0.848427 0.270324 0.060077
C16   C     C_R   0.213362 0.371409 0.732481 0.069345
C17   C     C_R   0.825996 0.877605 0.192892 0.044516
C18   C     C_R   0.174870 0.343089 0.808866 0.080675
C19   C     C_R   0.716741 0.870920 0.243502 0.059197
C20   C     C_R   0.285074 0.348259 0.760532 0.067162
C21   C     C_R   0.687450 0.953110 0.146291 0.039768
C22   C     C_R   0.312971 0.262460 0.857330 0.047736
C23   C     C_R   0.724835 0.978330 0.071310 -0.128944
C24   C     C_R   0.274607 0.236065 0.931035 -0.149444
C25   C     C_R   0.792600 0.936398 0.093135 -0.188560
C26   C     C_R   0.207220 0.281963 0.908590 -0.159208
C27   C     C_R   0.672272 0.810707 0.306737 0.106883
C28   C     C_R   0.330769 0.404041 0.697554 0.126672
C29   C     C_R   0.581497 0.983830 0.196104 0.249157
C30   C     C_R   0.418834 0.223120 0.808600 0.248650
C31   C     C_R   0.896400 0.848249 0.217034 -0.149060
C32   C     C_R   0.104594 0.375499 0.783498 -0.164180
H5    H     H_    0.982852 0.766749 0.335018 0.150125
H6    H     H_    0.019521 0.460408 0.663872 0.150518
H7    H     H_    0.801562 0.811430 0.437496 0.160290
H8    H     H_    0.201826 0.403176 0.565803 0.129444
H9    H     H_    0.819123 0.957684 0.031985 0.130663
H10   H     H_    0.180077 0.260713 0.968956 0.126041
C33   C     C_R   0.225878 0.807255 0.029587 -0.250948
C34   C     C_R   0.771886 0.392507 0.968520 -0.249933
C35   C     C_R   0.277212 0.764301 0.981424 0.166082
C36   C     C_R   0.719055 0.427354 0.015265 0.154920
C37   C     C_R   0.341307 0.728257 0.042082 0.294932
C38   C     C_R   0.655788 0.469292 0.953360 0.296644
C39   C     C_R   0.354939 0.740426 0.151094 0.092062
C40   C     C_R   0.643877 0.462884 0.844342 0.093317
C41   C     C_R   0.304461 0.802792 0.200862 0.025963
C42   C     C_R   0.695142 0.401759 0.796346 0.025709
C43   C     C_R   0.237798 0.824468 0.138319 -0.014675
C44   C     C_R   0.761523 0.382541 0.859830 -0.013930
C45   C     C_R   0.317487 0.844263 0.309428 -0.131879
C46   C     C_R   0.682995 0.359691 0.688402 -0.126491
C47   C     C_R   0.262972 0.888586 0.354100 0.047875
C48   C     C_R   0.738244 0.320410 0.644472 0.045883
C49   C     C_R   0.195905 0.893496 0.291919 0.027591
C50   C     C_R   0.805326 0.322828 0.707058 0.026591
C51   C     C_R   0.183519 0.862855 0.184082 -0.114531
C52   C     C_R   0.816806 0.352800 0.814901 -0.114609
C53   C     C_R   0.273714 0.922285 0.461737 -0.207366
C54   C     C_R   0.728038 0.283287 0.537418 -0.197902
C55   C     C_R   0.220134 0.955968 0.506719 -0.177718
C56   C     C_R   0.782270 0.255208 0.492904 -0.136217
C57   C     C_R   0.154526 0.955889 0.446437 0.291507
C58   C     C_R   0.847882 0.262593 0.553443 0.281136
C59   C     C_R   0.142233 0.926602 0.339933 -0.192915
C60   C     C_R   0.859618 0.294511 0.659713 -0.195243
H11   H     H_    0.176461 0.830736 0.980172 0.139080
H12   H     H_    0.820985 0.367656 0.018671 0.138416
H13   H     H_    0.323332 0.918932 0.513369 0.145213
H14   H     H_    0.678187 0.278570 0.486244 0.121214
H15   H     H_    0.229687 0.978600 0.589364 0.147977
H16   H     H_    0.773150 0.229874 0.410573 0.157357
H17   H     H_    0.090346 0.927562 0.295841 0.119135
H18   H     H_    0.911415 0.297820 0.704340 0.118092
O11   O     O_R   0.913760 0.203480 0.916370 -0.537671
O12   O     O_R   0.086240 0.703480 0.083630 -0.531355
O13   O     O_R   0.047590 0.535230 0.888250 -0.540530
O14   O     O_R   0.952410 0.035230 0.111750 -0.531759
C61   C     C_R   0.064490 0.371468 0.862478 0.686776
C62   C     C_R   0.936173 0.865713 0.138054 0.688651
O15   O     O_R   0.912020 0.532880 0.904260 -0.535130
O16   O     O_R   0.087980 0.032880 0.095740 -0.542010
O17   O     O_R   0.949590 0.708460 0.099750 -0.537888
O18   O     O_R   0.050410 0.208460 0.900250 -0.532375
C63   C     C_R   0.886588 0.363311 0.881153 0.679288
C64   C     C_R   0.113620 0.866266 0.118270 0.675247
O19   O     O_3   0.012370 0.375360 0.064120 -0.374637
O20   O     O_3   0.987630 0.875360 0.935880 -0.375105
V3    V     V_3+5 0.997700 0.648160 0.988110 1.439164
V4    V     V_3+5 0.002300 0.148160 0.011890 1.441665
Br1   Br    Br    0.496429 0.105324 0.168616 -0.522506
Br2   Br    Br    0.503819 0.100766 0.840010 -0.517209
N1    N     N_3   0.264006 0.750883 0.870526 -0.619062
H19   H     H_    0.212973 0.771407 0.836625 0.230380
H20   H     H_    0.291043 0.857544 0.843532 0.248609
N2    N     N_3   0.729211 0.419062 0.126006 -0.618452
H21   H     H_    0.777945 0.376593 0.160878 0.237378
H22   H     H_    0.725592 0.552105 0.151372 0.262073
Br3   Br    Br    0.410529 0.660251 0.974092 -0.452016
Br4   Br    Br    0.585523 0.536150 0.019480 -0.460618
N3    N     N_3   0.417760 0.673000 0.210218 -0.621203
H23   H     H_    0.457525 0.739247 0.186077 0.283851
H24   H     H_    0.419429 0.532756 0.195338 0.278601
N4    N     N_3   0.582326 0.534779 0.783342 -0.624192
H25   H     H_    0.580773 0.673934 0.800814 0.278434
H26   H     H_    0.541493 0.467176 0.803821 0.280200
N5    N     N_3   0.693408 0.677393 0.387840 -0.675400
H27   H     H_    0.687207 0.730262 0.457670 0.216911
H28   H     H_    0.662795 0.559061 0.370020 0.260864
N6    N     N_3   0.315850 0.548104 0.620908 -0.650734
H29   H     H_    0.279857 0.636078 0.636200 0.251915
H30   H     H_    0.300720 0.491130 0.547109 0.212615
N7    N     N_3   0.929876 0.734529 0.498698 -0.576379
H31   H     H_    0.924950 0.843436 0.546393 0.268324
H32   H     H_    0.905859 0.620116 0.524000 0.242694
N8    N     N_3   0.073964 0.485439 0.501516 -0.576246
H33   H     H_    0.098705 0.599134 0.476869 0.239019
H34   H     H_    0.078959 0.376180 0.454106 0.270126
Br5   Br    Br    0.081523 0.987256 0.511562 -0.566748
Br6   Br    Br    0.921470 0.234005 0.489211 -0.564340

loop_
_geom_bond_atom_site_label_1
_geom_bond_atom_site_label_2
_ccdc_geom_bond_type
C22   C24   A    
C41   C43   A    
N6    H29   S    
C7    C29   A    
C32   C61   S    
C54   H14   S    
C11   C13   A    
O1    C3    A    
O2    C4    A    
C2    O7    A    
N2    H22   S    
C7    C27   A    
N5    H27   S    
C23   C25   A    
C18   C26   A    
O5    C3    A    
C4    C7    S    
C28   N6    S    
C36   N2    S    
C16   C20   A    
C19   C21   A    
C5    C29   A    
C10   H6    S    
H2    C24   S    
C56   C58   A    
N5    H28   S    
C36   C38   A    
C44   C52   A    
C62   O17   A    
C3    C8    S    
C43   C51   A    
C38   C40   A    
C39   C41   A    
O20   V3    S    
C40   C42   A    
O13   V3    S    
C53   H13   S    
C35   N1    S    
N8    H33   S    
C30   Br2   S    
C31   C62   S    
C15   C17   A    
C19   C27   A    
C9    C31   A    
C40   N4    S    
O12   C64   A    
C59   H17   S    
O5    V1    S    
C50   C60   A    
O6    V2    S    
O11   V4    S    
N8    H34   S    
C34   C44   A    
O11   C63   A    
C1    C46   S    
C6    C30   A    
N2    H21   S    
C33   C43   A    
N4    H26   S    
C34   H12   S    
C55   C57   A    
O17   V3    S    
C41   C45   A    
C37   C39   A    
C47   C49   A    
C39   N3    S    
C17   C25   A    
C58   C60   A    
C49   C51   A    
N3    H24   S    
C61   O18   A    
O16   C64   A    
C5    H3    S    
C12   N8    S    
C42   C44   A    
O4    V2    S    
C21   C23   A    
O6    C4    A    
O1    V2    S    
C5    C21   A    
C60   H18   S    
O14   C62   A    
O2    V1    S    
C53   C55   A    
C25   H9    S    
H1    C23   S    
C52   C63   S    
C50   C52   A    
C51   C64   S    
C33   C35   A    
C48   C54   A    
C11   N7    S    
C15   C19   A    
C20   C28   A    
O4    C2    A    
C18   C32   A    
C33   H11   S    
C20   C22   A    
C42   C46   A    
C27   N5    S    
O3    V1    S    
N4    H25   S    
C57   C59   A    
N7    H31   S    
C13   H7    S    
C56   H16   S    
C14   H8    S    
C2    C45   S    
N6    H30   S    
C6    H4    S    
C10   C12   A    
C54   C56   A    
O3    C1    A    
C58   Br6   S    
C35   C37   A    
C10   C32   A    
C9    C11   A    
C57   Br5   S    
O18   V4    S    
O16   V4    S    
C49   C59   A    
C8    C30   A    
N1    H20   S    
C6    C22   A    
O15   V3    S    
C12   C14   A    
C13   C15   A    
C38   Br4   S    
O8    V2    S    
N3    H23   S    
C26   H10   S    
C14   C16   A    
O13   C61   A    
C8    C28   A    
C24   C26   A    
C17   C31   A    
C34   C36   A    
C47   C53   A    
O19   V4    S    
O7    V1    S    
C9    H5    S    
O14   V4    S    
O12   V3    S    
C1    O8    A    
C55   H15   S    
C37   Br3   S    
O9    V2    S    
C46   C48   A    
O10   V1    S    
C48   C50   A    
C45   C47   A    
N1    H19   S    
O15   C63   A    
C29   Br1   S    
C16   C18   A    
N7    H32   S    
