data_mof_unit_11707.cif
_audit_creation_date              2012-12-10T18:57:10-0500
_audit_creation_method            fapswitch 2.2
_symmetry_space_group_name_H-M    P1
_symmetry_Int_Tables_number       1
_space_group_crystal_system       triclinic
_cell_length_a                    10.709311
_cell_length_b                    9.888237
_cell_length_c                    10.655827
_cell_angle_alpha                 90.004939
_cell_angle_beta                  91.464861
_cell_angle_gamma                 90.723066
_cell_volume                      1127.95294836

loop_
_atom_site_label
_atom_site_type_symbol
_atom_type_description
_atom_site_fract_x
_atom_site_fract_y
_atom_site_fract_z
_atom_type_partial_charge
C1    C     C_R   0.260544 0.499188 0.505085 0.902717
C2    C     C_R   0.468044 0.622330 0.935164 0.096984
C3    C     C_R   0.472310 0.500165 0.128026 -0.102143
C4    C     C_R   0.472488 0.500189 0.870500 -0.106973
C5    C     C_R   0.450582 0.378095 0.063516 -0.216931
C6    C     C_R   0.450609 0.378116 0.933766 -0.206370
C7    C     C_3   0.551495 0.744483 0.930162 -0.458367
C8    C     C_3   0.551480 0.744464 0.072476 -0.465784
C9    C     C_R   0.062283 0.383287 0.474904 -0.246263
C10   C     C_R   0.934655 0.385338 0.471625 -0.242708
C11   C     C_R   0.873463 0.504095 0.502944 -0.226318
C12   C     C_R   0.740227 0.501253 0.499937 0.925800
C13   C     C_R   0.128749 0.497732 0.515966 -0.216249
C14   C     C_R   0.940752 0.621730 0.540549 0.395718
C15   C     C_R   0.068058 0.612829 0.560670 0.396471
C16   C     C_3   0.870373 0.818324 0.451297 0.143384
C17   C     C_3   0.978549 0.919699 0.437300 -0.329106
C18   C     C_3   0.956249 0.012100 0.324435 -0.974209
C19   C     C_3   0.176457 0.691408 0.735599 0.132694
C20   C     C_3   0.079595 0.729731 0.832243 -0.344547
C21   C     C_3   0.130604 0.709782 0.965991 -0.958113
C22   C     C_R   0.568663 0.070632 0.588668 0.414877
C23   C     C_R   0.430551 0.068851 0.411952 0.420152
C24   C     C_R   0.566214 0.927841 0.588946 -0.126033
C25   C     C_R   0.432853 0.926054 0.411704 -0.091956
C26   C     C_R   0.495007 0.499989 0.259881 0.875458
C27   C     C_R   0.495357 0.500008 0.739890 0.870457
C28   C     C_R   0.467932 0.622339 0.063163 0.130076
H1    H     H_    0.443491 0.282280 0.112212 0.207345
H2    H     H_    0.378686 0.870075 0.341528 0.168640
H3    H     H_    0.782329 0.875848 0.455799 0.170055
H4    H     H_    0.860908 0.753558 0.365502 0.103723
H5    H     H_    0.988716 0.982274 0.523725 0.249308
H6    H     H_    0.066866 0.864764 0.423393 0.251738
H7    H     H_    0.949111 0.951506 0.236670 0.269669
H8    H     H_    0.035580 0.084769 0.316893 0.283207
H9    H     H_    0.868815 0.069742 0.335171 0.261310
H10   H     H_    0.262779 0.752503 0.754075 0.175502
H11   H     H_    0.203256 0.583444 0.747982 0.099775
H12   H     H_    0.443447 0.282328 0.884564 0.194353
H13   H     H_    0.053608 0.837384 0.819159 0.247461
H14   H     H_    0.994243 0.665905 0.818068 0.225984
H15   H     H_    0.156833 0.602571 0.981306 0.269664
H16   H     H_    0.057990 0.736692 0.033906 0.267743
H17   H     H_    0.213948 0.775769 0.983641 0.269670
H18   H     H_    0.655641 0.226739 0.656161 0.388059
H19   H     H_    0.343191 0.223003 0.346096 0.380760
H20   H     H_    0.644435 0.722439 0.891143 0.211336
H21   H     H_    0.503168 0.832950 0.112329 0.210470
H22   H     H_    0.503050 0.832886 0.887816 0.208342
H23   H     H_    0.644403 0.722343 0.116268 0.200256
H24   H     H_    0.108714 0.293261 0.443112 0.195551
H25   H     H_    0.884095 0.295272 0.440792 0.196881
H26   H     H_    0.619996 0.873309 0.659372 0.187248
N1    N     N_R   0.500000 0.857200 0.500000 -0.156640
N2    N     N_R   0.500000 0.142810 0.500000 -0.193443
O1    O     O_R   0.316770 0.614620 0.499990 -0.580806
O2    O     O_3   0.132575 0.722713 0.612563 -0.631528
O3    O     O_3   0.641783 0.132300 0.680322 -0.775057
O4    O     O_3   0.356111 0.128801 0.321568 -0.800433
O5    O     O_R   0.683230 0.614620 0.500010 -0.592449
O6    O     O_R   0.316800 0.385290 0.500000 -0.653962
O7    O     O_R   0.683200 0.385290 0.500000 -0.649817
O8    O     O_R   0.500000 0.614690 0.316780 -0.627982
O9    O     O_R   0.500000 0.614690 0.683220 -0.626781
O10   O     O_R   0.500020 0.385360 0.316780 -0.629592
O11   O     O_R   0.499980 0.385360 0.683220 -0.627962
O12   O     O_3   0.883205 0.743455 0.564586 -0.623968
Zn1   Zn    Zn3+2 0.500000 0.653120 0.500000 0.946679
Zn2   Zn    Zn3+2 0.500000 0.346880 0.500000 0.936976

loop_
_geom_bond_atom_site_label_1
_geom_bond_atom_site_label_2
_ccdc_geom_bond_type
C1    C13   S    
C20   H14   S    
C11   C12   S    
C16   O12   S    
C19   H10   S    
C1    O1    A    
H18   O3    S    
C16   H4    S    
C21   H16   S    
C9    C10   A    
C2    C4    A    
C19   C20   S    
O7    Zn2   S    
C22   N2    A    
C3    C5    A    
O11   Zn2   S    
C27   O9    A    
C1    O6    A    
C4    C27   S    
C23   C25   A    
C17   C18   S    
C7    C8    S    
O10   Zn2   S    
O8    Zn1   S    
C7    H20   S    
C24   N1    A    
C12   O5    A    
C8    H23   S    
C17   H6    S    
N1    Zn1   S    
C9    H24   S    
C17   H5    S    
C21   H17   S    
O9    Zn1   S    
C19   H11   S    
C22   C24   A    
C3    C28   A    
C15   O2    S    
C18   H9    S    
C20   H13   S    
C5    H1    S    
C13   C15   A    
C19   O2    S    
C14   O12   S    
C5    C6    A    
C8    C28   S    
C11   C14   A    
C6    H12   S    
C27   O11   A    
C10   C11   A    
C24   H26   S    
C26   O10   A    
C25   N1    A    
C23   N2    A    
N2    Zn2   S    
C9    C13   A    
C20   C21   S    
O6    Zn2   S    
C4    C6    A    
C18   H7    S    
O5    Zn1   S    
C22   O3    S    
C10   H25   S    
C12   O7    A    
C26   O8    A    
C14   C15   A    
C25   H2    S    
C2    C28   A    
O1    Zn1   S    
H19   O4    S    
C21   H15   S    
C18   H8    S    
C8    H21   S    
C23   O4    S    
C2    C7    S    
C7    H22   S    
C16   C17   S    
C16   H3    S    
C3    C26   S    
