data_mof_unit_56454.cif
_audit_creation_date              2012-12-11T14:54:32-0500
_audit_creation_method            fapswitch 2.2
_symmetry_space_group_name_H-M    P1
_symmetry_Int_Tables_number       1
_space_group_crystal_system       triclinic
_cell_length_a                    18.852765
_cell_length_b                    10.984367
_cell_length_c                    18.805122
_cell_angle_alpha                 90.180507
_cell_angle_beta                  90.211399
_cell_angle_gamma                 89.925491
_cell_volume                      3894.222593

loop_
_atom_site_label
_atom_site_type_symbol
_atom_type_description
_atom_site_fract_x
_atom_site_fract_y
_atom_site_fract_z
_atom_type_partial_charge
C1    C     C_R   0.730367 0.376821 0.645829 0.566435
C2    C     C_R   0.306915 0.862533 0.462898 0.033856
C3    C     C_R   0.022322 0.560446 0.456874 -0.133719
C4    C     C_2   0.654177 0.769496 0.579330 0.555822
C5    C     C_2   0.366286 0.797600 0.426728 0.555410
C6    C     C_2   0.153682 0.270375 0.579448 0.542673
C7    C     C_2   0.867214 0.300494 0.426801 0.575804
C8    C     C_R   0.200605 0.352433 0.538508 0.031418
C9    C     C_R   0.806778 0.362615 0.462700 0.027892
C10   C     C_R   0.702381 0.841454 0.464543 -0.142131
C11   C     C_R   0.303931 0.856486 0.537306 -0.147952
C12   C     C_R   0.202062 0.341360 0.464459 -0.141340
C13   C     C_R   0.803543 0.356456 0.537037 -0.145611
C14   C     C_R   0.747696 0.915362 0.424268 0.000548
C15   C     C_R   0.248955 0.913913 0.574322 0.006660
C16   C     C_R   0.246729 0.416100 0.423969 0.011010
C17   C     C_R   0.268829 0.377518 0.353622 0.577249
C18   C     C_R   0.747739 0.412073 0.573723 0.001991
C19   C     C_R   0.785857 0.007634 0.456813 -0.095659
C20   C     C_R   0.199633 0.983781 0.537741 -0.089232
C21   C     C_R   0.283384 0.510298 0.456255 -0.109892
C22   C     C_R   0.697031 0.478645 0.536755 -0.104102
C23   C     C_R   0.787158 0.016760 0.529424 -0.144026
C24   C     C_R   0.198928 0.985948 0.465316 -0.158793
C25   C     C_R   0.285395 0.519034 0.528917 -0.141020
C26   C     C_R   0.696891 0.481007 0.464330 -0.159719
C27   C     C_R   0.746066 0.938616 0.571485 0.000555
C28   C     C_R   0.230604 0.877227 0.646016 0.569691
C29   C     C_R   0.252610 0.928505 0.426415 0.000072
C30   C     C_R   0.245442 0.439605 0.571213 0.003931
C31   C     C_R   0.751949 0.426653 0.425892 -0.000742
C32   C     C_R   0.494590 0.054625 0.961235 -0.134416
C33   C     C_R   0.490172 0.053065 0.033789 -0.133758
C34   C     C_R   0.994558 0.554631 0.961224 -0.134052
C35   C     C_R   0.990139 0.553067 0.033778 -0.134065
C36   C     C_R   0.489991 0.162268 0.072528 0.036448
C37   C     C_R   0.505489 0.164529 0.925529 0.034532
C38   C     C_R   0.989976 0.662266 0.072522 0.035753
C39   C     C_R   0.769034 0.877274 0.353724 0.568438
C40   C     C_R   0.005476 0.664534 0.925523 0.035471
C41   C     C_R   0.497446 0.273748 0.037125 -0.129459
C42   C     C_R   0.506335 0.274769 0.963600 -0.129211
C43   C     C_R   0.997444 0.773746 0.037122 -0.129710
C44   C     C_R   0.006334 0.774770 0.963597 -0.128930
C45   C     C_R   0.535326 0.154183 0.644386 0.546424
C46   C     C_R   0.469856 0.155430 0.352593 0.569479
C47   C     C_R   0.032658 0.654276 0.645938 0.563230
C48   C     C_R   0.968895 0.655797 0.352815 0.548071
C49   C     C_R   0.783002 0.053553 0.978697 -0.132810
C50   C     C_3   0.493190 0.396591 0.460411 0.160376
C51   C     C_R   0.218435 0.056193 0.021092 -0.133125
C52   C     C_R   0.283001 0.553556 0.978697 -0.132884
C53   C     C_R   0.718437 0.556195 0.021091 -0.133093
C54   C     C_R   0.790883 0.024147 0.049750 -0.120923
C55   C     C_R   0.210548 0.026773 0.949897 -0.121815
C56   C     C_R   0.290882 0.524148 0.049751 -0.120975
C57   C     C_R   0.710551 0.526776 0.949895 -0.121731
C58   C     C_R   0.746493 0.936865 0.081167 0.032498
C59   C     C_R   0.253758 0.937038 0.918756 0.033593
C60   C     C_R   0.246493 0.436865 0.081166 0.032670
C61   C     C_3   0.489943 0.386053 0.540871 0.149368
C62   C     C_R   0.753759 0.437037 0.918755 0.033360
C63   C     C_R   0.688480 0.891328 0.042704 -0.142912
C64   C     C_R   0.310545 0.888353 0.957629 -0.143462
C65   C     C_R   0.188480 0.391328 0.042704 -0.142825
C66   C     C_R   0.810542 0.388344 0.957631 -0.143616
C67   C     C_R   0.679987 0.922302 0.971267 -0.129154
C68   C     C_R   0.318683 0.918481 0.029230 -0.130910
C69   C     C_R   0.179986 0.422304 0.971267 -0.129164
C70   C     C_R   0.818678 0.418468 0.029232 -0.130865
C71   C     C_R   0.729800 0.998491 0.937971 0.029001
C72   C     C_3   0.991057 0.893439 0.466792 0.150811
C73   C     C_R   0.270225 0.998070 0.062137 0.030370
C74   C     C_R   0.229799 0.498493 0.937971 0.028977
C75   C     C_R   0.770223 0.498066 0.062138 0.030357
C76   C     C_R   0.740725 0.971477 0.646190 0.588473
C77   C     C_R   0.259007 0.969036 0.353004 0.581779
C78   C     C_R   0.240603 0.471764 0.646070 0.588411
C79   C     C_R   0.758899 0.468730 0.352850 0.579656
C80   C     C_R   0.730807 0.381331 0.851688 0.544408
C81   C     C_R   0.269237 0.381059 0.148228 0.539287
C82   C     C_R   0.230807 0.881330 0.851689 0.541949
C83   C     C_3   0.985109 0.890113 0.547250 0.158811
C84   C     C_R   0.769237 0.881060 0.148228 0.541328
C85   C     C_R   0.532345 0.157142 0.853457 0.541399
C86   C     C_R   0.466646 0.156541 0.145888 0.535053
C87   C     C_R   0.032342 0.657143 0.853455 0.538234
C88   C     C_R   0.966641 0.656540 0.145885 0.537398
C89   C     C_R   0.726916 0.022642 0.861445 0.563646
C90   C     C_R   0.273102 0.022544 0.138626 0.562699
C91   C     C_R   0.226915 0.522643 0.861445 0.563537
C92   C     C_R   0.773101 0.522542 0.138626 0.562957
C93   C     C_R   0.508938 0.161542 0.419798 0.004908
C94   C     C_R   0.700991 0.852020 0.538591 0.030150
C95   C     C_R   0.520162 0.157747 0.568825 -0.017770
C96   C     C_R   0.996969 0.665911 0.424093 -0.025511
C97   C     C_R   0.007267 0.655189 0.573062 0.020785
C98   C     C_R   0.522277 0.269496 0.458201 0.008644
C99   C     C_R   0.526009 0.266473 0.531572 0.024577
C100  C     C_R   0.972163 0.761224 0.466876 0.039548
C101  C     C_R   0.975324 0.755543 0.540289 0.006406
C102  C     C_R   0.523307 0.048636 0.529403 -0.133172
C103  C     C_R   0.519990 0.050739 0.455695 -0.141714
C104  C     C_R   0.026512 0.554504 0.530205 -0.125737
Cr1   Cr    Cr6+3 0.771950 0.169480 0.750100 1.016939
Cr2   Cr    Cr6+3 0.383410 0.010620 0.249390 1.049619
Cr3   Cr    Cr6+3 0.116590 0.510620 0.750610 1.045221
Cr4   Cr    Cr6+3 0.883410 0.510620 0.249390 1.050309
Cr5   Cr    Cr6+3 0.228050 0.169480 0.249900 1.012391
Cr6   Cr    Cr6+3 0.271950 0.669480 0.750100 1.018519
Cr7   Cr    Cr6+3 0.728050 0.669480 0.249900 1.012170
Cr8   Cr    Cr6+3 0.614930 0.323340 0.749170 1.015430
Cr9   Cr    Cr6+3 0.385070 0.323340 0.250830 1.033726
Cr10  Cr    Cr6+3 0.114930 0.823340 0.749170 1.036516
Cr11  Cr    Cr6+3 0.885070 0.823340 0.250830 1.017484
Cr12  Cr    Cr6+3 0.616590 0.010620 0.750610 1.048286
H1    H     H_    0.526799 0.960820 0.555141 0.204058
H2    H     H_    0.167349 0.068563 0.920660 0.133743
H3    H     H_    0.335035 0.563874 0.078589 0.134559
H4    H     H_    0.667354 0.568572 0.920657 0.133976
H5    H     H_    0.652182 0.827176 0.066526 0.113554
H6    H     H_    0.345924 0.822093 0.934022 0.112661
H7    H     H_    0.152183 0.327175 0.066525 0.113517
H8    H     H_    0.845919 0.322081 0.934024 0.112560
H9    H     H_    0.636505 0.882346 0.941569 0.129393
H10   H     H_    0.360721 0.875217 0.059324 0.125195
H11   H     H_    0.136504 0.382348 0.941569 0.129429
H12   H     H_    0.517797 0.964107 0.428142 0.193381
H13   H     H_    0.860712 0.375197 0.059328 0.125112
H14   H     H_    0.532357 0.464456 0.440463 0.137136
H15   H     H_    0.435239 0.378676 0.562957 0.144151
H16   H     H_    0.045591 0.911606 0.446593 0.130074
H17   H     H_    0.937065 0.935652 0.569518 0.146031
H18   H     H_    0.672063 0.769694 0.439041 0.156595
H19   H     H_    0.342483 0.802366 0.566144 0.159079
H20   H     H_    0.172220 0.268886 0.439124 0.155893
H21   H     H_    0.842732 0.303930 0.566048 0.156830
H22   H     H_    0.819217 0.066771 0.426245 0.214506
H23   H     H_    0.049585 0.472969 0.552652 0.194630
H24   H     H_    0.158104 0.031184 0.565026 0.212994
H25   H     H_    0.315319 0.570928 0.425390 0.176081
H26   H     H_    0.654536 0.524180 0.563791 0.236940
H27   H     H_    0.819921 0.087668 0.552306 0.153708
H28   H     H_    0.157399 0.039167 0.440321 0.153763
H29   H     H_    0.317655 0.590646 0.551693 0.154801
H30   H     H_    0.654959 0.532725 0.438992 0.154043
H31   H     H_    0.493562 0.967815 0.933708 0.130135
H32   H     H_    0.483869 0.965208 0.058959 0.128639
H33   H     H_    0.993519 0.467825 0.933693 0.130247
H34   H     H_    0.037718 0.481405 0.425878 0.174217
H35   H     H_    0.983824 0.465210 0.058946 0.128457
H36   H     H_    0.495908 0.359198 0.065980 0.129509
H37   H     H_    0.515709 0.360572 0.937036 0.131666
H38   H     H_    0.995918 0.859194 0.065980 0.129412
H39   H     H_    0.015720 0.860572 0.937037 0.131692
H40   H     H_    0.954835 0.984129 0.387157 0.336072
H41   H     H_    0.040547 0.004596 0.600945 0.336321
H42   H     H_    0.424311 0.489851 0.410559 0.333550
H43   H     H_    0.519087 0.470993 0.625804 0.338107
H44   H     H_    0.639651 0.668315 0.667501 0.341946
H45   H     H_    0.820573 0.115376 0.954863 0.120577
H46   H     H_    0.401073 0.703538 0.341205 0.321767
H47   H     H_    0.138749 0.170674 0.668162 0.332320
H48   H     H_    0.903095 0.205510 0.342118 0.330289
H49   H     H_    0.181947 0.120471 0.044795 0.120689
H50   H     H_    0.320571 0.615380 0.954863 0.120572
H51   H     H_    0.681951 0.620478 0.044793 0.120713
H52   H     H_    0.835036 0.063873 0.078588 0.134630
O1    O     O_R   0.787510 0.042610 0.670410 -0.531767
O2    O     O_R   0.454250 0.051070 0.169440 -0.539592
O3    O     O_R   0.045750 0.551070 0.830560 -0.536915
O4    O     O_R   0.954250 0.551070 0.169440 -0.538782
O5    O     O_R   0.681210 0.959150 0.825320 -0.496211
O6    O     O_R   0.318790 0.959150 0.174680 -0.498819
O7    O     O_R   0.181210 0.459150 0.825320 -0.495962
O8    O     O_R   0.818790 0.459150 0.174680 -0.499107
O9    O     O_3   0.667820 0.167810 0.749960 -0.277623
O10   O     O_3   0.332180 0.167810 0.250040 -0.276253
O11   O     O_3   0.167820 0.667810 0.749960 -0.281492
O12   O     O_R   0.212490 0.042610 0.329590 -0.534829
O13   O     O_3   0.832180 0.667810 0.250040 -0.274942
O14   O     O_R   0.765670 0.292090 0.675090 -0.510573
O15   O     O_R   0.234330 0.292090 0.324910 -0.514853
O16   O     O_R   0.265670 0.792090 0.675090 -0.513508
O17   O     O_R   0.734330 0.792090 0.324910 -0.512937
O18   O     O_R   0.670220 0.409020 0.668560 -0.506562
O19   O     O_R   0.329780 0.409020 0.331440 -0.479241
O20   O     O_R   0.170220 0.909020 0.668560 -0.486339
O21   O     O_R   0.829780 0.909020 0.331440 -0.488006
O22   O     O_R   0.556580 0.251590 0.674980 -0.497281
O23   O     O_R   0.287510 0.542610 0.670410 -0.528393
O24   O     O_R   0.443420 0.251590 0.325020 -0.450746
O25   O     O_R   0.056580 0.751590 0.674980 -0.442641
O26   O     O_R   0.943420 0.751590 0.325020 -0.495163
O27   O     O_R   0.545890 0.049670 0.670030 -0.514512
O28   O     O_R   0.454110 0.049670 0.329970 -0.519221
O29   O     O_R   0.045890 0.549670 0.670030 -0.527117
O30   O     O_R   0.954110 0.549670 0.329970 -0.502380
O31   O     O_R   0.681340 0.957860 0.676500 -0.455783
O32   O     O_R   0.318660 0.957860 0.323500 -0.439942
O33   O     O_R   0.181340 0.457860 0.676500 -0.456606
O34   O     O_R   0.712490 0.542610 0.329590 -0.534066
O35   O     O_R   0.818660 0.457860 0.323500 -0.443366
O36   O     O_R   0.787380 0.044010 0.830940 -0.512696
O37   O     O_R   0.212620 0.044010 0.169060 -0.516090
O38   O     O_R   0.287380 0.544010 0.830940 -0.513047
O39   O     O_R   0.712620 0.544010 0.169060 -0.515597
O40   O     O_R   0.765540 0.293390 0.823910 -0.522369
O41   O     O_R   0.234460 0.293390 0.176090 -0.525185
O42   O     O_R   0.265540 0.793390 0.823910 -0.523232
O43   O     O_R   0.734460 0.793390 0.176090 -0.524098
O44   O     O_R   0.670090 0.410410 0.829090 -0.523110
O45   O     O_R   0.556450 0.252890 0.823790 -0.506757
O46   O     O_R   0.329910 0.410410 0.170910 -0.523975
O47   O     O_R   0.170090 0.910410 0.829090 -0.524773
O48   O     O_R   0.829910 0.910410 0.170910 -0.522757
O49   O     O_3   0.938315 0.965372 0.435923 -0.698466
O50   O     O_3   0.048511 0.922349 0.580489 -0.696404
O51   O     O_3   0.425875 0.406796 0.431004 -0.679683
O52   O     O_3   0.532622 0.472351 0.574904 -0.696167
O53   O     O_2   0.596240 0.740841 0.555066 -0.509757
O54   O     O_R   0.676761 0.721951 0.644541 -0.688910
O55   O     O_2   0.423042 0.784540 0.457544 -0.531495
O56   O     O_R   0.443550 0.252890 0.176210 -0.510251
O57   O     O_R   0.356853 0.746102 0.359198 -0.698038
O58   O     O_2   0.095845 0.241308 0.555088 -0.545135
O59   O     O_R   0.176011 0.223723 0.644984 -0.689212
O60   O     O_2   0.924759 0.293684 0.456835 -0.503720
O61   O     O_R   0.858102 0.245503 0.360178 -0.694535
O62   O     O_R   0.056450 0.752890 0.823790 -0.508699
O63   O     O_R   0.943550 0.752890 0.176210 -0.508131
O64   O     O_R   0.545750 0.051070 0.830560 -0.535287

loop_
_geom_bond_atom_site_label_1
_geom_bond_atom_site_label_2
_ccdc_geom_bond_type
C3    C104  A    
C45   O27   A    
H44   O54   S    
C16   C21   A    
C88   O4    A    
Cr10  O25   S    
C55   C59   A    
C41   C42   A    
Cr6   O23   S    
C81   O41   A    
C61   O52   S    
C89   O5    A    
C93   C103  A    
C72   C100  S    
C84   O43   A    
C57   C62   A    
C41   H36   S    
C61   C99   S    
C1    O18   A    
C92   O8    A    
C72   O49   S    
C59   C64   A    
C68   H10   S    
Cr1   O1    S    
C13   C18   A    
C64   H6    S    
C2    C29   A    
C34   C40   A    
Cr8   O44   S    
C40   C87   S    
C37   C85   S    
C24   H28   S    
C73   C90   S    
Cr3   O33   S    
Cr4   O35   S    
C52   C74   A    
C67   H9    S    
Cr8   O18   S    
C85   O45   A    
C39   O21   A    
C95   C99   A    
C67   C71   A    
C7    O60   D    
C10   C94   A    
C49   C54   A    
Cr9   O19   S    
Cr4   O8    S    
C50   O51   S    
C58   C63   A    
C33   C36   A    
Cr10  O20   S    
C7    C9    S    
C34   C35   A    
C37   C42   A    
C26   H30   S    
C9    C13   A    
C24   C29   A    
C100  C101  A    
C50   H14   S    
C52   H50   S    
C14   C39   S    
Cr12  O27   S    
C11   C15   A    
Cr5   O10   S    
C53   H51   S    
C12   C16   A    
C16   C17   S    
C63   H5    S    
C12   H20   S    
C78   O33   A    
C3    C96   A    
C23   C27   A    
Cr1   O14   S    
C43   H38   S    
C83   C101  S    
C76   O1    A    
C49   H45   S    
C95   C102  A    
C80   O44   A    
Cr3   O11   S    
Cr5   O15   S    
Cr9   O10   S    
Cr6   O16   S    
C26   C31   A    
Cr10  O11   S    
C86   O2    A    
Cr12  O9    S    
Cr12  O64   S    
C59   C82   S    
Cr2   O2    S    
Cr3   O3    S    
C23   H27   S    
C36   C41   A    
C53   C75   A    
C85   O64   A    
C35   H35   S    
Cr9   O46   S    
Cr5   O41   S    
C2    C11   A    
C14   C19   A    
Cr7   O34   S    
Cr11  O13   S    
C34   H33   S    
C72   H16   S    
C9    C31   A    
Cr2   O6    S    
C15   C20   A    
C63   C67   A    
C50   C98   S    
C77   O12   A    
Cr7   O17   S    
C62   C66   A    
C52   C56   A    
C102  C103  A    
C72   C83   S    
C51   C73   A    
C35   C38   A    
Cr2   O10   S    
C10   C14   A    
Cr1   O9    S    
C32   H31   S    
C83   O50   S    
C53   C57   A    
H42   O51   S    
Cr1   O36   S    
C6    C8    S    
C36   C86   S    
C68   C73   A    
Cr8   O45   S    
C70   H13   S    
C56   C60   A    
C48   O30   A    
H48   O61   S    
C39   O17   A    
C74   C91   S    
C19   C23   A    
C43   C44   A    
Cr9   O56   S    
C33   H32   S    
C11   H19   S    
C90   O37   A    
C60   C81   S    
C17   O15   A    
C81   O46   A    
C71   C89   S    
C8    C12   A    
C79   O34   A    
C87   O3    A    
C6    O59   S    
C22   H26   S    
C1    C18   S    
C91   O7    A    
C69   C74   A    
Cr6   O38   S    
C32   C37   A    
Cr6   O42   S    
Cr5   O37   S    
C103  H12   S    
H40   O49   S    
C102  H1    S    
C75   C92   S    
C57   H4    S    
C4    C94   S    
Cr12  O5    S    
C88   O63   A    
C80   O40   A    
Cr11  O26   S    
C86   O56   A    
C60   C65   A    
C98   C99   A    
C79   O35   A    
Cr4   O4    S    
C22   C26   A    
C56   H3    S    
C66   H8    S    
H46   O57   S    
C51   H49   S    
C2    C5    S    
C6    O58   D    
C27   C76   S    
C45   C95   S    
C64   C68   A    
Cr7   O39   S    
C70   C75   A    
C91   O38   A    
Cr1   O40   S    
Cr2   O32   S    
C54   C58   A    
C62   C80   S    
C25   C30   A    
Cr12  O31   S    
Cr9   O24   S    
C21   C25   A    
C3    H34   S    
C48   C96   S    
C48   O26   A    
C18   C22   A    
C44   H39   S    
Cr11  O63   S    
Cr10  O47   S    
C47   O25   A    
C38   C88   S    
C78   O23   A    
C10   H18   S    
C42   H37   S    
C46   O24   A    
C7    O61   S    
C76   O31   A    
Cr10  O62   S    
Cr2   O28   S    
C1    O14   A    
Cr3   O29   S    
C31   C79   S    
Cr11  O21   S    
C87   O62   A    
C5    O55   D    
C47   C97   S    
C104  H23   S    
C8    C30   A    
C32   C33   A    
C20   H24   S    
C28   O20   A    
C28   O16   A    
C21   H25   S    
C38   C43   A    
C92   O39   A    
Cr5   O12   S    
C15   C28   S    
C66   C70   A    
C46   C93   S    
Cr3   O7    S    
Cr6   O11   S    
C17   O19   A    
C19   H22   S    
C65   C69   A    
C96   C100  A    
H41   O50   S    
C5    O57   S    
Cr11  O48   S    
C51   C55   A    
C65   H7    S    
Cr4   O30   S    
C58   C84   S    
C77   O32   A    
Cr7   O43   S    
C83   H17   S    
C97   C104  A    
C90   O6    A    
C61   H15   S    
Cr8   O22   S    
C82   O47   A    
C30   C78   S    
C54   H52   S    
C84   O48   A    
C45   O22   A    
C40   C44   A    
C89   O36   A    
C29   C77   S    
C69   H11   S    
H43   O52   S    
C49   C71   A    
Cr4   O13   S    
C46   O28   A    
C50   C61   S    
C4    O54   S    
Cr7   O13   S    
C47   O29   A    
C27   C94   A    
C25   H29   S    
C82   O42   A    
C93   C98   A    
C20   C24   A    
C97   C101  A    
C4    O53   D    
C13   H21   S    
Cr8   O9    S    
H47   O59   S    
C55   H2    S    
