data_mof_unit_20668.cif
_audit_creation_date              2012-12-11T18:04:49-0500
_audit_creation_method            fapswitch 2.2
_symmetry_space_group_name_H-M    P1
_symmetry_Int_Tables_number       1
_space_group_crystal_system       triclinic
_cell_length_a                    8.476244
_cell_length_b                    12.730948
_cell_length_c                    22.76146
_cell_angle_alpha                 96.400935
_cell_angle_beta                  88.827995
_cell_angle_gamma                 98.769434
_cell_volume                      2412.34225158

loop_
_atom_site_label
_atom_site_type_symbol
_atom_type_description
_atom_site_fract_x
_atom_site_fract_y
_atom_site_fract_z
_atom_type_partial_charge
Ba1   Ba    Ba6+2 0.856210 0.551220 0.472190 1.643832
Ba2   Ba    Ba6+2 0.333620 0.448870 0.527810 1.656416
C1    C     C_3   0.630155 0.922618 0.305369 -0.377811
C2    C     C_3   0.641691 0.822496 0.334785 0.344239
C3    C     C_3   0.515025 0.302444 0.347693 0.288006
C4    C     C_3   0.532821 0.278604 0.281073 -0.357484
C5    C     C_3   0.015133 0.165762 0.692013 0.217396
C6    C     C_3   0.944054 0.073928 0.728423 0.511959
C7    C     C_3   0.480086 0.168356 0.682420 0.286925
C8    C     C_3   0.408472 0.078288 0.719501 0.616482
C9    C     C_R   0.341406 0.525097 0.332367 -0.292870
C10   C     C_R   0.133586 0.575632 0.936998 -0.117429
C11   C     C_R   0.080086 0.574691 0.878280 0.647959
C12   C     C_3   0.136931 0.798863 0.312012 0.323036
C13   C     C_R   0.945833 0.394897 0.880027 0.593932
C14   C     C_R   0.991819 0.395359 0.939514 -0.005886
C15   C     C_R   0.087371 0.485952 0.967973 -0.057743
C16   C     C_R   0.232436 0.664597 0.965506 -0.083070
C17   C     C_R   0.285487 0.664617 0.023266 0.628172
C18   C     C_R   0.238467 0.575569 0.055169 -0.109380
C19   C     C_R   0.137584 0.486601 0.027521 -0.119075
C20   C     C_R   0.945600 0.306365 0.971032 -0.037019
C21   C     C_R   0.992462 0.307676 0.029724 -0.057282
C22   C     C_R   0.088778 0.397543 0.058824 -0.003261
C23   C     C_3   0.093014 0.836087 0.253779 -0.247577
C24   C     C_R   0.137020 0.400054 0.118398 0.600645
C25   C     C_R   0.289598 0.573711 0.113901 0.610220
C26   C     C_2   0.790323 0.438450 0.769608 -0.046980
C27   C     C_3   0.760691 0.406604 0.704386 -0.043040
C28   C     C_1   0.007887 0.522785 0.685520 0.022507
C29   C     C_2   0.055609 0.523620 0.741220 -0.109059
C30   C     C_2   0.939345 0.483023 0.787902 0.169456
C31   C     C_R   0.425744 0.537804 0.230882 -0.094206
C32   C     C_R   0.459351 0.555305 0.291472 -0.035213
C33   C     C_R   0.190542 0.473591 0.313753 0.037790
C34   C     C_3   0.205129 0.782212 0.596576 0.295481
C35   C     C_R   0.153018 0.461929 0.252771 -0.107003
C36   C     C_R   0.270203 0.495598 0.210040 0.184867
C37   C     C_2   0.866834 0.474315 0.665675 -0.294783
C38   C     C_R   0.756744 0.179189 0.518315 -0.265548
C39   C     C_R   0.434085 0.809502 0.475236 -0.275221
C40   C     C_R   0.410396 0.987513 0.453537 -0.116055
C41   C     C_R   0.347671 0.879534 0.451241 -0.023322
C42   C     C_R   0.577422 0.847157 0.505785 0.052424
C43   C     C_R   0.639148 0.958508 0.510312 -0.059638
C44   C     C_R   0.556184 0.028575 0.482249 -0.058897
C45   C     C_3   0.138441 0.886029 0.606484 -0.329866
C46   C     C_R   0.617992 0.139072 0.486124 0.033888
C47   C     C_R   0.840246 0.111830 0.544765 0.007196
C48   C     C_R   0.780614 0.002508 0.541848 -0.090512
C49   C     C_3   0.991695 0.216050 0.401882 0.289065
C50   C     C_3   0.024536 0.101515 0.384982 -0.187578
C51   C     C_3   0.719717 0.692930 0.647061 0.354874
C52   C     C_3   0.731511 0.722036 0.713693 0.562682
H1    H     H_    0.722719 0.844447 0.373487 0.070004
H2    H     H_    0.191782 0.933006 0.646771 0.096697
H3    H     H_    0.164527 0.931457 0.567893 0.125807
H4    H     H_    0.008107 0.869668 0.614143 0.115704
H5    H     H_    0.866763 0.214345 0.416387 -0.030754
H6    H     H_    0.072796 0.253062 0.438538 0.080338
H7    H     H_    0.913357 0.049935 0.368456 0.097541
H8    H     H_    0.061572 0.069294 0.424840 0.127792
H9    H     H_    0.838706 0.678832 0.629851 -0.136641
H10   H     H_    0.631795 0.618968 0.637840 0.051222
H11   H     H_    0.589590 0.984450 0.338065 0.082229
H12   H     H_    0.820191 0.795291 0.723956 0.017334
H13   H     H_    0.770127 0.656010 0.734914 -0.066529
H14   H     H_    0.519975 0.791321 0.350212 -0.062397
H15   H     H_    0.543028 0.903398 0.268508 0.135223
H16   H     H_    0.399925 0.331839 0.357986 -0.027623
H17   H     H_    0.613516 0.365904 0.363326 0.094881
H18   H     H_    0.431059 0.219228 0.262921 0.121186
H19   H     H_    0.536297 0.352601 0.259456 0.071110
H20   H     H_    0.645851 0.246137 0.270707 0.143885
H21   H     H_    0.748409 0.954884 0.287575 0.131373
H22   H     H_    0.930410 0.212764 0.678374 -0.004346
H23   H     H_    0.036942 0.030047 0.742408 0.048157
H24   H     H_    0.859850 0.013348 0.701469 0.003585
H25   H     H_    0.444099 0.000081 0.702106 0.008502
H26   H     H_    0.079205 0.714670 0.313695 0.080297
H27   H     H_    0.278658 0.067454 0.717993 -0.032475
H28   H     H_    0.953004 0.237651 0.052243 0.135880
H29   H     H_    0.872028 0.235230 0.950464 0.161492
H30   H     H_    0.522037 0.557702 0.200271 0.134823
H31   H     H_    0.270429 0.734789 0.942948 0.174010
H32   H     H_    0.180002 0.550100 0.752697 0.158795
H33   H     H_    0.699488 0.410653 0.800936 0.142116
H34   H     H_    0.033479 0.426574 0.239037 0.129675
H35   H     H_    0.370550 0.536652 0.378940 0.078263
H36   H     H_    0.268788 0.804113 0.314180 -0.049915
H37   H     H_    0.838232 0.464066 0.618941 0.081445
H38   H     H_    0.340996 0.039096 0.434494 0.099077
H39   H     H_    0.846859 0.953386 0.564020 0.098070
H40   H     H_    0.803797 0.263570 0.521021 0.060900
H41   H     H_    0.383661 0.725851 0.473515 0.062089
H42   H     H_    0.961932 0.832447 0.250816 0.177564
H43   H     H_    0.149624 0.919861 0.251335 0.115303
H44   H     H_    0.336545 0.799603 0.591784 -0.005189
H45   H     H_    0.152549 0.737988 0.555059 0.060762
N1    N     N_R   0.988021 0.484580 0.849749 -0.433448
N2    N     N_R   0.231835 0.489465 0.146669 -0.433091
O1    O     O_2   0.890290 0.440320 0.360790 -0.460158
O2    O     O_3   0.670943 0.777897 0.621702 -0.636927
O3    O     O_3   0.081325 0.865724 0.358337 -0.609490
O4    O     O_2   0.299410 0.559720 0.639240 -0.425679
O5    O     O_3   0.058870 0.558650 0.568170 -0.506365
O6    O     O_3   0.517310 0.362160 0.604450 -0.492938
O7    O     O_3   0.169499 0.730249 0.647271 -0.601452
O8    O     O_3   0.614910 0.369290 0.471050 -0.480831
O9    O     O_3   0.099190 0.306290 0.575790 -0.483500
O10   O     O_2   0.155137 0.116745 0.530614 -0.490917
O11   O     O_3   0.092779 0.121686 0.641993 -0.665105
O12   O     O_3   0.130840 0.441440 0.431840 -0.502030
O13   O     O_3   0.574800 0.630800 0.528960 -0.485161
O14   O     O_2   0.344900 0.234690 0.472540 -0.467679
O15   O     O_3   0.519722 0.208104 0.373670 -0.654474
O16   O     O_2   0.458799 0.473575 0.707700 -0.456115
O17   O     O_3   0.449200 0.267909 0.712137 -0.582784
O18   O     O_2   0.114212 0.654839 0.852908 -0.552150
O19   O     O_2   0.869827 0.313538 0.855047 -0.518601
O20   O     O_2   0.096903 0.321469 0.144570 -0.590123
O21   O     O_2   0.386052 0.647936 0.135723 -0.541941
O22   O     O_3   0.672400 0.637930 0.395560 -0.484579
O23   O     O_2   0.792810 0.560866 0.292867 -0.486858
O24   O     O_3   0.011953 0.270508 0.351685 -0.627012
O25   O     O_3   0.703760 0.747686 0.294053 -0.586075
O26   O     O_2   0.844800 0.765340 0.527490 -0.469219
O27   O     O_3   0.090520 0.693800 0.424220 -0.482162
O28   O     O_2   0.025804 0.881857 0.469572 -0.475852
P1    P     P_3+3 0.057140 0.408270 0.369700 0.991449
P2    P     P_3+3 0.667360 0.749400 0.544670 0.983255
P3    P     P_3+3 0.140849 0.831405 0.425582 0.930337
P4    P     P_3+3 0.132580 0.591820 0.630310 1.027006
P5    P     P_3+3 0.039898 0.166550 0.575007 0.882856
P6    P     P_3+3 0.657103 0.621136 0.318478 0.965514
P7    P     P_3+3 0.524020 0.236510 0.450627 0.931420
P8    P     P_3+3 0.547167 0.381424 0.681287 0.958371
C53   C     C_3   0.154565 0.096914 0.337267 -0.290638
H46   H     H_    0.099884 0.087692 0.292736 0.130723
H47   H     H_    0.239766 0.171324 0.341445 0.139180
H48   H     H_    0.225500 0.032254 0.341089 0.122597
F1    F     F_    0.584371 0.740174 0.736545 -0.637324
C54   C     C_3   0.150875 0.768225 0.201339 -0.399393
H49   H     H_    0.099608 0.682863 0.202614 0.129658
H50   H     H_    0.114383 0.795059 0.159568 0.176983
H51   H     H_    0.282955 0.778738 0.203056 0.196173
C55   C     C_3   0.122269 0.251634 0.730797 -0.257472
H52   H     H_    0.047456 0.295402 0.762081 0.127935
H53   H     H_    0.201713 0.217796 0.758990 0.172764
H54   H     H_    0.186485 0.311026 0.703203 0.132782
F2    F     F_    0.868725 0.111474 0.779235 -0.637616
C56   C     C_3   0.653793 0.163160 0.678273 -0.305356
H55   H     H_    0.708587 0.215967 0.645478 0.005032
H56   H     H_    0.703944 0.190530 0.722788 0.214955
H57   H     H_    0.674788 0.081241 0.661633 0.038641
C57   C     C_3   0.413644 0.148048 0.619614 -0.278326
H58   H     H_    0.505524 0.164416 0.586316 0.075743
H59   H     H_    0.358465 0.064542 0.607647 0.057964
H60   H     H_    0.334587 0.206328 0.614204 0.220082
F3    F     F_    0.455875 0.102286 0.777948 -0.612720
F4    F     F_    0.381117 0.753324 0.047881 -0.643764

loop_
_geom_bond_atom_site_label_1
_geom_bond_atom_site_label_2
_ccdc_geom_bond_type
C54   H51   S    
C47   P5    S    
Ba2   O8    S    
C21   H28   S    
C34   O7    S    
C51   H9    S    
O13   P2    S    
C35   H34   S    
C17   C18   A    
Ba1   O27   S    
C13   N1    Am   
C5    C6    S    
C7    C56   S    
C1    H11   S    
C51   C52   S    
C13   O19   D    
C42   P2    S    
C4    H18   S    
C10   C11   A    
C35   C36   A    
C43   C48   A    
C26   C27   S    
C1    H15   S    
C22   C24   A    
Ba1   Ba2   S    
C36   N2    S    
C50   H7    S    
C24   N2    Am   
C40   C44   A    
C28   C29   D    
Ba2   O12   S    
O14   P7    D    
C38   C47   A    
Ba2   O6    S    
C5    O11   S    
C34   C45   S    
C38   C46   A    
C16   C17   A    
C17   F4    S    
C39   H41   S    
C12   H36   S    
Ba1   O8    S    
O24   P1    S    
O5    P4    S    
Ba2   O9    S    
C55   H52   S    
C7    C57   S    
C14   C15   A    
C10   C15   A    
C50   C53   S    
C21   C22   A    
C24   O20   D    
C12   H26   S    
O17   P8    S    
C1    H21   S    
C7    C8    S    
Ba1   O5    S    
O28   P3    D    
C29   H32   S    
O8    P7    S    
C6    H24   S    
C7    O17   S    
C39   C41   A    
C23   C54   S    
Ba1   O12   S    
O27   P3    S    
C37   H37   S    
C11   O18   D    
C25   O21   D    
C4    H20   S    
C5    C55   S    
C9    C32   A    
C44   C46   A    
C55   H53   S    
C16   H31   S    
O12   P1    S    
C49   C50   S    
Ba2   P4    S    
Ba1   O26   S    
C26   C30   D    
C6    F2    S    
Ba1   P1    S    
C38   H40   S    
C2    H14   S    
C52   H13   S    
C43   C44   A    
C25   N2    Am   
C15   C19   A    
C30   N1    S    
O22   P6    S    
C49   O24   S    
O6    P8    S    
Ba1   O22   S    
C3    H16   S    
C45   H3    S    
Ba2   O14   S    
C9    H35   S    
C12   O3    S    
C29   C30   S    
C56   H57   S    
C28   P4    S    
C27   C37   S    
C26   H33   S    
C31   C32   A    
C48   H39   S    
C56   H55   S    
C33   P1    S    
C53   H47   S    
C52   H12   S    
C23   H43   S    
C52   F1    S    
C56   H56   S    
O25   P6    S    
C2    H1    S    
O3    P3    S    
C6    H23   S    
C39   C42   A    
O9    P5    S    
C49   H5    S    
Ba1   O13   S    
C1    C2    S    
C8    F3    S    
C55   H54   S    
C42   C43   A    
C4    H19   S    
O4    P4    D    
C54   H50   S    
C57   H58   S    
C14   C20   A    
C8    H27   S    
O23   P6    D    
C33   C35   A    
C46   P7    S    
C57   H60   S    
O16   P8    D    
O1    P1    D    
O11   P5    S    
Ba1   P2    S    
C53   H48   S    
C8    H25   S    
O10   P5    D    
C5    H22   S    
O15   P7    S    
C18   C25   A    
C27   P8    S    
Ba2   O4    S    
C31   C36   A    
C2    O25   S    
C20   H29   S    
C11   N1    Am   
C9    C33   A    
C54   H49   S    
O7    P4    S    
C3    O15   S    
C50   H8    S    
C45   H4    S    
Ba2   O13   S    
C3    C4    S    
C32   P6    S    
C51   O2    S    
C57   H59   S    
C51   H10   S    
Ba2   O5    S    
C28   C37   D    
C41   P3    S    
C34   H45   S    
C40   H38   S    
C12   C23   S    
C31   H30   S    
O26   P2    D    
C53   H46   S    
C18   C19   A    
C23   H42   S    
C3    H17   S    
C47   C48   A    
C40   C41   A    
C19   C22   A    
C10   C16   A    
C20   C21   A    
C34   H44   S    
C49   H6    S    
O2    P2    S    
Ba1   O1    S    
C13   C14   A    
C45   H2    S    
