data_mof_unit_62711.cif
_audit_creation_date              2013-03-05T16:52:29-0500
_audit_creation_method            fapswitch 2.2
_symmetry_space_group_name_H-M    P1
_symmetry_Int_Tables_number       1
_space_group_crystal_system       triclinic
_cell_length_a                    15.847173
_cell_length_b                    15.064577
_cell_length_c                    27.750533
_cell_angle_alpha                 89.873031
_cell_angle_beta                  89.981003
_cell_angle_gamma                 90.008469
_cell_volume                      6624.89462111

loop_
_atom_site_label
_atom_site_type_symbol
_atom_site_description
_atom_site_fract_x
_atom_site_fract_y
_atom_site_fract_z
_atom_type_partial_charge
O1    O     O_R   0.378020 0.573650 0.500020 -0.606545
O2    O     O_R   0.621980 0.426350 0.499980 -0.606544
O3    O     O_R   0.621980 0.573650 0.499980 -0.606115
O4    O     O_R   0.378020 0.426350 0.500020 -0.606115
C1    C     C_R   0.338857 0.499995 0.500028 0.914767
C2    C     C_R   0.661143 0.500005 0.499972 0.914766
O5    O     O_R   0.500010 0.573660 0.428760 -0.613550
O6    O     O_R   0.499990 0.426340 0.571240 -0.613549
O7    O     O_R   0.499990 0.573660 0.571240 -0.612787
O8    O     O_R   0.500010 0.426340 0.428760 -0.612788
C3    C     C_R   0.499993 0.500110 0.405766 0.878938
C4    C     C_R   0.500007 0.499890 0.594234 0.878937
Zn1   Zn    Zn3+2 0.500000 0.598370 0.500000 1.016475
Zn2   Zn    Zn3+2 0.500000 0.401630 0.500000 1.016475
C5    C     C_R   0.426737 0.524165 0.177843 0.517556
C6    C     C_R   0.573263 0.475837 0.822158 0.517555
O9    O     O_2   0.355201 0.533093 0.203685 -0.563971
O10   O     O_2   0.644800 0.466913 0.796315 -0.563969
N1    N     N_R   0.499463 0.502194 0.201393 -0.352102
N2    N     N_R   0.500537 0.497806 0.798607 -0.352101
C7    C     C_R   0.570686 0.477744 0.177383 0.517107
C8    C     C_R   0.429313 0.522253 0.822617 0.517107
C9    C     C_R   0.503375 0.420734 0.277620 -0.076890
C10   C     C_R   0.496621 0.579266 0.722380 -0.076890
C11   C     C_R   0.503370 0.420128 0.327681 -0.193098
C12   C     C_R   0.496626 0.579872 0.672319 -0.193098
C13   C     C_R   0.496313 0.581321 0.327923 -0.187215
C14   C     C_R   0.503691 0.418679 0.672077 -0.187214
C15   C     C_R   0.496159 0.581683 0.277879 -0.101092
C16   C     C_R   0.503844 0.418317 0.722121 -0.101091
C17   C     C_R   0.499879 0.501486 0.252755 0.305702
C18   C     C_R   0.500120 0.498514 0.747245 0.305701
C19   C     C_R   0.498429 0.502631 0.101686 -0.077939
C20   C     C_R   0.501570 0.497369 0.898314 -0.077940
C21   C     C_R   0.425700 0.531022 0.127053 -0.099521
C22   C     C_R   0.574300 0.468979 0.872947 -0.099521
C23   C     C_R   0.353001 0.556706 0.100560 0.149827
C24   C     C_R   0.646999 0.443296 0.899440 0.149828
C25   C     C_R   0.570717 0.474686 0.127217 -0.006473
C26   C     C_R   0.429282 0.525313 0.872783 -0.006473
C27   C     C_R   0.499915 0.500489 0.353144 -0.061516
C28   C     C_R   0.500085 0.499511 0.646856 -0.061516
H1    H     H_    0.493488 0.644124 0.346781 0.188985
H2    H     H_    0.506518 0.355876 0.653219 0.188984
H3    H     H_    0.493366 0.644126 0.258532 0.150358
H4    H     H_    0.506639 0.355874 0.741468 0.150357
C29   C     C_R   0.426632 0.524206 0.974230 0.087941
C30   C     C_R   0.573367 0.475794 0.025771 0.087941
C31   C     C_R   0.575955 0.479617 0.974849 -0.046576
C32   C     C_R   0.424044 0.520384 0.025151 -0.046575
C33   C     C_R   0.500952 0.498528 0.949303 0.053331
C34   C     C_R   0.499048 0.501473 0.050697 0.053331
C35   C     C_R   0.359855 0.561274 0.947492 -0.171813
C36   C     C_R   0.640143 0.438724 0.052508 -0.171814
C37   C     C_R   0.359793 0.559057 0.897652 -0.120113
C38   C     C_R   0.640206 0.440940 0.102348 -0.120114
O11   O     O_2   0.359046 0.544305 0.797815 -0.545262
O12   O     O_2   0.640952 0.455689 0.202185 -0.545262
C39   C     C_R   0.348705 0.533301 0.051740 0.115747
C40   C     C_R   0.651295 0.466699 0.948260 0.115747
H5    H     H_    0.493869 0.643009 0.653637 0.189141
H6    H     H_    0.506125 0.356991 0.346362 0.189141
H7    H     H_    0.494152 0.641352 0.741928 0.155749
H8    H     H_    0.505842 0.358648 0.258072 0.155749
H9    H     H_    0.305787 0.586012 0.878680 0.198714
H10   H     H_    0.694211 0.413984 0.121320 0.198714
H11   H     H_    0.308175 0.595425 0.964684 0.174450
H12   H     H_    0.691823 0.404573 0.035316 0.174451
H13   H     H_    0.077695 0.641903 0.510578 0.154755
H14   H     H_    0.922305 0.358097 0.489422 0.154755
H15   H     H_    0.922355 0.641929 0.510546 0.154719
H16   H     H_    0.077645 0.358071 0.489454 0.154719
C41   C     C_R   0.956265 0.580045 0.505947 -0.163496
C42   C     C_R   0.043735 0.419955 0.494053 -0.163496
C43   C     C_R   0.043762 0.580031 0.505966 -0.163342
C44   C     C_R   0.956238 0.419969 0.494034 -0.163342
C45   C     C_R   0.913148 0.500014 0.499981 0.159827
C46   C     C_R   0.086852 0.499986 0.500019 0.159827
C47   C     C_1   0.824370 0.500023 0.499970 -0.050839
C48   C     C_1   0.175629 0.499977 0.500029 -0.050839
C49   C     C_1   0.250468 0.499982 0.500032 -0.155064
C50   C     C_1   0.749532 0.500018 0.499968 -0.155065
C51   C     C_R   0.499666 0.952976 0.456127 0.134886
C52   C     C_R   0.500334 0.047024 0.543873 0.134886
C53   C     C_R   0.500321 0.952618 0.543872 0.134961
C54   C     C_R   0.499679 0.047382 0.456128 0.134960
C55   C     C_R   0.499992 0.905086 0.500000 -0.126311
C56   C     C_R   0.500008 0.094914 0.500000 -0.126311
C57   C     C_1   0.499996 0.807102 0.500000 0.205323
C58   C     C_1   0.500004 0.192898 0.500000 0.205323
N3    N     N_1   0.500000 0.270550 0.500000 -0.080907
N4    N     N_1   0.500000 0.729450 0.500000 -0.080907
I1    I     I_    0.499218 0.120128 0.389832 -0.290821
I2    I     I_    0.500782 0.879872 0.610168 -0.290822
I3    I     I_    0.500861 0.119228 0.610169 -0.293810
I4    I     I_    0.499139 0.880772 0.389831 -0.293809
C59   C     C_3   0.281755 0.612679 0.121634 -0.318010
C60   C     C_3   0.261682 0.693702 0.090193 -0.853331
H17   H     H_    0.319506 0.734147 0.084548 0.263117
H18   H     H_    0.235981 0.673833 0.054663 0.279746
H19   H     H_    0.213631 0.735493 0.108436 0.267041
H20   H     H_    0.224170 0.571569 0.126381 0.248279
H21   H     H_    0.298902 0.641443 0.156891 0.255023
C61   C     C_3   0.718244 0.387322 0.878366 -0.318009
C62   C     C_3   0.738316 0.306297 0.909806 -0.853330
H22   H     H_    0.764019 0.326165 0.945336 0.279746
H23   H     H_    0.680490 0.265855 0.915452 0.263117
H24   H     H_    0.786364 0.264504 0.891563 0.267040
H25   H     H_    0.701098 0.358560 0.843109 0.255021
H26   H     H_    0.775831 0.428431 0.873620 0.248278
I5    I     I_    0.229958 0.479735 0.028027 -0.333955
I6    I     I_    0.770042 0.520263 0.971974 -0.333955

loop_
_geom_bond_atom_site_label_1
_geom_bond_atom_site_label_2
_geom_bond_distance
_ccdc_geom_bond_type
C51   C55   1.413821 A    
C2    C50   1.400724 S    
C13   C15   1.388755 A    
O3    C2    1.271297 A    
N1    C17   1.425370 S    
C8    O11   1.350428 S    
C23   C59   1.526368 S    
C59   C60   1.532262 S    
C19   C34   1.415143 A    
C30   C36   1.407501 A    
C62   H23   1.111206 S    
C20   C33   1.415141 A    
C19   C25   1.410976 A    
C31   C40   1.416993 A    
C42   C44   1.386585 A    
C20   C26   1.410977 A    
C32   C39   1.416990 A    
N1    C7    1.361704 A    
C12   H5    1.083130 S    
C10   C12   1.389246 A    
C61   H25   1.104946 S    
C46   C48   1.406869 S    
C36   H12   1.078880 S    
O7    Zn1   2.010875 S    
C4    C28   1.460294 S    
C5    N1    1.365496 A    
C31   C33   1.412890 A    
C39   I5    2.151311 S    
H13   C43   1.083858 S    
C16   C18   1.397444 A    
C20   C22   1.416961 A    
C59   H20   1.110430 S    
O3    Zn1   1.968635 S    
O6    C4    1.279821 A    
C29   C35   1.407502 A    
C35   C37   1.383559 A    
C41   C43   1.386585 A    
O2    C2    1.271279 A    
C35   H11   1.078882 S    
C5    C21   1.413097 A    
C61   C62   1.532263 S    
C37   H9    1.083515 S    
C29   C32   1.414722 A    
C45   C47   1.406869 S    
C62   H24   1.110746 S    
C36   C38   1.383561 A    
C53   C55   1.413824 A    
C44   C45   1.395934 A    
H16   C42   1.083878 S    
O8    Zn2   2.010880 S    
C11   C27   1.404151 A    
H15   C41   1.083878 S    
O4    C1    1.271296 A    
C29   C33   1.419872 A    
C14   H2    1.083133 S    
C15   H3    1.082997 S    
C52   I3    2.139337 S    
C9    C17   1.398341 A    
O5    C3    1.279820 A    
C10   C18   1.398342 A    
C40   I6    2.151311 S    
C54   I1    2.139323 S    
C1    C49   1.400725 S    
C53   I2    2.139323 S    
C13   C27   1.404349 A    
C32   C34   1.412888 A    
C25   C38   1.395922 A    
C7    C25   1.392992 A    
C30   C34   1.419870 A    
C6    N2    1.365497 A    
C26   C37   1.395924 A    
C8    C26   1.392990 A    
C23   C39   1.402328 A    
C52   C53   1.422195 A    
C57   N4    1.169789 T    
C59   H21   1.104943 S    
C24   C40   1.402325 A    
C9    H8    1.082962 S    
C56   C58   1.476088 S    
C10   H7    1.082962 S    
C60   H18   1.108674 S    
O8    C3    1.280253 A    
C55   C57   1.476088 S    
Zn1   N4    1.974666 S    
H14   C44   1.083858 S    
O1    C1    1.271278 A    
O1    Zn1   1.968529 S    
C22   C24   1.420180 A    
C12   C28   1.404151 A    
N2    C18   1.425368 S    
C5    O9    1.348135 S    
C30   C31   1.414722 A    
O6    Zn2   2.012496 S    
C21   C23   1.420180 A    
C16   H4    1.082998 S    
C52   C56   1.413821 A    
N2    C8    1.361707 A    
C48   C49   1.185971 T    
C47   C50   1.185972 T    
C24   C61   1.526368 S    
C60   H19   1.110745 S    
C62   H22   1.108675 S    
C14   C16   1.388752 A    
C7    O12   1.350429 S    
C15   C17   1.397440 A    
C6    C22   1.413092 A    
C61   H26   1.110431 S    
C58   N3    1.169789 T    
C38   H10   1.083515 S    
C51   I4    2.139337 S    
C14   C28   1.404348 A    
C19   C21   1.416961 A    
C3    C27   1.460291 S    
C54   C56   1.413824 A    
C11   H6    1.083128 S    
C9    C11   1.389246 A    
O4    Zn2   1.968638 S    
O2    Zn2   1.968526 S    
C43   C46   1.395934 A    
Zn2   N3    1.974666 S    
O7    C4    1.280255 A    
C13   H1    1.083131 S    
O5    Zn1   2.012502 S    
C51   C54   1.422195 A    
C6    O10   1.348139 S    
C60   H17   1.111205 S    
C42   C46   1.395905 A    
C41   C45   1.395905 A    
