data_mof_unit_46925.cif
_audit_creation_date              2012-12-10T18:42:33-0500
_audit_creation_method            fapswitch 2.2
_symmetry_space_group_name_H-M    P1
_symmetry_Int_Tables_number       1
_space_group_crystal_system       triclinic
_cell_length_a                    8.567965
_cell_length_b                    10.731694
_cell_length_c                    9.883251
_cell_angle_alpha                 89.142478
_cell_angle_beta                  97.93023
_cell_angle_gamma                 91.47247
_cell_volume                      899.705207933

loop_
_atom_site_label
_atom_site_type_symbol
_atom_type_description
_atom_site_fract_x
_atom_site_fract_y
_atom_site_fract_z
_atom_type_partial_charge
C1    C     C_R   0.506895 0.260321 0.501181 0.876062
C2    C     C_R   0.452175 0.064077 0.608187 -0.234597
C3    C     C_R   0.487258 0.872322 0.497959 -0.082646
C4    C     C_R   0.512704 0.127675 0.502042 -0.082568
C5    C     C_R   0.603610 0.575002 0.080765 0.203918
C6    C     C_R   0.396377 0.425014 0.919234 0.203686
C7    C     C_R   0.602960 0.574389 0.937747 -0.122774
C8    C     C_R   0.397018 0.425631 0.062251 -0.122632
C9    C     C_R   0.641305 0.124856 0.283351 0.146854
C10   C     C_R   0.570240 0.117662 0.146651 -0.148114
C11   C     C_R   0.643201 0.174396 0.042697 -0.137098
C12   C     C_R   0.493105 0.739678 0.498818 0.876036
C13   C     C_R   0.787807 0.237846 0.074259 -0.092399
C14   C     C_R   0.860048 0.244238 0.209793 -0.115892
C15   C     C_R   0.787033 0.188417 0.314304 -0.102802
C16   C     C_R   0.358387 0.875154 0.716521 0.146714
C17   C     C_R   0.212856 0.811374 0.685330 -0.102517
C18   C     C_R   0.139537 0.755662 0.789708 -0.115935
C19   C     C_R   0.211293 0.762350 0.925352 -0.092554
C20   C     C_R   0.355726 0.825984 0.957149 -0.136779
C21   C     C_R   0.428973 0.882640 0.853324 -0.148221
C22   C     C_R   0.201494 0.499636 0.464602 0.972737
C23   C     C_R   0.798505 0.500327 0.535397 0.972783
C24   C     C_2   0.036756 0.498444 0.445405 -0.374561
C25   C     C_2   0.963239 0.501443 0.554588 -0.374661
C26   C     C_R   0.564410 0.063561 0.393471 -0.006866
C27   C     C_R   0.435509 0.936434 0.606523 -0.006696
C28   C     C_R   0.547762 0.935916 0.391821 -0.234678
H1    H     H_    0.976373 0.494708 0.341391 0.198621
H2    H     H_    0.973075 0.291891 0.233652 0.130917
H3    H     H_    0.844104 0.194106 0.418969 0.120037
H4    H     H_    0.156150 0.805455 0.580581 0.119914
H5    H     H_    0.026624 0.707887 0.765655 0.130913
H6    H     H_    0.154704 0.718615 0.005852 0.151233
H7    H     H_    0.411059 0.831166 0.062253 0.149763
H8    H     H_    0.541215 0.931222 0.879197 0.138558
H9    H     H_    0.023621 0.505165 0.658599 0.198635
H10   H     H_    0.588159 0.886141 0.309504 0.190415
H11   H     H_    0.411738 0.113857 0.690484 0.190322
H12   H     H_    0.684668 0.634028 0.890985 0.159709
H13   H     H_    0.315305 0.365998 0.109013 0.159686
H14   H     H_    0.457831 0.069262 0.120967 0.138481
H15   H     H_    0.587490 0.169450 0.937673 0.149916
H16   H     H_    0.844118 0.281685 0.993655 0.151185
I1    I     I_    0.770989 0.698399 0.188019 -0.453591
I2    I     I_    0.229011 0.301608 0.811996 -0.453737
N1    N     N_R   0.499960 0.499970 0.857200 -0.102490
N2    N     N_R   0.500040 0.500030 0.142800 -0.102470
O1    O     O_R   0.499990 0.316750 0.614620 -0.604769
O2    O     O_R   0.500010 0.683250 0.385380 -0.604726
O3    O     O_R   0.499990 0.316780 0.385290 -0.616996
O4    O     O_R   0.500010 0.683220 0.614710 -0.616975
O5    O     O_R   0.271750 0.499990 0.587840 -0.584764
O6    O     O_R   0.728250 0.500010 0.412160 -0.584761
O7    O     O_R   0.271750 0.500010 0.358510 -0.632286
O8    O     O_R   0.728250 0.499990 0.641490 -0.632312
Zn1   Zn    Zn3+2 0.500000 0.499980 0.653120 0.973858
Zn2   Zn    Zn3+2 0.500000 0.500020 0.346880 0.973911

loop_
_geom_bond_atom_site_label_1
_geom_bond_atom_site_label_2
_ccdc_geom_bond_type
C4    C26   A    
C7    H12   S    
C8    N2    A    
C24   C25   D    
C11   H15   S    
C16   C21   A    
C26   C28   A    
N1    Zn1   S    
C11   C13   A    
C9    C10   A    
C18   H5    S    
C2    C4    A    
C19   C20   A    
C28   H10   S    
C1    C4    S    
C16   C27   S    
C3    C27   A    
C17   C18   A    
C9    C15   A    
C22   O7    A    
C23   O8    A    
O3    Zn2   S    
C13   C14   A    
C8    H13   S    
N2    Zn2   S    
C1    O3    A    
C2    C27   A    
C1    O1    A    
C14   H2    S    
C2    H11   S    
C3    C28   A    
C12   O4    A    
C9    C26   S    
C22   O5    A    
C23   C25   S    
O6    Zn2   S    
C5    N2    A    
C22   C24   S    
C10   H14   S    
O8    Zn1   S    
O4    Zn1   S    
O2    Zn2   S    
C6    N1    A    
O1    Zn1   S    
C20   C21   A    
C23   O6    A    
C5    C7    A    
C18   C19   A    
C10   C11   A    
O7    Zn2   S    
C21   H8    S    
C17   H4    S    
O5    Zn1   S    
C14   C15   A    
C16   C17   A    
C6    C8    A    
C3    C12   S    
C6    I2    S    
C25   H9    S    
C24   H1    S    
C20   H7    S    
C5    I1    S    
C15   H3    S    
C13   H16   S    
C12   O2    A    
C19   H6    S    
C7    N1    A    
