data_mof_unit_43364.cif
_audit_creation_date              2012-12-11T19:42:20-0500
_audit_creation_method            fapswitch 2.2
_symmetry_space_group_name_H-M    P1
_symmetry_Int_Tables_number       1
_space_group_crystal_system       triclinic
_cell_length_a                    8.184412
_cell_length_b                    15.14558
_cell_length_c                    26.969105
_cell_angle_alpha                 98.696344
_cell_angle_beta                  92.545411
_cell_angle_gamma                 81.22673
_cell_volume                      3265.14943606

loop_
_atom_site_label
_atom_site_type_symbol
_atom_type_description
_atom_site_fract_x
_atom_site_fract_y
_atom_site_fract_z
_atom_type_partial_charge
Ba1   Ba    Ba6+2 0.860050 0.456430 0.522530 1.645591
Ba2   Ba    Ba6+2 0.329780 0.543490 0.477460 1.659154
C1    C     C_3   0.687057 0.139105 0.650856 -0.358341
C2    C     C_R   0.904422 0.585350 0.179790 0.571057
C3    C     C_2   0.750854 0.554772 0.272766 -0.009149
C4    C     C_3   0.190306 0.258575 0.655682 0.290429
C5    C     C_3   0.731301 0.587988 0.327951 -0.054272
C6    C     C_1   0.983802 0.483712 0.342423 0.017295
C7    C     C_2   0.023772 0.476277 0.294172 -0.105490
C8    C     C_2   0.900116 0.512104 0.255868 0.200428
C9    C     C_R   0.020673 0.503914 0.101140 -0.079963
C10   C     C_R   0.062612 0.426509 0.124869 -0.036775
C11   C     C_R   0.144382 0.347689 0.096979 -0.050243
C12   C     C_3   0.683743 0.229136 0.632212 0.340969
C13   C     C_R   0.942526 0.583853 0.129101 -0.018766
C14   C     C_2   0.846447 0.533429 0.360935 -0.301647
C15   C     C_2   0.356826 0.481565 0.640489 -0.289040
C16   C     C_3   0.157578 0.242755 0.708398 -0.341235
C17   C     C_R   0.195875 0.424190 0.972234 0.035329
C18   C     C_R   0.029423 0.574570 0.972845 0.012753
C19   C     C_R   0.133896 0.499295 0.947296 -0.005388
C20   C     C_R   0.305286 0.352924 0.945890 -0.092026
C21   C     C_R   0.348789 0.354301 0.896608 -0.056491
C22   C     C_R   0.284499 0.426441 0.871035 -0.015530
C23   C     C_3   0.482805 0.686282 0.631458 0.326332
C24   C     C_R   0.175843 0.498753 0.896249 -0.083063
C25   C     C_R   0.109211 0.570504 0.870406 -0.070411
C26   C     C_R   0.154798 0.570457 0.820327 0.610076
C27   C     C_R   0.326441 0.427436 0.820688 0.577634
C28   C     C_3   0.223515 0.267203 0.413444 0.309841
C29   C     C_2   0.463556 0.484636 0.728892 -0.069764
C30   C     C_3   0.505999 0.489214 0.675073 -0.051500
C31   C     C_1   0.210173 0.519367 0.657068 0.035946
C32   C     C_2   0.170516 0.518655 0.704288 -0.102895
C33   C     C_2   0.303462 0.499388 0.743375 0.194698
C34   C     C_3   0.446833 0.722753 0.686221 -0.333284
C35   C     C_R   0.147674 0.423027 0.022511 0.022180
C36   C     C_R   0.057853 0.501824 0.049493 0.036705
C37   C     C_R   0.006656 0.579209 0.025564 0.038502
C38   C     C_R   0.186955 0.346011 0.047167 -0.096221
C39   C     C_R   0.907899 0.662058 0.106279 -0.079476
C40   C     C_3   0.279632 0.166898 0.396567 -0.398779
C41   C     C_R   0.948300 0.641011 0.944245 0.369862
C42   C     C_R   0.993847 0.639789 0.894435 -0.112788
C43   C     C_R   0.941794 0.660158 0.056018 -0.047892
C44   C     C_R   0.847890 0.833159 0.464375 0.035349
C45   C     C_3   0.038305 0.729005 0.342996 0.355698
C46   C     C_R   0.783585 0.927092 0.469273 -0.046554
C47   C     C_R   0.645154 0.113873 0.481369 -0.072093
C48   C     C_R   0.785917 0.080821 0.452644 -0.091900
C49   C     C_R   0.859722 0.990373 0.448099 0.371008
C50   C     C_R   0.579545 0.207097 0.488931 0.080341
C51   C     C_R   0.435909 0.236335 0.516286 -0.295475
C52   C     C_3   0.983394 0.734649 0.585685 0.349445
C53   C     C_R   0.617685 0.805235 0.511268 0.019045
C54   C     C_R   0.553444 0.897780 0.517828 -0.011607
C55   C     C_R   0.634511 0.958790 0.496282 -0.051972
C56   C     C_3   0.056933 0.748762 0.290055 -0.297961
C57   C     C_R   0.409816 0.930932 0.545491 -0.026099
C58   C     C_R   0.342493 0.021286 0.550579 -0.089415
C59   C     C_R   0.418857 0.083061 0.529588 -0.017720
C60   C     C_R   0.567217 0.052061 0.502814 -0.000076
C61   C     C_R   0.350881 0.175148 0.534557 -0.011520
C62   C     C_R   0.759678 0.774171 0.483546 -0.334409
C63   C     C_3   0.995028 0.835736 0.597339 -0.222207
C64   C     C_3   0.750392 0.306107 0.366324 0.260791
C65   C     C_3   0.840757 0.238710 0.324755 -0.263866
C66   C     C_2   0.885914 0.885472 0.639152 0.535530
C67   C     C_3   0.497960 0.789000 0.372011 0.362383
C68   C     C_2   0.637291 0.379262 0.345479 0.475076
C69   C     C_3   0.445014 0.882742 0.357743 -0.344779
C70   C     C_R   0.021164 0.429422 0.175831 0.614938
H1    H     H_    0.796757 0.225495 0.610262 0.108301
H2    H     H_    0.798610 0.125517 0.675086 0.132546
H3    H     H_    0.921754 0.184936 0.341534 0.087581
H4    H     H_    0.917667 0.273236 0.303140 0.118101
H5    H     H_    0.750970 0.206226 0.298713 0.140741
H6    H     H_    0.572756 0.240380 0.607741 -0.037175
H7    H     H_    0.690404 0.084282 0.618348 0.065139
H8    H     H_    0.368005 0.664991 0.613303 0.009877
H9    H     H_    0.582562 0.627379 0.629350 0.029340
H10   H     H_    0.353149 0.784515 0.688769 0.134029
H11   H     H_    0.397431 0.671959 0.704562 0.060367
H12   H     H_    0.386240 0.157532 0.371265 0.147349
H13   H     H_    0.561903 0.739570 0.706387 0.155678
H14   H     H_    0.574839 0.140087 0.672730 0.129968
H15   H     H_    0.210692 0.292882 0.736189 0.126329
H16   H     H_    0.119130 0.664696 0.347474 0.079639
H17   H     H_    0.907522 0.722179 0.348045 -0.069967
H18   H     H_    0.169013 0.780619 0.287401 0.151280
H19   H     H_    0.069918 0.684678 0.263666 0.110546
H20   H     H_    0.947256 0.795141 0.279096 0.125539
H21   H     H_    0.635147 0.774880 0.371215 -0.071503
H22   H     H_    0.456526 0.789436 0.410712 0.077420
H23   H     H_    0.316742 0.131741 0.429291 0.061450
H24   H     H_    0.501850 0.933317 0.384449 0.063331
H25   H     H_    0.308544 0.900774 0.359066 0.169088
H26   H     H_    0.137972 0.329443 0.652152 0.075856
H27   H     H_    0.486026 0.884682 0.319273 0.117454
H28   H     H_    0.148245 0.447358 0.282628 0.146065
H29   H     H_    0.177144 0.286560 0.113751 0.126184
H30   H     H_    0.563364 0.475039 0.756328 0.108525
H31   H     H_    0.433728 0.297943 0.878473 0.122731
H32   H     H_    0.363222 0.295705 0.962871 0.070306
H33   H     H_    0.247627 0.282274 0.028493 0.072432
H34   H     H_    0.177618 0.135218 0.376337 0.107503
H35   H     H_    0.654857 0.578917 0.246916 0.111385
H36   H     H_    0.855617 0.725961 0.127456 0.127305
H37   H     H_    0.325839 0.248412 0.650395 -0.012897
H38   H     H_    0.934156 0.692421 0.873819 0.119795
H39   H     H_    0.042009 0.532555 0.714959 0.134471
H40   H     H_    0.923352 0.724504 0.042558 0.144499
H41   H     H_    0.831074 0.550618 0.401166 0.081155
H42   H     H_    0.370369 0.446896 0.602251 0.075780
H43   H     H_    0.843214 0.124817 0.433326 0.094853
H44   H     H_    0.230460 0.041762 0.571659 0.101763
H45   H     H_    0.854497 0.724399 0.576842 0.000529
H46   H     H_    0.345331 0.887648 0.563251 0.093400
H47   H     H_    0.384451 0.307157 0.520819 0.068585
H48   H     H_    0.022290 0.250462 0.714145 0.146615
H49   H     H_    0.807975 0.702933 0.479679 0.060608
H50   H     H_    0.215068 0.173714 0.714282 0.121294
H51   H     H_    0.330671 0.298934 0.429340 0.019143
H52   H     H_    0.128821 0.275011 0.442503 0.063150
H53   H     H_    0.889922 0.956785 0.650824 -0.028865
H54   H     H_    0.583453 0.436225 0.371623 0.034528
H55   H     H_    0.771403 0.741944 0.938637 0.306733
H56   H     H_    0.059583 0.706793 0.552373 0.044761
H57   H     H_    0.044436 0.016927 0.411750 0.285987
H58   H     H_    0.961495 0.867798 0.563249 -0.016925
H59   H     H_    0.125073 0.844136 0.607847 0.053210
H60   H     H_    0.843845 0.337446 0.390882 -0.019894
N1    N     N_R   0.942379 0.508445 0.203056 -0.426217
N2    N     N_R   0.261426 0.499023 0.795606 -0.425119
O1    O     O_2   0.906480 0.548660 0.619050 -0.464910
O2    O     O_2   0.191922 0.821494 0.469952 -0.453327
O3    O     O_3   0.085500 0.799981 0.377429 -0.544030
O4    O     O_3   0.138490 0.548590 0.558870 -0.497962
O5    O     O_3   0.572560 0.389960 0.472890 -0.489417
O6    O     O_2   0.345660 0.723580 0.528500 -0.480262
O7    O     O_3   0.534382 0.754546 0.608989 -0.606434
O8    O     O_2   0.395909 0.553114 0.323406 -0.469359
O9    O     O_3   0.425516 0.724999 0.338202 -0.596598
O10   O     O_2   0.053347 0.361173 0.195576 -0.582160
O11   O     O_2   0.419877 0.363986 0.799111 -0.597505
O12   O     O_3   0.653977 0.259619 0.391819 -0.659094
O13   O     O_2   0.837853 0.656028 0.203310 -0.622848
O14   O     O_2   0.101069 0.634940 0.799010 -0.589938
O15   O     O_3   0.686300 0.382310 0.585700 -0.488276
O16   O     O_2   0.850045 0.427301 0.670363 -0.497120
O17   O     O_3   0.038865 0.693633 0.627742 -0.612119
O18   O     O_3   0.677099 0.298510 0.673286 -0.589911
O19   O     O_2   0.844040 0.276390 0.471470 -0.479281
O20   O     O_3   0.101510 0.335500 0.560330 -0.485272
O21   O     O_2   0.009283 0.176352 0.528103 -0.487728
O22   O     O_2   0.794147 0.847623 0.660426 -0.539226
O23   O     O_3   0.115112 0.197450 0.621042 -0.611355
O24   O     O_2   0.605034 0.376053 0.300621 -0.581015
O25   O     O_3   0.814722 0.701755 0.963530 -0.743766
O26   O     O_3   0.005437 0.964122 0.422542 -0.702361
O27   O     O_2   0.283210 0.451310 0.380920 -0.451806
O28   O     O_3   0.051220 0.451340 0.441120 -0.500490
O29   O     O_3   0.503410 0.617620 0.414290 -0.486485
O30   O     O_3   0.157862 0.306535 0.371873 -0.627936
O31   O     O_3   0.617150 0.609960 0.527100 -0.478944
O32   O     O_3   0.088210 0.664420 0.439670 -0.508256
P1    P     P_3+3 0.071950 0.575820 0.612140 1.004628
P2    P     P_3+3 0.664370 0.290050 0.457240 0.961573
P3    P     P_3+3 0.144768 0.219617 0.560555 0.928537
P4    P     P_3+3 0.117760 0.424110 0.387850 0.988408
P5    P     P_3+3 0.052357 0.780612 0.438279 1.023494
P6    P     P_3+3 0.680406 0.401398 0.651242 0.974820
P7    P     P_3+3 0.532814 0.723846 0.543837 0.952639
P8    P     P_3+3 0.513586 0.617301 0.349918 0.963102

loop_
_geom_bond_atom_site_label_1
_geom_bond_atom_site_label_2
_ccdc_geom_bond_type
C23   H9    S    
C53   C54   A    
C39   H36   S    
C16   H48   S    
C23   H8    S    
O30   P4    S    
C65   H5    S    
C8    N1    S    
C28   O30   S    
C19   C24   A    
C1    H7    S    
C14   H41   S    
Ba2   O28   S    
C63   H58   S    
C43   H40   S    
C55   C60   A    
O8    P8    D    
C52   C63   S    
C44   P5    S    
C69   H25   S    
C24   C25   A    
C58   C59   A    
C26   N2    Am   
Ba2   O5    S    
C4    H26   S    
C17   C19   A    
C22   C24   A    
C32   C33   S    
C35   C38   A    
C41   O25   S    
C27   O11   D    
C36   C37   A    
O18   P6    S    
C61   P3    S    
Ba1   P1    S    
C34   H11   S    
O31   P7    S    
C62   H49   S    
O15   P6    S    
C5    P8    S    
C49   O26   S    
C20   H32   S    
C54   C55   A    
C33   N2    S    
C59   C61   A    
C48   H43   S    
C67   C69   S    
C1    H2    S    
C22   C27   A    
C53   P7    S    
C11   C38   A    
C17   C35   A    
O23   P3    S    
C9    C13   A    
C25   C42   A    
C46   C49   A    
O16   P6    D    
C34   H10   S    
O6    P7    D    
C21   C22   A    
Ba1   O15   S    
C56   H19   S    
Ba2   O32   S    
C59   C60   A    
Ba1   O5    S    
C37   C43   A    
C68   H54   S    
C27   N2    Am   
C30   P6    S    
O32   P5    S    
C6    C14   D    
C1    H14   S    
O7    P7    S    
C32   H39   S    
C45   H17   S    
C31   P1    S    
C15   C31   D    
Ba2   O27   S    
C63   H59   S    
C6    P4    S    
C15   H42   S    
C31   C32   D    
C64   H60   S    
C4    C16   S    
C44   C46   A    
C26   O14   D    
O3    P5    S    
C40   H23   S    
Ba2   O4    S    
C29   H30   S    
C46   C55   A    
C17   C20   A    
C40   H12   S    
C13   C39   A    
C67   H22   S    
C3    C5    S    
C18   C37   A    
C6    C7    D    
C69   H24   S    
Ba1   P2    S    
C2    O13   D    
C52   H56   S    
O20   P3    S    
C44   C62   A    
O4    P1    S    
C68   O24   D    
C9    C36   A    
C41   C42   A    
C12   H1    S    
C57   C58   A    
C35   C36   A    
C40   H34   S    
O21   P3    D    
C29   C30   S    
O28   P4    S    
O2    P5    D    
Ba1   O31   S    
C63   C66   S    
C53   C62   A    
C45   O3    S    
C48   C49   A    
C18   C19   A    
Ba1   O19   S    
C28   H51   S    
C56   H18   S    
Ba2   O31   S    
C1    C12   S    
Ba2   P4    S    
O27   P4    D    
C21   H31   S    
C5    C14   S    
C16   H50   S    
Ba1   O28   S    
C57   H46   S    
O19   P2    D    
C4    H37   S    
C29   C33   D    
C58   H44   S    
C65   H3    S    
C11   H29   S    
H55   O25   S    
C4    O23   S    
C50   C51   A    
C3    H35   S    
C70   O10   D    
O12   P2    S    
C39   C43   A    
C47   C60   A    
C23   O7    S    
C47   C50   A    
C28   H52   S    
C66   O22   D    
Ba2   O29   S    
C9    C10   A    
C51   H47   S    
C52   O17   S    
C34   H13   S    
C67   O9    S    
C2    N1    Am   
C67   H21   S    
C16   H15   S    
C54   C57   A    
Ba2   O6    S    
C45   H16   S    
C2    C13   A    
O5    P2    S    
C50   P2    S    
C45   C56   S    
C51   C61   A    
C70   N1    Am   
C64   C68   S    
C69   H27   S    
O17   P1    S    
Ba1   Ba2   S    
C7    H28   S    
C64   C65   S    
C12   H6    S    
C10   C70   A    
Ba1   O20   S    
C18   C41   A    
C64   O12   S    
C23   C34   S    
C3    C8    D    
C10   C11   A    
C47   C48   A    
C52   H45   S    
C12   O18   S    
C25   C26   A    
C15   C30   S    
O1    P1    D    
C20   C21   A    
C28   C40   S    
C65   H4    S    
O9    P8    S    
Ba1   O1    S    
O29   P8    S    
C56   H20   S    
C66   H53   S    
H57   O26   S    
Ba1   O4    S    
C7    C8    S    
C38   H33   S    
C42   H38   S    
