data_mof_unit_39849.cif
_audit_creation_date              2012-12-10T18:16:24-0500
_audit_creation_method            fapswitch 2.2
_symmetry_space_group_name_H-M    P1
_symmetry_Int_Tables_number       1
_space_group_crystal_system       triclinic
_cell_length_a                    12.730563
_cell_length_b                    13.020722
_cell_length_c                    27.366538
_cell_angle_alpha                 93.513342
_cell_angle_beta                  102.541001
_cell_angle_gamma                 82.496456
_cell_volume                      4387.61566246

loop_
_atom_site_label
_atom_site_type_symbol
_atom_type_description
_atom_site_fract_x
_atom_site_fract_y
_atom_site_fract_z
_atom_type_partial_charge
C1    C     C_R   0.441636 0.687393 0.485357 0.882721
C2    C     C_R   0.424463 0.535474 0.720768 -0.198916
C3    C     C_R   0.527331 0.531378 0.752539 0.228283
C4    C     C_R   0.553232 0.582939 0.908080 -0.057327
C5    C     C_R   0.486828 0.653638 0.874341 -0.020859
C6    C     C_R   0.425175 0.738339 0.892501 -0.135608
C7    C     C_R   0.614674 0.497411 0.889743 -0.024161
C8    C     C_R   0.507357 0.506876 0.648458 -0.154532
C9    C     C_R   0.485472 0.521991 0.353862 -0.128168
C10   C     C_R   0.473239 0.676078 0.027897 -0.018582
C11   C     C_R   0.631010 0.542383 0.045739 0.063311
C12   C     C_R   0.501503 0.501340 0.594192 0.874400
C13   C     C_R   0.547323 0.609744 0.061872 0.080265
C14   C     C_R   0.387687 0.737423 0.045025 -0.319802
C15   C     C_R   0.374013 0.733133 0.094171 0.540221
C16   C     C_R   0.444457 0.663079 0.127140 -0.170317
C17   C     C_R   0.535248 0.607115 0.111930 -0.121968
C18   C     C_R   0.612548 0.545712 0.146436 -0.000596
C19   C     C_R   0.596435 0.538856 0.194880 0.574982
C20   C     C_R   0.426336 0.644937 0.174686 0.620852
C21   C     C_R   0.477971 0.647671 0.290712 0.503292
C22   C     C_R   0.477959 0.624407 0.340192 -0.348723
C23   C     C_R   0.560130 0.308257 0.505752 0.908506
C24   C     C_R   0.479749 0.441504 0.317950 -0.387272
C25   C     C_R   0.479309 0.461819 0.268025 0.557905
C26   C     C_R   0.482893 0.564740 0.255432 0.118007
C27   C     C_R   0.484119 0.675368 0.977417 0.073966
C28   C     C_R   0.556214 0.596316 0.960026 0.074940
C29   C     C_R   0.628923 0.528647 0.993925 0.041665
C30   C     C_R   0.422931 0.748671 0.943120 -0.215200
C31   C     C_R   0.684443 0.429597 0.923304 -0.132740
C32   C     C_R   0.711736 0.488228 0.081980 -0.214974
C33   C     C_R   0.703030 0.490813 0.131676 -0.135428
C34   C     C_R   0.497470 0.501534 0.406210 0.918038
C35   C     C_R   0.692774 0.445652 0.974545 -0.214488
C36   C     C_R   0.730254 0.047148 0.517037 -0.313442
C37   C     C_R   0.595384 0.197051 0.504207 -0.159335
C38   C     C_R   0.300503 0.825536 0.442642 0.502764
C39   C     C_R   0.274167 0.928866 0.427675 -0.277296
C40   C     C_R   0.352522 0.996627 0.437262 -0.249615
C41   C     C_R   0.462362 0.960544 0.456717 0.036588
C42   C     C_R   0.492856 0.852776 0.458608 -0.084581
C43   C     C_R   0.542930 0.026931 0.475692 0.091280
C44   C     C_R   0.651662 0.984456 0.493186 0.061222
C45   C     C_R   0.483230 0.637503 0.822981 0.514289
C46   C     C_R   0.681978 0.879998 0.484915 -0.384210
C47   C     C_R   0.604463 0.815927 0.460685 0.517366
C48   C     C_R   0.517126 0.133282 0.481464 -0.325757
C49   C     C_R   0.703568 0.154568 0.522459 0.507125
C50   C     C_R   0.411156 0.788445 0.460659 -0.217753
C51   C     C_R   0.088897 0.355899 0.422401 -0.389769
C52   C     C_R   0.800060 0.630305 0.560996 -0.134143
C53   C     C_R   0.903168 0.664657 0.572293 0.492024
C54   C     C_R   0.981381 0.615907 0.547222 -0.236958
C55   C     C_R   0.959743 0.535738 0.510849 -0.131779
C56   C     C_R   0.602642 0.480096 0.837952 0.516138
C57   C     C_R   0.853190 0.506017 0.499130 0.101057
C58   C     C_R   0.040777 0.484005 0.486097 0.004044
C59   C     C_R   0.012474 0.410257 0.447118 0.042290
C60   C     C_R   0.908761 0.386465 0.433568 -0.361783
C61   C     C_R   0.829667 0.427104 0.460094 0.523772
C62   C     C_R   0.150406 0.499862 0.498804 -0.097083
C63   C     C_R   0.195841 0.375366 0.436263 0.692901
C64   C     C_R   0.619944 0.513175 0.732107 -0.102641
C65   C     C_R   0.610106 0.498458 0.680774 -0.290445
C66   C     C_R   0.413754 0.528695 0.668762 0.502305
H1    H     H_    0.699981 0.511444 0.755991 0.173823
H2    H     H_    0.732643 0.363198 0.910107 0.189964
H3    H     H_    0.782984 0.443653 0.072901 0.145013
H4    H     H_    0.478334 0.363786 0.329409 0.139433
H5    H     H_    0.765419 0.445990 0.158047 0.183845
H6    H     H_    0.745590 0.388248 0.998002 0.145322
H7    H     H_    0.766883 0.849958 0.494893 0.143204
H8    H     H_    0.811918 0.011937 0.531743 0.152097
H9    H     H_    0.352312 0.549612 0.736276 0.179659
H10   H     H_    0.435036 0.168070 0.469081 0.214173
H11   H     H_    0.324953 0.076102 0.427595 0.175155
H12   H     H_    0.192752 0.959612 0.410105 0.143587
H13   H     H_    0.893042 0.329059 0.403529 0.160997
H14   H     H_    0.065646 0.297134 0.393738 0.149920
H15   H     H_    0.181794 0.553860 0.528008 0.165444
H16   H     H_    0.736471 0.663425 0.579720 0.143557
H17   H     H_    0.375708 0.795516 0.867442 0.191289
H18   H     H_    0.058508 0.644975 0.555974 0.162953
H19   H     H_    0.476865 0.684651 0.368990 0.191790
H20   H     H_    0.326216 0.786181 0.020440 0.157083
H21   H     H_    0.373510 0.815709 0.954488 0.144035
H22   H     H_    0.683591 0.483332 0.666318 0.196735
N1    N     N_R   0.537782 0.549892 0.805572 -0.337943
N2    N     N_R   0.501977 0.583624 0.207209 -0.321462
N3    N     N_R   0.222180 0.444690 0.474320 -0.141362
N4    N     N_R   0.776980 0.554780 0.525420 -0.114729
O1    O     O_R   0.366730 0.627160 0.487740 -0.579321
O2    O     O_2   0.333239 0.685664 0.188034 -0.498057
O3    O     O_2   0.653875 0.393174 0.820115 -0.563499
O4    O     O_2   0.673566 0.486108 0.229287 -0.591218
O5    O     O_R   0.544830 0.662520 0.504140 -0.596550
O6    O     O_R   0.410970 0.482310 0.563040 -0.571607
O7    O     O_R   0.589070 0.517670 0.579450 -0.633802
O8    O     O_R   0.455170 0.337480 0.495860 -0.597239
O9    O     O_R   0.633270 0.372840 0.512260 -0.505992
O10   O     O_R   0.410930 0.482330 0.420550 -0.580692
O11   O     O_R   0.589030 0.517690 0.436960 -0.537760
O12   O     O_2   0.425716 0.708905 0.790711 -0.579329
Zn1   Zn    Zn3+2 0.381080 0.476390 0.489050 1.017727
Zn2   Zn    Zn3+2 0.618920 0.523610 0.510950 1.013726
O13   O     O_3   0.312130 0.549158 0.638352 -0.595600
C67   C     C_3   0.289557 0.657626 0.633572 -0.281734
H23   H     H_    0.344285 0.686818 0.612352 0.142319
H24   H     H_    0.294881 0.699432 0.670620 0.191584
H25   H     H_    0.205591 0.676361 0.612436 0.189473
O14   O     O_3   0.471685 0.385806 0.229678 -0.591883
C68   C     C_3   0.530221 0.289687 0.245603 -0.268039
H26   H     H_    0.481607 0.246070 0.264342 0.145878
H27   H     H_    0.610786 0.298725 0.270234 0.167111
H28   H     H_    0.545222 0.242678 0.212060 0.196063
O15   O     O_3   0.777426 0.216839 0.550342 -0.627435
C69   C     C_3   0.877561 0.203628 0.534623 0.130902
H29   H     H_    0.896292 0.281602 0.528000 0.180569
H30   H     H_    0.876766 0.157686 0.498756 0.105119
C70   C     C_3   0.968700 0.157112 0.576348 -0.371003
H31   H     H_    0.971274 0.207136 0.610892 0.245130
H32   H     H_    0.953483 0.078868 0.584905 0.217695
C71   C     C_3   0.078432 0.148997 0.561452 -0.930516
H33   H     H_    0.078140 0.099246 0.526992 0.263111
H34   H     H_    0.142793 0.114101 0.592110 0.275052
H35   H     H_    0.097332 0.227138 0.554609 0.273456
O16   O     O_3   0.223691 0.755673 0.435609 -0.629026
C72   C     C_3   0.122662 0.797760 0.446691 0.100084
H36   H     H_    0.069519 0.734824 0.438968 0.168384
H37   H     H_    0.080197 0.859972 0.421120 0.119585
C73   C     C_3   0.132113 0.832366 0.502046 -0.385450
H38   H     H_    0.169911 0.765932 0.526018 0.219351
H39   H     H_    0.184073 0.895951 0.511742 0.219836
C74   C     C_3   0.020827 0.871066 0.512987 -0.958079
H40   H     H_    0.984326 0.940876 0.491194 0.252685
H41   H     H_    0.029032 0.891596 0.553505 0.292609
H42   H     H_    0.965895 0.810097 0.502797 0.259115
O17   O     O_3   0.633606 0.721764 0.436555 -0.624285
C75   C     C_3   0.732744 0.720586 0.420216 0.061736
H43   H     H_    0.801772 0.700580 0.452029 0.146026
H44   H     H_    0.740165 0.796852 0.405556 0.130465
C76   C     C_3   0.740720 0.640507 0.377567 -0.318369
H45   H     H_    0.722947 0.564460 0.387531 0.253842
H46   H     H_    0.681244 0.666787 0.343497 0.243988
C77   C     C_3   0.853318 0.627898 0.365431 -0.943639
H47   H     H_    0.870337 0.702044 0.352503 0.261508
H48   H     H_    0.857478 0.567451 0.335247 0.290497
H49   H     H_    0.916281 0.604109 0.398950 0.262993
O18   O     O_3   0.278392 0.321224 0.415752 -0.601749
C78   C     C_3   0.247729 0.309453 0.363150 -0.348244
H50   H     H_    0.322279 0.291249 0.348006 0.191589
H51   H     H_    0.202713 0.381721 0.345503 0.179161
H52   H     H_    0.200156 0.242870 0.352487 0.154594
O19   O     O_3   0.935303 0.741432 0.608316 -0.605339
C79   C     C_3   0.848012 0.808154 0.621015 -0.326970
H53   H     H_    0.807606 0.768882 0.645483 0.174891
H54   H     H_    0.789243 0.838365 0.587260 0.161049
H55   H     H_    0.880613 0.876022 0.642718 0.204436
O20   O     O_3   0.734860 0.382361 0.452886 -0.550196
C80   C     C_3   0.708393 0.317778 0.409509 -0.357951
H56   H     H_    0.761066 0.242366 0.413303 0.149408
H57   H     H_    0.710083 0.357694 0.374932 0.166151
H58   H     H_    0.624405 0.299437 0.406025 0.169336
O21   O     O_3   0.486208 0.746580 0.275831 -0.605894
C81   C     C_3   0.444917 0.827352 0.305817 -0.295277
H59   H     H_    0.504012 0.837586 0.341644 0.170705
H60   H     H_    0.364305 0.814921 0.312441 0.179932
H61   H     H_    0.433756 0.900786 0.285806 0.184161
O22   O     O_3   0.286771 0.792857 0.108605 -0.591855
C82   C     C_3   0.305670 0.898253 0.115072 0.077293
H62   H     H_    0.225436 0.946295 0.108473 0.172656
H63   H     H_    0.349741 0.922951 0.087567 0.114108
C83   C     C_3   0.366085 0.921135 0.168720 -0.300567
H64   H     H_    0.318990 0.899907 0.195558 0.264233
H65   H     H_    0.446845 0.874023 0.176179 0.229011
C84   C     C_3   0.381958 0.035526 0.177213 -0.985027
H66   H     H_    0.430260 0.058315 0.151256 0.271835
H67   H     H_    0.426022 0.049299 0.216302 0.259248
H68   H     H_    0.302273 0.084473 0.171133 0.273925

loop_
_geom_bond_atom_site_label_1
_geom_bond_atom_site_label_2
_ccdc_geom_bond_type
C10   C27   A    
C58   C62   A    
C76   C77   S    
C82   H62   S    
C60   H13   S    
C8    C66   A    
O21   C81   S    
C57   N4    A    
C56   O3    S    
C41   C42   A    
N3    Zn1   S    
C75   C76   S    
C66   O13   S    
C21   C26   A    
O16   C72   S    
C54   H18   S    
C80   H56   S    
C24   H4    S    
C74   H40   S    
C53   C54   A    
C82   H63   S    
O8    Zn1   S    
C34   O10   A    
O6    Zn1   S    
C28   C29   A    
C75   H44   S    
C77   H47   S    
C56   N1    A    
C5    C6    A    
C83   H64   S    
C9    C22   A    
C78   H52   S    
O22   C82   S    
C15   C16   A    
C21   O21   S    
C67   H23   S    
O10   Zn1   S    
C74   H41   S    
C18   C19   A    
C22   H19   S    
C48   H10   S    
C69   H29   S    
C70   C71   S    
C25   O14   S    
O1    Zn1   S    
C51   H14   S    
C49   O15   S    
C16   C17   A    
C84   H67   S    
C78   H50   S    
C45   N1    A    
C43   C48   A    
C12   O6    A    
C8    C12   S    
C72   C73   S    
C23   O8    A    
C59   C60   A    
C2    H9    S    
C21   C22   A    
C27   C30   A    
C81   H60   S    
C41   C43   A    
C81   H59   S    
C7    C56   A    
C4    C7    A    
O14   C68   S    
C80   H57   S    
C44   C46   A    
C77   H48   S    
C31   H2    S    
C82   C83   S    
C7    C31   A    
C39   H12   S    
C51   C63   A    
C75   H43   S    
C14   H20   S    
C10   C14   A    
C61   O20   S    
C1    O5    A    
C39   C40   A    
C72   H36   S    
C73   H38   S    
C58   C59   A    
C23   C37   S    
C20   N2    A    
C15   O22   S    
C60   C61   A    
C69   C70   S    
C38   C39   A    
C43   C44   A    
C64   H1    S    
C63   O18   S    
C45   O12   S    
C77   H49   S    
C37   C49   A    
C14   C15   A    
C16   C20   A    
C84   H68   S    
C62   N3    A    
C17   C18   A    
C24   C25   A    
C37   C48   A    
C52   H16   S    
C83   C84   S    
C70   H31   S    
C74   H42   S    
C36   H8    S    
C42   C50   A    
C71   H35   S    
O5    Zn2   S    
N4    Zn2   S    
C40   C41   A    
C6    C30   A    
C62   H15   S    
C11   C32   A    
C53   O19   S    
C55   C57   A    
C9    C34   S    
C31   C35   A    
C36   C44   A    
C51   C59   A    
O13   C67   S    
C47   O17   S    
O19   C79   S    
C80   H58   S    
C52   C53   A    
C65   H22   S    
C71   H34   S    
C68   H26   S    
C1    C50   S    
O9    Zn2   S    
C76   H46   S    
O7    Zn2   S    
C20   O2    S    
C46   C47   A    
C79   H53   S    
C6    H17   S    
C40   H11   S    
C79   H55   S    
C4    C5    A    
C2    C66   A    
C10   C13   A    
C35   H6    S    
C54   C55   A    
C38   O16   S    
O17   C75   S    
C12   O7    A    
C9    C24   A    
C57   C61   A    
C32   H3    S    
C38   C50   A    
C26   N2    S    
C29   C35   A    
C34   O11   A    
C67   H25   S    
C13   C17   A    
C3    N1    S    
C64   C65   A    
C68   H28   S    
C79   H54   S    
C2    C3    A    
C25   C26   A    
C19   N2    A    
O15   C69   S    
O20   C80   S    
C11   C13   A    
C23   O9    A    
C5    C45   A    
C73   C74   S    
C73   H39   S    
C83   H65   S    
C67   H24   S    
O11   Zn2   S    
C42   C47   A    
C78   H51   S    
C3    C64   A    
C32   C33   A    
C18   C33   A    
C69   H30   S    
C70   H32   S    
C52   N4    A    
C33   H5    S    
C19   O4    S    
C8    C65   A    
C11   C29   A    
C81   H61   S    
C1    O1    A    
C84   H66   S    
C4    C28   A    
C55   C58   A    
C63   N3    A    
C27   C28   A    
O18   C78   S    
C72   H37   S    
C30   H21   S    
C46   H7    S    
C36   C49   A    
C76   H45   S    
C71   H33   S    
C68   H27   S    
