data_mof_unit_15648.cif
_audit_creation_date              2012-12-10T20:31:07-0500
_audit_creation_method            fapswitch 2.2
_symmetry_space_group_name_H-M    P1
_symmetry_Int_Tables_number       1
_space_group_crystal_system       triclinic
_cell_length_a                    14.935197
_cell_length_b                    10.663023
_cell_length_c                    9.891512
_cell_angle_alpha                 89.964831
_cell_angle_beta                  90.423211
_cell_angle_gamma                 90.179487
_cell_volume                      1575.2153289

loop_
_atom_site_label
_atom_site_type_symbol
_atom_type_description
_atom_site_fract_x
_atom_site_fract_y
_atom_site_fract_z
_atom_type_partial_charge
C1    C     C_R   0.502525 0.260140 0.500169 0.871386
C2    C     C_R   0.184656 0.432338 0.403815 -0.279091
C3    C     C_R   0.231426 0.502389 0.499797 -0.075511
C4    C     C_R   0.326944 0.500423 0.499737 0.887371
C5    C     C_R   0.187504 0.573350 0.597234 -0.241757
C6    C     C_R   0.507256 0.063786 0.623084 0.118392
C7    C     C_R   0.515367 0.128687 0.501722 -0.095784
C8    C     C_R   0.539245 0.065080 0.383367 -0.228933
C9    C     C_R   0.538722 0.935390 0.383174 -0.234711
C10   C     C_R   0.514275 0.871559 0.501296 -0.108939
C11   C     C_R   0.506620 0.936096 0.622789 0.118516
C12   C     C_R   0.907690 0.586219 0.591681 -0.060378
C13   C     C_3   0.435758 0.928696 0.728451 -0.472261
C14   C     C_3   0.436362 0.070918 0.728787 -0.470689
C15   C     C_R   0.424421 0.468693 0.070178 0.198382
C16   C     C_R   0.501902 0.739926 0.500002 0.856838
C17   C     C_R   0.576595 0.518396 0.073892 -0.258976
C18   C     C_R   0.577806 0.515407 0.930079 0.491832
C19   C     C_R   0.424295 0.469306 0.927884 0.123770
C20   C     C_3   0.337186 0.536915 0.921600 -0.488733
C21   C     C_3   0.337081 0.535631 0.075002 -0.480542
C22   C     C_R   0.673019 0.502177 0.500129 0.898911
C23   C     C_R   0.951545 0.360554 0.311198 -0.200053
C24   C     C_R   0.814467 0.591770 0.586025 0.455628
C25   C     C_R   0.768581 0.509384 0.498720 -0.197088
C26   C     C_R   0.813668 0.434391 0.406394 -0.350923
C27   C     C_R   0.906054 0.434855 0.404571 0.149453
C28   C     C_R   0.953470 0.509077 0.499197 -0.018834
C29   C     C_3   0.735366 0.776250 0.599683 0.127663
C30   C     C_3   0.804556 0.882637 0.596278 -0.398616
C31   C     C_3   0.765513 0.000896 0.532199 -0.938000
C32   C     C_3   0.722017 0.447467 0.891660 0.149002
C33   C     C_3   0.803364 0.505412 0.963905 -0.345308
C34   C     C_R   0.044416 0.360639 0.309899 -0.239054
C35   C     C_3   0.884518 0.419062 0.957292 -0.996757
C36   C     C_3   0.083405 0.665341 0.918886 0.063140
C37   C     C_3   0.135111 0.742260 0.023894 -0.324539
C38   C     C_3   0.123013 0.688564 0.165732 -0.944971
C39   C     C_R   0.092092 0.432752 0.404175 0.156282
C40   C     C_R   0.046707 0.506381 0.500630 0.028768
C41   C     C_R   0.094662 0.576983 0.598241 0.018130
C42   C     C_R   0.049003 0.648856 0.694828 0.446703
C43   C     C_R   0.955796 0.656141 0.687763 -0.310774
H1    H     H_    0.552043 0.886159 0.289722 0.173262
H2    H     H_    0.220450 0.376234 0.330532 0.143585
H3    H     H_    0.226118 0.627129 0.670285 0.185503
H4    H     H_    0.921475 0.716064 0.758685 0.189091
H5    H     H_    0.552735 0.114522 0.289962 0.169714
H6    H     H_    0.675651 0.810112 0.654621 0.183574
H7    H     H_    0.712574 0.753240 0.494950 0.099940
H8    H     H_    0.827015 0.904633 0.700997 0.230935
H9    H     H_    0.863545 0.852806 0.536727 0.225617
H10   H     H_    0.742795 0.981454 0.427083 0.268605
H11   H     H_    0.817490 0.075537 0.529525 0.266829
H12   H     H_    0.372959 0.112728 0.690305 0.204108
H13   H     H_    0.708089 0.035266 0.592296 0.266227
H14   H     H_    0.372018 0.887493 0.689795 0.203152
H15   H     H_    0.461308 0.887179 0.824325 0.205183
H16   H     H_    0.743962 0.408653 0.793200 0.179156
H17   H     H_    0.697011 0.365683 0.951373 0.070325
H18   H     H_    0.820898 0.596538 0.916597 0.261405
H19   H     H_    0.787223 0.523108 0.071557 0.200451
H20   H     H_    0.867752 0.325298 0.999123 0.261937
H21   H     H_    0.940516 0.459809 0.017392 0.265392
H22   H     H_    0.906695 0.408374 0.850974 0.272437
H23   H     H_    0.462169 0.111687 0.824937 0.200156
H24   H     H_    0.283028 0.478346 0.876438 0.206573
H25   H     H_    0.283332 0.475537 0.117522 0.195715
H26   H     H_    0.108871 0.567114 0.920595 0.140916
H27   H     H_    0.011423 0.665684 0.947507 0.146215
H28   H     H_    0.207408 0.742678 0.998367 0.227151
H29   H     H_    0.110841 0.840698 0.022233 0.227136
H30   H     H_    0.051606 0.693376 0.195950 0.267115
H31   H     H_    0.163853 0.743221 0.239284 0.268498
H32   H     H_    0.145079 0.589399 0.168790 0.269163
H33   H     H_    0.637173 0.539179 0.129693 0.169821
H34   H     H_    0.343673 0.632599 0.877831 0.206305
H35   H     H_    0.342916 0.630543 0.120845 0.217661
H36   H     H_    0.776525 0.374257 0.337265 0.171886
H37   H     H_    0.915280 0.302630 0.239329 0.148384
H38   H     H_    0.078935 0.303727 0.236119 0.144151
N1    N     N_R   0.499390 0.499140 0.142800 -0.126591
N2    N     N_R   0.499390 0.499180 0.857150 -0.148735
O1    O     O_R   0.500010 0.316790 0.614690 -0.624908
O2    O     O_3   0.656919 0.541188 0.864195 -0.582549
O3    O     O_3   0.095819 0.719132 0.789716 -0.650180
O4    O     O_R   0.500000 0.316760 0.385350 -0.621416
O5    O     O_R   0.367850 0.499990 0.614680 -0.626428
O6    O     O_R   0.367840 0.499950 0.385340 -0.615799
O7    O     O_R   0.500000 0.683240 0.614650 -0.608602
O8    O     O_R   0.499990 0.683210 0.385310 -0.619303
O9    O     O_R   0.632160 0.500050 0.614660 -0.548967
O10   O     O_R   0.632150 0.500010 0.385320 -0.642761
O11   O     O_3   0.768692 0.671391 0.672020 -0.626432
Zn1   Zn    Zn3+2 0.500010 0.500020 0.653130 0.975930
Zn2   Zn    Zn3+2 0.499990 0.499980 0.346870 0.934517

loop_
_geom_bond_atom_site_label_1
_geom_bond_atom_site_label_2
_ccdc_geom_bond_type
C1    O4    A    
C30   H8    S    
C16   O7    A    
C41   C42   A    
C20   H24   S    
C19   C20   S    
C7    C8    A    
C29   H6    S    
C1    O1    A    
C15   C19   A    
C26   C27   A    
C29   C30   S    
C20   H34   S    
C12   C28   A    
C36   C37   S    
C12   C43   A    
C30   C31   S    
C13   H14   S    
C35   H22   S    
C17   N1    A    
C5    C41   A    
O8    Zn2   S    
C2    C39   A    
C33   H19   S    
C22   C25   S    
C21   H35   S    
C17   H33   S    
C35   H21   S    
C42   O3    S    
C34   H38   S    
C23   C27   A    
C23   H37   S    
C9    C10   A    
C38   H32   S    
C14   H12   S    
O5    Zn1   S    
C13   C14   S    
C19   N2    A    
C36   H27   S    
C17   C18   A    
C15   N1    A    
C29   H7    S    
C2    H2    S    
C18   O2    S    
N1    Zn2   S    
C34   C39   A    
O7    Zn1   S    
C24   C25   A    
C6    C11   A    
C8    C9    A    
C13   H15   S    
C36   O3    S    
C25   C26   A    
O9    Zn1   S    
O1    Zn1   S    
C8    H5    S    
C28   C40   A    
C37   C38   S    
C24   O11   S    
C6    C14   S    
C23   C34   A    
N2    Zn1   S    
O4    Zn2   S    
C18   N2    A    
C14   H23   S    
C31   H10   S    
C40   C41   A    
O10   Zn2   S    
C37   H28   S    
C21   H25   S    
C31   H13   S    
C22   O10   A    
C42   C43   A    
C32   H17   S    
C3    C4    S    
C39   C40   A    
C36   H26   S    
C4    O6    A    
C38   H31   S    
C30   H9    S    
C9    H1    S    
C1    C7    S    
C3    C5    A    
C6    C7    A    
C4    O5    A    
C5    H3    S    
C12   C24   A    
C26   H36   S    
C32   C33   S    
O6    Zn2   S    
C2    C3    A    
C10   C16   S    
C11   C13   S    
C29   O11   S    
C32   O2    S    
C33   C35   S    
C31   H11   S    
C10   C11   A    
C15   C21   S    
C20   C21   S    
C16   O8    A    
C33   H18   S    
C37   H29   S    
C27   C28   A    
C22   O9    A    
C35   H20   S    
C32   H16   S    
C43   H4    S    
C38   H30   S    
