data_mof_unit_26433.cif
_audit_creation_date              2013-03-05T16:14:48-0500
_audit_creation_method            fapswitch 2.2
_symmetry_space_group_name_H-M    P1
_symmetry_Int_Tables_number       1
_space_group_crystal_system       triclinic
_cell_length_a                    8.474512
_cell_length_b                    17.363303
_cell_length_c                    19.094095
_cell_angle_alpha                 103.377847
_cell_angle_beta                  91.523351
_cell_angle_gamma                 99.321024
_cell_volume                      2691.27099379

loop_
_atom_site_label
_atom_site_type_symbol
_atom_site_description
_atom_site_fract_x
_atom_site_fract_y
_atom_site_fract_z
_atom_type_partial_charge
P1    P     P_3+3 0.040700 0.421000 0.332140 0.459373
O1    O     O_2   0.873520 0.443690 0.322540 -0.346038
O2    O     O_3   0.122020 0.450920 0.411670 -0.344625
O3    O     O_3   0.663590 0.591680 0.375790 -0.314252
O4    O     O_2   0.739625 0.526321 0.246881 -0.389337
O5    O     O_3   0.012075 0.315397 0.317209 -0.656169
O6    O     O_3   0.702458 0.676705 0.266253 -0.527691
H1    H     H_    0.669079 0.738054 0.370412 0.096575
C1    C     C_3   0.691786 0.817383 0.299317 0.117267
H2    H     H_    0.824767 0.831362 0.305861 0.151258
P2    P     P_3+3 0.677490 0.686860 0.568200 0.662502
P3    P     P_3+3 0.137141 0.738242 0.427279 0.541035
O7    O     O_2   0.853350 0.696990 0.547450 -0.315465
O8    O     O_3   0.086060 0.635230 0.414460 -0.342709
O9    O     O_2   0.978486 0.769905 0.440712 -0.333894
O10   O     O_3   0.667319 0.698222 0.663194 -0.561503
O11   O     O_3   0.193094 0.758571 0.344815 -0.532833
C2    C     C_3   0.118924 0.694442 0.288575 0.410549
H3    H     H_    0.988557 0.679863 0.294607 0.159974
H4    H     H_    0.173835 0.640548 0.287874 0.081897
C3    C     C_3   0.141860 0.717204 0.216842 -0.865846
H5    H     H_    0.083795 0.666527 0.172190 0.219858
H6    H     H_    0.086615 0.770839 0.216120 0.287514
C4    C     C_3   0.258654 0.713028 0.637927 0.351379
H7    H     H_    0.361063 0.683223 0.619081 0.126729
H8    H     H_    0.166339 0.702044 0.592740 0.115986
C5    C     C_3   0.318340 0.803259 0.665259 -0.961506
H9    H     H_    0.438865 0.818434 0.647376 0.250216
H10   H     H_    0.241700 0.838647 0.642735 0.284194
H11   H     H_    0.322984 0.822675 0.724991 0.291433
Ba1   Ba    Ba6+2 0.854170 0.535040 0.467640 1.698884
C6    C     C_3   0.853698 0.277414 0.294995 0.338367
H12   H     H_    0.769309 0.313047 0.323617 0.153427
C7    C     C_3   0.823952 0.263893 0.213141 -0.747821
H13   H     H_    0.824071 0.322007 0.198742 0.240671
H14   H     H_    0.704637 0.226438 0.194331 0.255622
H15   H     H_    0.917794 0.233864 0.184311 0.209945
C8    C     C_3   0.773273 0.753871 0.718508 0.183597
C9    C     C_3   0.691177 0.824451 0.756741 -0.000962
H16   H     H_    0.748799 0.851626 0.811887 0.156505
H17   H     H_    0.564453 0.801436 0.763830 0.136897
P4    P     P_3+3 0.149010 0.579070 0.667870 0.554649
O12   O     O_2   0.316180 0.556340 0.677510 -0.326487
O13   O     O_3   0.067690 0.549150 0.588340 -0.317606
O14   O     O_3   0.526120 0.408390 0.624220 -0.269037
O15   O     O_3   0.191400 0.683342 0.694089 -0.572046
P5    P     P_3+3 0.061685 0.259792 0.574382 0.532040
O16   O     O_3   0.608980 0.401570 0.457310 -0.337325
O17   O     O_3   0.103650 0.364840 0.585560 -0.408796
O18   O     O_2   0.192697 0.222456 0.530440 -0.329570
O19   O     O_3   0.087905 0.237884 0.658214 -0.431555
Ba2   Ba    Ba6+2 0.335670 0.465030 0.532370 1.708994
P6    P     P_3+3 0.629267 0.583591 0.283902 0.494511
C10   C     C_3   0.632930 0.735042 0.313293 0.206268
H18   H     H_    0.499831 0.721599 0.305208 0.094751
H19   H     H_    0.642733 0.863840 0.338738 0.097737
O20   O     O_3   0.580730 0.598500 0.542710 -0.245601
C11   C     C_3   0.360519 0.277688 0.298508 0.328956
H20   H     H_    0.287063 0.313790 0.334893 0.111095
C12   C     C_3   0.266080 0.193406 0.264736 0.030713
H21   H     H_    0.155099 0.197561 0.234713 0.076575
H22   H     H_    0.339929 0.158647 0.226329 0.161149
P7    P     P_3+3 0.511831 0.300588 0.427485 0.508491
O21   O     O_2   0.336360 0.303040 0.452600 -0.338893
O22   O     O_3   0.504544 0.270464 0.332706 -0.563177
H23   H     H_    0.271582 0.730797 0.208469 0.278761
C13   C     C_3   0.059112 0.302732 0.712559 0.560536
H24   H     H_    0.154773 0.355856 0.716561 0.101809
H25   H     H_    0.941184 0.319112 0.701776 -0.018196
C14   C     C_3   0.060255 0.278567 0.784221 -0.856848
H26   H     H_    0.016988 0.323808 0.826237 0.181972
H27   H     H_    0.981472 0.219823 0.779695 0.306058
H28   H     H_    0.183695 0.274148 0.801306 0.265697
P8    P     P_3+3 0.553396 0.420433 0.717127 0.486409
C15   C     C_3   0.568645 0.273631 0.715938 0.243759
H29   H     H_    0.693616 0.298709 0.737706 0.006025
O23   O     O_2   0.447276 0.482024 0.748463 -0.408941
O24   O     O_3   0.467931 0.330652 0.739002 -0.553510
H30   H     H_    0.565310 0.257210 0.655880 0.126725
C16   C     C_3   0.517833 0.196904 0.743700 0.044897
C17   C     C_R   0.082200 0.525051 0.800348 -0.313290
H31   H     H_    0.201268 0.557097 0.818763 0.184518
C18   C     C_R   0.022521 0.532588 0.732125 0.170215
C19   C     C_R   0.824940 0.450894 0.816712 -0.422573
H32   H     H_    0.737890 0.420976 0.844804 0.157389
C20   C     C_R   0.763443 0.462926 0.751932 0.120289
C21   C     C_R   0.351052 0.554807 0.187344 -0.376383
H33   H     H_    0.414986 0.599884 0.162874 0.183425
C22   C     C_R   0.418765 0.543570 0.251620 0.287766
C23   C     C_R   0.121723 0.455616 0.195317 -0.305256
H34   H     H_    0.017082 0.412188 0.173047 0.147777
C24   C     C_R   0.170632 0.462844 0.268152 0.214652
C25   C     C_R   0.986695 0.480383 0.844286 0.119333
C26   C     C_R   0.859922 0.507088 0.712463 0.177475
C27   C     C_R   0.209335 0.503250 0.152462 0.104175
C28   C     C_R   0.326239 0.499026 0.292097 -0.300107
H35   H     H_    0.376410 0.490803 0.341923 0.187424
C29   C     C_R   0.813863 0.381932 0.952228 -0.176113
C30   C     C_R   0.704136 0.368383 0.003204 -0.071628
C31   C     C_R   0.727506 0.417110 0.072897 -0.141951
C32   C     C_R   0.869306 0.472317 0.093099 -0.178966
C33   C     C_R   0.993094 0.473538 0.046063 0.075416
C34   C     C_R   0.948472 0.444076 0.970865 0.088172
C35   C     C_R   0.157570 0.496168 0.072156 -0.057990
C36   C     C_R   0.270459 0.498896 0.017602 0.110010
C37   C     C_R   0.216004 0.486145 0.942781 0.062000
C38   C     C_R   0.050407 0.468803 0.918994 -0.063185
C39   C     C_R   0.438218 0.510576 0.033733 -0.158574
C40   C     C_R   0.546380 0.522895 0.982518 -0.098551
C41   C     C_R   0.492241 0.507422 0.911217 -0.071972
C42   C     C_R   0.330547 0.480090 0.891575 -0.164708
H36   H     H_    0.798306 0.340068 0.900057 0.141960
H37   H     H_    0.599536 0.321717 0.988236 0.154910
H38   H     H_    0.638868 0.410280 0.111763 0.178049
H39   H     H_    0.888864 0.509804 0.146769 0.187089
H40   H     H_    0.491441 0.507670 0.084135 0.138343
H41   H     H_    0.673683 0.538594 0.997276 0.152017
H42   H     H_    0.576927 0.513267 0.871276 0.154759
H43   H     H_    0.292994 0.450826 0.836518 0.175438
C43   C     C_2   0.433528 0.727173 0.491707 0.024665
C44   C     C_3   0.299526 0.777210 0.500470 0.144632
C45   C     C_2   0.364031 0.864702 0.508616 -0.278216
C46   C     C_2   0.520903 0.892664 0.526867 -0.051777
C47   C     C_2   0.631249 0.835067 0.534613 0.372817
C48   C     C_1   0.575178 0.756484 0.527693 0.026398
C49   C     C_R   0.787087 0.137442 0.528607 -0.115167
C50   C     C_R   0.859232 0.216293 0.529956 0.166153
C51   C     C_R   0.615874 0.236536 0.470885 0.205739
C52   C     C_R   0.543578 0.158301 0.470634 -0.128013
C53   C     C_R   0.627502 0.108112 0.499534 0.073139
C54   C     C_2   0.587675 0.979584 0.538653 -0.002268
C55   C     C_2   0.546963 0.024344 0.494653 -0.170874
C56   C     C_R   0.774046 0.264664 0.499817 -0.529883
H44   H     H_    0.452205 0.998186 0.452343 0.168631
H45   H     H_    0.856233 0.099723 0.549737 0.187191
H46   H     H_    0.681329 0.004944 0.581333 0.207173
H47   H     H_    0.281115 0.905455 0.505043 0.210638
H48   H     H_    0.422226 0.136214 0.447556 0.201313
C57   C     C_2   0.826775 0.198515 0.316664 0.493236
H49   H     H_    0.908279 0.188145 0.356893 0.071380
O25   O     O_2   0.708831 0.147487 0.293030 -0.529073
C58   C     C_2   0.937168 0.786160 0.698555 0.655031
H50   H     H_    0.040591 0.788262 0.733605 0.057517
O26   O     O_2   0.955559 0.821624 0.650865 -0.495587
C59   C     C_2   0.794715 0.706967 0.775245 0.314221
H51   H     H_    0.712661 0.651601 0.773828 0.121748
O27   O     O_2   0.895672 0.732484 0.825802 -0.578517
Cl1   Cl    Cl    0.703362 0.906814 0.714331 -0.581873
C60   C     C_2   0.398103 0.320359 0.239236 0.307563
H52   H     H_    0.303713 0.320736 0.199824 0.003375
O28   O     O_2   0.532768 0.355984 0.235232 -0.552787
Cl2   Cl    Cl    0.210153 0.138822 0.331091 -0.584530
Cl3   Cl    Cl    0.627592 0.820090 0.210390 -0.532510
C61   C     C_2   0.628388 0.136524 0.720910 0.550769
H53   H     H_    0.603713 0.078932 0.735190 0.143565
O29   O     O_2   0.744432 0.150577 0.686503 -0.625877
Cl4   Cl    Cl    0.323268 0.147832 0.705589 -0.548774
C62   C     C_2   0.513095 0.219105 0.824994 0.480457
H54   H     H_    0.438176 0.261482 0.849933 0.061609
O30   O     O_2   0.592264 0.190652 0.863810 -0.591395
Cl5   Cl    Cl    0.769743 0.541570 0.644724 -0.496726
Cl6   Cl    Cl    0.836228 0.873991 0.537399 -0.515435
Cl7   Cl    Cl    0.393846 0.628576 0.439638 -0.621029
C63   C     C_2   0.854996 0.343684 0.495270 0.732824
H55   H     H_    0.926987 0.349762 0.450677 0.004491
O31   O     O_2   0.845131 0.402066 0.543457 -0.499308

loop_
_geom_bond_atom_site_label_1
_geom_bond_atom_site_label_2
_geom_bond_distance
_ccdc_geom_bond_type
O5    C6    1.403504 S    
C21   H33   1.081570 S    
P7    O22   1.760117 S    
C49   C50   1.400225 A    
O3    P6    1.740200 S    
C5    H10   1.105022 S    
C2    C3    1.519784 S    
C57   O25   1.221409 D    
C4    C5    1.527633 S    
P1    Ba1   3.460376 S    
O8    Ba1   2.781247 S    
C51   C52   1.395678 A    
C41   H42   1.071590 S    
C59   H51   1.085743 S    
C16   Cl4   1.780000 S    
C40   H41   1.081954 S    
C46   C47   1.503516 S    
C9    H17   1.106831 S    
C27   C35   1.555092 S    
C32   C33   1.399725 A    
O4    P6    1.540873 D    
C63   H55   1.075489 S    
P2    C48   1.883613 S    
C4    H8    1.110169 S    
C7    H13   1.105379 S    
C60   O28   1.220127 D    
C12   Cl2   1.780509 S    
C8    C9    1.551786 S    
C3    H23   1.110198 S    
O12   Ba2   2.880468 S    
C37   C38   1.425586 A    
C49   C53   1.415154 A    
C11   C12   1.534408 S    
C29   C34   1.412170 A    
C7    H15   1.110009 S    
C24   C28   1.381790 A    
C39   C40   1.386789 A    
C2    H4    1.108157 S    
C42   H43   1.071104 S    
P1    O1    1.548055 D    
P4    O15   1.737227 S    
C41   C42   1.386791 A    
C20   C26   1.386179 A    
C43   Cl7   1.743697 S    
C17   C18   1.426578 A    
C23   C24   1.411875 A    
P3    C44   1.860956 S    
P8    O23   1.534427 D    
C21   C27   1.421490 A    
P3    O11   1.752545 S    
C4    H7    1.107440 S    
C14   H26   1.101109 S    
C15   C16   1.547380 S    
Ba1   Ba2   4.657195 S    
C61   O29   1.220271 D    
P7    C51   1.845613 S    
C11   C60   1.504000 S    
O13   Ba2   2.985652 S    
P2    Ba1   3.459309 S    
C3    H5    1.110673 S    
C5    H11   1.109684 S    
C62   O30   1.222234 D    
C8    C58   1.504440 S    
P4    O13   1.585605 S    
C35   C36   1.436553 A    
C59   O27   1.222937 D    
C17   H31   1.077099 S    
P5    O18   1.545285 D    
C47   Cl6   1.753647 S    
C37   C42   1.394713 A    
O1    Ba1   2.879859 S    
C36   C39   1.418302 A    
C29   H36   1.079363 S    
Ba1   O13   2.831795 S    
C52   H48   1.081111 S    
C13   H24   1.111643 S    
C23   C27   1.432284 A    
C31   H38   1.081920 S    
C19   H32   1.061901 S    
C6    C57   1.505354 S    
P5    O17   1.762000 S    
C54   H46   1.083648 S    
Ba2   O21   2.873066 S    
H1    C10   1.112075 S    
C9    H16   1.112615 S    
C43   C48   1.329867 D    
C2    H3    1.107961 S    
O16   P7    1.766886 S    
P5    O19   1.745431 S    
O14   Ba2   2.794581 S    
C11   H20   1.100454 S    
C18   C26   1.390561 A    
P1    O5    1.764251 S    
C12   H21   1.109426 S    
P1    O2    1.585605 S    
C6    C7    1.533453 S    
C9    Cl1   1.790005 S    
C53   C55   1.484041 S    
C15   H29   1.107900 S    
C8    C59   1.521714 S    
P4    Ba2   3.461003 S    
C17   C25   1.447163 A    
P2    O10   1.784533 S    
C11   O22   1.406037 S    
C16   C62   1.513646 S    
C30   C31   1.391607 A    
P3    O9    1.538933 D    
O2    Ba2   2.832460 S    
O17   Ba2   2.782026 S    
C28   H35   1.080421 S    
C14   H28   1.107266 S    
O11   C2    1.404345 S    
C61   H53   1.086052 S    
C1    H19   1.111010 S    
O19   C13   1.402100 S    
P8    C20   1.854553 S    
O2    Ba1   2.984717 S    
C26   Cl5   1.751981 S    
C44   C45   1.499313 S    
P3    O8    1.728425 S    
C49   H45   1.081250 S    
P1    C24   1.859099 S    
Ba1   O16   2.816730 S    
C21   C22   1.408277 A    
P6    C22   1.840353 S    
C62   H54   1.084684 S    
C32   H39   1.071774 S    
C58   O26   1.211840 D    
P4    O12   1.548388 D    
O6    P6    1.746593 S    
C54   C55   1.342561 D    
C56   C63   1.453969 S    
C43   C44   1.528032 S    
C52   C53   1.404346 A    
C1    H2    1.111038 S    
C10   H18   1.113265 S    
C46   C54   1.485928 S    
O7    Ba1   2.872896 S    
P4    C18   1.885095 S    
C50   C56   1.398465 A    
C45   H47   1.086267 S    
C19   C20   1.402057 A    
C30   H37   1.081984 S    
C14   H27   1.108671 S    
C57   H49   1.084249 S    
C16   C61   1.514921 S    
C36   C37   1.445157 A    
C33   C35   1.428467 A    
C13   C14   1.521436 S    
C4    O15   1.390545 S    
C6    H12   1.095706 S    
C39   H40   1.067195 S    
C22   C28   1.386623 A    
C3    H6    1.110637 S    
P2    O20   1.577602 S    
C60   H52   1.085436 S    
C25   C38   1.579164 S    
C12   H22   1.111598 S    
P2    O7    1.545225 D    
Ba1   O20   2.985184 S    
C23   H34   1.072728 S    
P5    C50   1.854722 S    
C63   O31   1.216998 D    
C31   C32   1.393847 A    
C7    H14   1.110825 S    
C19   C25   1.424073 A    
C33   C34   1.426490 A    
C15   O24   1.412311 S    
O3    Ba1   2.795262 S    
Ba2   O20   2.816040 S    
C1    Cl3   1.782528 S    
P7    O21   1.578613 D    
O16   Ba2   2.984170 S    
C55   H44   1.086913 S    
C29   C30   1.396653 A    
P8    O24   1.755230 S    
C40   C41   1.376144 A    
C5    H9    1.096480 S    
C58   H50   1.079144 S    
O14   P8    1.742124 S    
C34   C38   1.426064 A    
C1    C10   1.522088 S    
O6    C10   1.407263 S    
C13   H25   1.109177 S    
C45   C46   1.346287 D    
C51   C56   1.401490 A    
C15   H30   1.114229 S    
O10   C8    1.432364 S    
C47   C48   1.344694 D    
