data_mof_unit_6404.cif
_audit_creation_date              2012-10-26T20:33:42-0400
_audit_creation_method            fapswitch 2.2
_symmetry_space_group_name_H-M    P1
_symmetry_Int_Tables_number       1
_space_group_crystal_system       triclinic
_cell_length_a                    10.765491
_cell_length_b                    9.083756
_cell_length_c                    7.789077
_cell_angle_alpha                 89.90738
_cell_angle_beta                  89.84651
_cell_angle_gamma                 89.63512
_cell_volume                      761.683203684

loop_
_atom_site_label
_atom_site_type_symbol
_atom_type_description
_atom_site_fract_x
_atom_site_fract_y
_atom_site_fract_z
_atom_type_partial_charge
C1    C     C_R   0.498077 0.220104 0.499963 0.522656
C2    C     C_1   0.498622 0.934642 0.499776 -0.067187
C3    C     C_3   0.069827 0.639893 0.471294 -0.366085
C4    C     C_3   0.927428 0.639207 0.494775 -0.366153
C5    C     C_3   0.122365 0.481958 0.501325 0.001375
C6    C     C_3   0.878096 0.478211 0.500772 0.012728
C7    C     C_3   0.180952 0.199561 0.706706 -0.014818
C8    C     C_3   0.177685 0.187093 0.219892 -0.121370
C9    C     C_3   0.793319 0.197816 0.714412 -0.072140
C10   C     C_3   0.832921 0.226091 0.158036 -0.113304
C11   C     C_R   0.259655 0.492229 0.500342 0.553151
C12   C     C_R   0.740244 0.487853 0.500048 0.559844
C13   C     C_R   0.499574 0.779955 0.499901 0.553199
C14   C     C_1   0.498016 0.065426 0.499885 -0.084045
C15   C     C_3   0.068972 0.430247 0.681496 0.226443
C16   C     C_3   0.073011 0.385926 0.347382 0.203713
C17   C     C_3   0.928353 0.397873 0.667505 0.200350
C18   C     C_3   0.928429 0.396804 0.337977 0.241676
Cu1   Cu    Cu3+1 0.500000 0.500010 0.669080 0.988172
Cu2   Cu    Cu3+1 0.500000 0.500010 0.330920 0.982157
H1    H     H_    0.072613 0.531281 0.762480 0.099490
H2    H     H_    0.229426 0.132531 0.805327 0.087301
H3    H     H_    0.251370 0.222897 0.607475 0.161696
H4    H     H_    0.204794 0.070452 0.240880 0.127576
H5    H     H_    0.264211 0.251198 0.201256 0.156744
H6    H     H_    0.119498 0.192162 0.102646 0.156382
H7    H     H_    0.732571 0.190212 0.600911 0.177675
H8    H     H_    0.749985 0.268986 0.813937 0.097557
H9    H     H_    0.801354 0.085556 0.769635 0.110444
H10   H     H_    0.907481 0.244096 0.061394 0.122787
H11   H     H_    0.750590 0.295708 0.127844 0.132659
H12   H     H_    0.108540 0.436648 0.225704 0.084153
H13   H     H_    0.804252 0.109255 0.150019 0.136530
H14   H     H_    0.884514 0.445580 0.785216 0.070996
H15   H     H_    0.904527 0.468036 0.224937 0.049487
H16   H     H_    0.111278 0.719760 0.562798 0.135471
H17   H     H_    0.093521 0.679314 0.339838 0.135352
H18   H     H_    0.902334 0.697062 0.616030 0.131261
H19   H     H_    0.883928 0.701942 0.387433 0.148084
H20   H     H_    0.105914 0.129279 0.656893 0.214268
N1    N     N_1   0.500000 0.499970 0.076820 -0.098674
N2    N     N_1   0.500000 0.499970 0.923180 -0.090502
O1    O     O_R   0.500000 0.288400 0.642760 -0.519571
O2    O     O_3   0.110797 0.236717 0.364881 -0.548020
O3    O     O_3   0.912253 0.243051 0.661000 -0.520522
O4    O     O_3   0.874855 0.254406 0.325906 -0.492857
O5    O     O_R   0.500000 0.288400 0.357240 -0.503217
O6    O     O_R   0.317700 0.499990 0.642790 -0.473367
O7    O     O_R   0.317700 0.499990 0.357210 -0.521763
O8    O     O_R   0.682300 0.499990 0.642790 -0.532052
O9    O     O_R   0.682300 0.499990 0.357210 -0.506565
O10   O     O_R   0.500000 0.711620 0.642810 -0.496498
O11   O     O_R   0.500000 0.711620 0.357190 -0.493385
O12   O     O_3   0.136878 0.328861 0.786942 -0.579281

loop_
_geom_bond_atom_site_label_1
_geom_bond_atom_site_label_2
_ccdc_geom_bond_type
C10   O4    S    
C12   O8    A    
C7    H20   S    
Cu1   N2    S    
C9    O3    S    
Cu2   O7    S    
C11   O7    A    
C16   H12   S    
C7    H2    S    
C8    H6    S    
N1    N2    T    
C10   H10   S    
Cu1   Cu2   S    
C4    H19   S    
C9    H9    S    
Cu2   N1    S    
C8    H5    S    
C2    C13   S    
Cu1   O8    S    
C3    H17   S    
C11   O6    A    
C3    H16   S    
C6    C18   S    
C18   O4    S    
C4    C6    S    
C8    H4    S    
C4    H18   S    
C5    C11   S    
Cu2   O9    S    
C13   O11   A    
C6    C12   S    
C2    C14   T    
C7    H3    S    
C5    C15   S    
Cu2   O5    S    
C17   H14   S    
C3    C4    S    
C13   O10   A    
C15   O12   S    
C15   H1    S    
C12   O9    A    
C9    H7    S    
C16   C18   S    
C10   H13   S    
C18   H15   S    
C15   C17   S    
C6    C17   S    
C16   O2    S    
Cu1   O6    S    
C1    O5    A    
C5    C16   S    
C1    C14   S    
Cu1   O1    S    
C7    O12   S    
Cu1   O10   S    
C1    O1    A    
C8    O2    S    
C9    H8    S    
C17   O3    S    
Cu2   O11   S    
C3    C5    S    
C10   H11   S    
