data_mof_unit_14540.cif
_audit_creation_date              2012-12-10T16:37:27-0500
_audit_creation_method            fapswitch 2.2
_symmetry_space_group_name_H-M    P1
_symmetry_Int_Tables_number       1
_space_group_crystal_system       triclinic
_cell_length_a                    16.873654
_cell_length_b                    16.776698
_cell_length_c                    16.833293
_cell_angle_alpha                 65.824381
_cell_angle_beta                  65.899838
_cell_angle_gamma                 65.879051
_cell_volume                      3797.92246168

loop_
_atom_site_label
_atom_site_type_symbol
_atom_type_description
_atom_site_fract_x
_atom_site_fract_y
_atom_site_fract_z
_atom_type_partial_charge
C1    C     C_R   0.405957 0.046956 0.657771 0.418375
C2    C     C_R   0.398987 0.660377 0.060352 0.497565
C3    C     C_R   0.937753 0.605286 0.334946 0.409924
C4    C     C_R   0.903431 0.475032 0.700948 0.417612
C5    C     C_R   0.962287 0.179605 0.437937 0.910288
C6    C     C_R   0.037479 0.820537 0.561975 0.868576
C7    C     C_R   0.175766 0.430047 0.981252 0.921868
C8    C     C_R   0.820689 0.562474 0.036810 0.871373
C9    C     C_R   0.437540 0.963143 0.179531 0.887136
C10   C     C_R   0.562076 0.037308 0.820639 0.883374
C11   C     C_R   0.562283 0.820437 0.037290 0.888108
C12   C     C_R   0.601646 0.938343 0.340554 0.493555
C13   C     C_R   0.438168 0.179421 0.962188 0.883944
C14   C     C_R   0.017517 0.570281 0.824677 0.917229
C15   C     C_R   0.962655 0.437704 0.179342 0.873560
C16   C     C_R   0.824374 0.018474 0.569967 0.903172
C17   C     C_R   0.179269 0.963527 0.437377 0.889987
C18   C     C_R   0.450344 0.064065 0.700969 -0.174665
C19   C     C_R   0.555789 0.925895 0.295890 -0.213079
C20   C     C_R   0.062271 0.701301 0.450621 -0.178094
C21   C     C_R   0.923352 0.296484 0.556917 -0.191920
C22   C     C_R   0.707428 0.442252 0.073328 -0.180003
C23   C     C_R   0.044300 0.658692 0.406355 0.399859
C24   C     C_R   0.259166 0.487162 0.067910 -0.310927
C25   C     C_R   0.292866 0.926532 0.556979 -0.185135
C26   C     C_R   0.741042 0.930254 0.514108 -0.311428
C27   C     C_R   0.549935 0.299308 0.934868 -0.172830
C28   C     C_R   0.444306 0.704219 0.074589 -0.209995
C29   C     C_R   0.924029 0.558172 0.292410 -0.189599
C30   C     C_R   0.927936 0.514475 0.742742 -0.190311
C31   C     C_R   0.552088 0.983885 0.559029 -0.067112
C32   C     C_R   0.465587 0.949073 0.469293 -0.061682
C33   C     C_R   0.978759 0.561542 0.553027 -0.022963
C34   C     C_R   0.934100 0.342249 0.603096 0.409186
C35   C     C_R   0.944547 0.471423 0.466366 -0.024914
C36   C     C_R   0.534606 0.530537 0.050860 -0.059855
C37   C     C_R   0.448137 0.441322 0.015277 -0.064440
C38   C     C_R   0.604197 0.946857 0.484980 0.016535
C39   C     C_R   0.418290 0.963902 0.555872 -0.068880
C40   C     C_R   0.940450 0.488213 0.605529 -0.067620
C41   C     C_R   0.959991 0.558091 0.418405 -0.070317
C42   C     C_R   0.441749 0.569540 0.054405 -0.042182
C43   C     C_R   0.542943 0.407979 0.001674 -0.081195
C44   C     C_R   0.558653 0.944610 0.431011 -0.040285
C45   C     C_R   0.663856 0.395493 0.060306 0.422990
C46   C     C_R   0.457266 0.997921 0.591893 -0.078450
C47   C     C_R   0.396063 0.515853 0.051825 0.016468
C48   C     C_R   0.581853 0.443712 0.036017 -0.068454
C49   C     C_R   0.939270 0.433444 0.559918 -0.072366
C50   C     C_R   0.993722 0.594055 0.457748 -0.081457
C51   C     C_R   0.545549 0.039918 0.676350 0.001311
C52   C     C_R   0.462028 0.934593 0.330848 -0.005176
C53   C     C_R   0.037858 0.676884 0.545963 -0.004116
C54   C     C_R   0.931922 0.331609 0.462910 -0.001880
C55   C     C_R   0.671924 0.536954 0.063250 -0.003284
C56   C     C_R   0.301224 0.530092 0.088654 0.426355
C57   C     C_R   0.309852 0.428006 0.013132 0.038568
C58   C     C_R   0.328212 0.937098 0.462513 -0.001257
C59   C     C_R   0.690393 0.985718 0.572591 0.039112
C60   C     C_R   0.454753 0.324143 0.958858 0.000665
C61   C     C_R   0.537957 0.668866 0.066253 -0.006963
C62   C     C_R   0.934159 0.463591 0.328551 -0.010438
C63   C     C_R   0.983132 0.573344 0.691443 -0.015911
C64   C     C_R   0.593518 0.050370 0.723081 -0.108484
C65   C     C_R   0.408866 0.940488 0.279012 -0.097577
C66   C     C_R   0.049934 0.722904 0.593533 -0.100913
C67   C     C_R   0.336302 0.939573 0.603734 0.417878
C68   C     C_R   0.938554 0.279373 0.409536 -0.107376
C69   C     C_R   0.721941 0.590795 0.059189 -0.096667
C70   C     C_R   0.269204 0.392214 0.980875 -0.094654
C71   C     C_R   0.278045 0.941477 0.408824 -0.104060
C72   C     C_R   0.731049 0.018270 0.608077 -0.087087
C73   C     C_R   0.406887 0.277328 0.948363 -0.110025
C74   C     C_R   0.590958 0.720741 0.060554 -0.099097
C75   C     C_R   0.939353 0.409437 0.278337 -0.095254
C76   C     C_R   0.016932 0.608313 0.731515 -0.094726
C77   C     C_R   0.681904 0.051022 0.681926 -0.293647
C78   C     C_R   0.698805 0.908731 0.471970 0.430724
C79   C     C_R   0.320319 0.938624 0.320480 -0.284546
C80   C     C_R   0.050824 0.681514 0.681905 -0.280859
C81   C     C_R   0.936397 0.320882 0.320841 -0.285366
C82   C     C_R   0.679453 0.679208 0.062635 -0.285690
C83   C     C_R   0.318494 0.318499 0.947725 -0.288489
C84   C     C_R   0.595648 0.004463 0.601727 0.056592
C85   C     C_R   0.418843 0.939813 0.420925 0.061925
C86   C     C_R   0.000877 0.603156 0.596499 0.057020
C87   C     C_R   0.936276 0.422299 0.419579 0.058987
C88   C     C_R   0.581256 0.578690 0.060641 0.061262
C89   C     C_R   0.594302 0.342101 0.952553 0.410603
C90   C     C_R   0.404602 0.398800 0.994442 0.058525
H1    H     H_    0.715001 0.068906 0.712966 0.192203
H2    H     H_    0.909196 0.232241 0.597502 0.206680
H3    H     H_    0.766978 0.401353 0.096184 0.199989
H4    H     H_    0.187082 0.497122 0.099098 0.173974
H5    H     H_    0.233522 0.903281 0.597697 0.198804
H6    H     H_    0.813170 0.899137 0.504199 0.174351
H7    H     H_    0.591154 0.250032 0.897059 0.187820
H8    H     H_    0.403482 0.767574 0.090443 0.205849
H9    H     H_    0.901490 0.598658 0.232475 0.205106
H10   H     H_    0.898162 0.502696 0.815389 0.196821
H11   H     H_    0.294856 0.097980 0.623557 0.350951
H12   H     H_    0.281073 0.942720 0.280776 0.196386
H13   H     H_    0.691160 0.998824 0.307817 0.339833
H14   H     H_    0.094780 0.623065 0.296449 0.352076
H15   H     H_    0.991725 0.310841 0.694447 0.356034
H16   H     H_    0.651171 0.274813 0.096189 0.351515
H17   H     H_    0.186619 0.586456 0.165814 0.338870
H18   H     H_    0.348998 0.903069 0.724095 0.352520
H19   H     H_    0.811556 0.823261 0.424730 0.325593
H20   H     H_    0.705532 0.375761 0.902960 0.378437
H21   H     H_    0.311479 0.694156 0.997314 0.339135
H22   H     H_    0.908250 0.726755 0.342246 0.361279
H23   H     H_    0.069844 0.712068 0.714620 0.190783
H24   H     H_    0.805934 0.432797 0.715613 0.354242
H25   H     H_    0.940777 0.280935 0.281486 0.195976
H26   H     H_    0.718566 0.719020 0.058839 0.196770
H27   H     H_    0.285441 0.287328 0.929876 0.192215
H28   H     H_    0.409092 0.101816 0.750219 0.187152
H29   H     H_    0.596450 0.910649 0.232439 0.206740
H30   H     H_    0.101175 0.749607 0.409235 0.194918
O1    O     O_R   0.982940 0.138950 0.510160 -0.629493
O2    O     O_R   0.982940 0.510160 0.138950 -0.651668
O3    O     O_R   0.861050 0.017060 0.489840 -0.631856
O4    O     O_R   0.138950 0.982940 0.510160 -0.631644
O5    O     O_R   0.867700 0.025880 0.612340 -0.629559
O6    O     O_R   0.132300 0.974120 0.387660 -0.621224
O7    O     O_R   0.025880 0.612340 0.867700 -0.618684
O8    O     O_R   0.974120 0.387660 0.132300 -0.628126
O9    O     O_R   0.612340 0.867700 0.025880 -0.621814
O10   O     O_R   0.387660 0.132300 0.974120 -0.618699
O11   O     O_R   0.387660 0.974120 0.132300 -0.621753
O12   O     O_R   0.017060 0.861050 0.489840 -0.646456
O13   O     O_R   0.612340 0.025880 0.867700 -0.618132
O14   O     O_R   0.132300 0.387660 0.974120 -0.618135
O15   O     O_R   0.867700 0.612340 0.025880 -0.627967
O16   O     O_R   0.974120 0.132300 0.387660 -0.614376
O17   O     O_R   0.025880 0.867700 0.612340 -0.623593
O18   O     O_3   0.313121 0.084961 0.677582 -0.721424
O19   O     O_3   0.684755 0.953526 0.288991 -0.697076
O20   O     O_3   0.083374 0.677351 0.313614 -0.699053
O21   O     O_3   0.947184 0.291715 0.687472 -0.700916
O22   O     O_3   0.700330 0.301975 0.078612 -0.718390
O23   O     O_R   0.138950 0.510160 0.982940 -0.627204
O24   O     O_3   0.251873 0.579612 0.150628 -0.707099
O25   O     O_3   0.299821 0.920995 0.696934 -0.721556
O26   O     O_3   0.747488 0.844746 0.424662 -0.717146
O27   O     O_3   0.687158 0.321939 0.915034 -0.693685
O28   O     O_3   0.316994 0.713160 0.042903 -0.696924
O29   O     O_3   0.922773 0.698170 0.295198 -0.700737
O30   O     O_3   0.838159 0.430239 0.754758 -0.726972
O31   O     O_R   0.861050 0.489840 0.017060 -0.647384
O32   O     O_R   0.510160 0.982940 0.138950 -0.632340
O33   O     O_R   0.489840 0.017060 0.861050 -0.627350
O34   O     O_R   0.489840 0.861050 0.017060 -0.631858
O35   O     O_R   0.510160 0.138950 0.982940 -0.626337
O36   O     O_R   0.017060 0.489840 0.861050 -0.626775
Zn1   Zn    Zn3+2 0.004880 0.004880 0.583590 1.003414
Zn2   Zn    Zn3+2 0.995120 0.995120 0.416410 0.989591
Zn3   Zn    Zn3+2 0.004880 0.583590 0.004880 0.989098
Zn4   Zn    Zn3+2 0.995120 0.416410 0.995120 1.000574
Zn5   Zn    Zn3+2 0.583590 0.004880 0.004880 1.006768
Zn6   Zn    Zn3+2 0.416410 0.995120 0.995120 1.004422

loop_
_geom_bond_atom_site_label_1
_geom_bond_atom_site_label_2
_ccdc_geom_bond_type
C5    O16   A    
O14   Zn4   S    
C9    O32   A    
C65   C79   A    
C15   O2    A    
C5    O1    A    
C64   C77   A    
C36   C42   A    
H19   O26   S    
C16   C72   S    
C10   O13   A    
C7    C70   S    
C7    O23   A    
C34   O21   S    
O35   Zn5   S    
C38   C44   A    
C1    C18   A    
C26   C78   A    
C37   C90   A    
C68   C81   A    
C52   C85   A    
C16   O3    A    
C24   H4    S    
C27   C60   A    
H15   O21   S    
C54   C87   A    
O5    Zn1   S    
C17   O6    A    
C54   C68   A    
C63   C76   A    
C2    O28   S    
C40   C49   A    
C30   H10   S    
C60   C73   A    
C32   C39   A    
C55   C88   A    
C3    C29   A    
C13   O35   A    
C69   C82   A    
C11   O34   A    
C35   C87   A    
C19   C52   A    
C27   H7    S    
C4    C40   A    
C24   C57   A    
C14   O7    A    
C31   C46   A    
C25   C67   A    
C35   C49   A    
C13   O10   A    
C79   H12   S    
C36   C48   A    
C53   C86   A    
C57   C70   A    
C37   C47   A    
C43   C48   A    
C18   H28   S    
O32   Zn5   S    
C59   C72   A    
O16   Zn2   S    
C28   C61   A    
O10   Zn6   S    
C9    O11   A    
C19   H29   S    
O1    Zn1   S    
C30   C63   A    
C8    O15   A    
C74   C82   A    
C5    C68   S    
C35   C41   A    
C11   O9    A    
C10   O33   A    
C71   C79   A    
C18   C51   A    
H16   O22   S    
O6    Zn2   S    
C26   H6    S    
C3    O29   S    
C33   C40   A    
O15   Zn3   S    
C57   C90   A    
C29   H9    S    
C1    O18   S    
C23   O20   S    
O36   Zn4   S    
C8    O31   A    
C59   C84   A    
C7    O14   A    
C6    O12   A    
C8    C69   S    
C75   C81   A    
C23   C50   A    
C21   C34   A    
C38   C78   A    
O11   Zn6   S    
C33   C50   A    
O12   Zn2   S    
C31   C84   A    
H14   O20   S    
C14   C76   S    
C37   C43   A    
C33   C86   A    
C67   O25   S    
C72   C77   A    
C70   C83   A    
C61   C88   A    
H13   O19   S    
C17   O4    A    
C20   C23   A    
O2    Zn3   S    
O4    Zn1   S    
C81   H25   S    
C32   C44   A    
C12   O19   S    
O9    Zn5   S    
C43   C89   A    
O23   Zn3   S    
C53   C66   A    
C55   C69   A    
C39   C46   A    
C13   C73   S    
C17   C71   S    
C15   O8    A    
C63   C86   A    
C45   O22   S    
C22   H3    S    
C62   C75   A    
C25   C58   A    
H24   O30   S    
H20   O27   S    
C58   C85   A    
O7    Zn3   S    
C41   C50   A    
C20   H30   S    
C4    O30   S    
O8    Zn4   S    
H18   O25   S    
C16   O5    A    
C45   C48   A    
C28   H8    S    
C89   O27   S    
C29   C62   A    
C77   H1    S    
C34   C49   A    
C14   O36   A    
C39   C67   A    
O34   Zn6   S    
C10   C64   S    
C51   C64   A    
C76   C80   A    
C20   C53   A    
C11   C74   S    
O13   Zn5   S    
H11   O18   S    
C25   H5    S    
C22   C55   A    
O3    Zn2   S    
C60   C90   A    
C61   C74   A    
C24   C56   A    
C66   C80   A    
C62   C87   A    
C31   C38   A    
O17   Zn1   S    
O33   Zn6   S    
C15   C75   S    
O31   Zn4   S    
C83   H27   S    
C6    O17   A    
C82   H26   S    
C36   C88   A    
H21   O28   S    
C21   C54   A    
C2    C42   A    
C32   C85   A    
C12   C19   A    
C27   C89   A    
C42   C47   A    
C1    C46   A    
C9    C65   S    
C3    C41   A    
C58   C71   A    
C78   O26   S    
C56   O24   S    
C6    C66   S    
C22   C45   A    
C80   H23   S    
C12   C44   A    
H22   O29   S    
C26   C59   A    
C2    C28   A    
H17   O24   S    
C51   C84   A    
C73   C83   A    
C4    C30   A    
C52   C65   A    
C47   C56   A    
C21   H2    S    
