data_mof_unit_6257.cif
_audit_creation_date              2012-12-11T14:35:46-0500
_audit_creation_method            fapswitch 2.2
_symmetry_space_group_name_H-M    P1
_symmetry_Int_Tables_number       1
_space_group_crystal_system       triclinic
_cell_length_a                    14.400103
_cell_length_b                    16.171903
_cell_length_c                    6.917364
_cell_angle_alpha                 90.000018
_cell_angle_beta                  80.804818
_cell_angle_gamma                 90.000064
_cell_volume                      1590.19497268

loop_
_atom_site_label
_atom_site_type_symbol
_atom_type_description
_atom_site_fract_x
_atom_site_fract_y
_atom_site_fract_z
_atom_type_partial_charge
O1    O     O_R   0.337460 0.413110 0.524760 -0.531650
O2    O     O_R   0.662540 0.913110 0.475240 -0.531651
O3    O     O_R   0.348690 0.587910 0.191230 -0.553024
O4    O     O_R   0.651310 0.087910 0.808770 -0.553024
O5    O     O_R   0.166530 0.586890 0.082470 -0.534071
O6    O     O_R   0.833470 0.086890 0.917530 -0.534072
C1    C     C_R   0.370491 0.616784 0.353411 0.721439
C2    C     C_R   0.629508 0.116783 0.646589 0.721438
O7    O     O_R   0.348700 0.413830 0.191250 -0.538038
O8    O     O_R   0.651300 0.913830 0.808750 -0.538038
O9    O     O_R   0.166530 0.411570 0.082490 -0.535024
O10   O     O_R   0.833470 0.911570 0.917510 -0.535024
C3    C     C_R   0.371360 0.385513 0.353077 0.787204
C4    C     C_R   0.628640 0.885513 0.646923 0.787204
O11   O     O_R   0.337460 0.588430 0.524740 -0.552724
O12   O     O_R   0.662540 0.088430 0.475260 -0.552724
O13   O     O_3   0.192230 0.499460 0.407330 -0.365335
O14   O     O_3   0.807770 0.999460 0.592670 -0.365335
V1    V     V_3+5 0.263080 0.500100 0.108540 1.530374
V2    V     V_3+5 0.736920 0.000100 0.891460 1.530375
O15   O     O_R   0.155290 0.412090 0.756570 -0.531900
O16   O     O_R   0.844710 0.912090 0.243430 -0.531900
C5    C     C_R   0.131304 0.384035 0.934121 0.862362
C6    C     C_R   0.868696 0.884035 0.065879 0.862362
O17   O     O_R   0.155290 0.586170 0.756550 -0.551484
O18   O     O_R   0.844710 0.086170 0.243450 -0.551484
C7    C     C_R   0.132459 0.615263 0.933253 0.752589
C8    C     C_R   0.867541 0.115263 0.066747 0.752589
V3    V     V_3+5 0.240910 0.499900 0.616030 1.526232
V4    V     V_3+5 0.759090 0.999900 0.383970 1.526233
O19   O     O_3   0.311760 0.500540 0.867100 -0.380096
O20   O     O_3   0.688240 0.000540 0.132900 -0.380096
C9    C     C_3   0.049138 0.716960 0.184164 -0.327541
C10   C     C_3   0.950863 0.216959 0.815835 -0.327535
H1    H     H_    0.019795 0.666206 0.284235 0.190710
H2    H     H_    0.980207 0.166205 0.715765 0.190716
H3    H     H_    0.118474 0.734027 0.224418 0.155778
H4    H     H_    0.881527 0.234026 0.775579 0.155777
C11   C     C_3   0.982968 0.792599 0.216373 -0.310619
C12   C     C_3   0.017033 0.292598 0.783627 -0.310617
H5    H     H_    0.022655 0.846355 0.259337 0.218391
H6    H     H_    0.977345 0.346354 0.740662 0.218388
H7    H     H_    0.927519 0.781229 0.344180 0.195851
H8    H     H_    0.072482 0.281228 0.655819 0.195854
H9    H     H_    0.939445 0.605740 0.011888 0.257331
H10   H     H_    0.060554 0.105739 0.988117 0.257332
C13   C     C_3   0.963907 0.660446 0.923114 -0.343662
C14   C     C_3   0.036092 0.160446 0.076888 -0.343662
C15   C     C_3   0.097141 0.761386 0.835950 -0.379854
C16   C     C_3   0.902859 0.261386 0.164049 -0.379850
C17   C     C_3   0.062053 0.686659 0.967936 -0.053325
C18   C     C_3   0.937947 0.186658 0.032064 -0.053329
H11   H     H_    0.113815 0.741644 0.680086 0.132701
H12   H     H_    0.886183 0.241644 0.319913 0.132702
H13   H     H_    0.163800 0.784433 0.878677 0.201224
H14   H     H_    0.836200 0.284433 0.121320 0.201230
C19   C     C_3   0.939186 0.812593 0.029459 -0.170997
C20   C     C_3   0.060815 0.312593 0.970541 -0.171002
C21   C     C_3   0.890680 0.732126 0.965300 0.237708
C22   C     C_3   0.109320 0.232125 0.034700 0.237715
C23   C     C_3   0.021392 0.830996 0.854428 0.336209
C24   C     C_3   0.978608 0.330996 0.145572 0.336212
H15   H     H_    0.990739 0.829909 0.716435 0.057447
H16   H     H_    0.009260 0.329909 0.283564 0.057447
H17   H     H_    0.970040 0.641407 0.766945 0.152168
H18   H     H_    0.029959 0.141408 0.233059 0.152168
H19   H     H_    0.864985 0.745833 0.825165 0.087632
H20   H     H_    0.135016 0.245833 0.174834 0.087631
H21   H     H_    0.554979 0.815261 0.354224 0.184823
H22   H     H_    0.445022 0.315261 0.645776 0.184822
C25   C     C_2   0.438144 0.685819 0.343261 -0.269558
C26   C     C_2   0.561856 0.185819 0.656739 -0.269558
C27   C     C_2   0.463359 0.718418 0.506471 -0.107041
C28   C     C_2   0.536641 0.218419 0.493529 -0.107039
H23   H     H_    0.533148 0.790862 0.800591 0.136485
H24   H     H_    0.466852 0.290862 0.199409 0.136485
C29   C     C_2   0.559391 0.817686 0.658231 -0.282560
C30   C     C_2   0.440609 0.317687 0.341769 -0.282557
C31   C     C_2   0.529831 0.788087 0.496548 -0.042859
C32   C     C_2   0.470169 0.288087 0.503452 -0.042857
H25   H     H_    0.467155 0.710787 0.200425 0.145076
H26   H     H_    0.532845 0.210787 0.799575 0.145076
H27   H     H_    0.434996 0.693501 0.649735 0.146274
H28   H     H_    0.565004 0.193501 0.350265 0.146275
S1    S     S_3+6 0.786584 0.698927 0.128817 0.008574
O21   O     O_2   0.713939 0.766268 0.147613 -0.343844
O22   O     O_2   0.746632 0.624128 0.042551 -0.300769
O23   O     O_3   0.809265 0.674710 0.353114 -0.495609
H29   H     H_    0.846389 0.622995 0.335606 0.357695
S2    S     S_3+6 0.213415 0.198926 0.871181 0.008573
O24   O     O_2   0.286058 0.266268 0.852374 -0.343846
O25   O     O_2   0.253370 0.124129 0.957453 -0.300778
O26   O     O_3   0.190730 0.174703 0.646889 -0.495607
H30   H     H_    0.153614 0.122984 0.664401 0.357713
S3    S     S_3+6 0.075342 0.931322 0.852470 -0.049958
O27   O     O_2   0.011204 0.993771 0.781987 -0.377653
O28   O     O_2   0.094501 0.954875 0.052420 -0.352202
O29   O     O_3   0.177344 0.929932 0.695202 -0.493027
H31   H     H_    0.210964 0.980674 0.724563 0.392128
S4    S     S_3+6 0.924657 0.431322 0.147529 -0.049958
O30   O     O_2   0.988797 0.493770 0.218009 -0.377662
O31   O     O_2   0.905498 0.454875 0.947579 -0.352193
O32   O     O_3   0.822659 0.429929 0.304807 -0.493029
H32   H     H_    0.789052 0.480683 0.275484 0.392131

loop_
_geom_bond_atom_site_label_1
_geom_bond_atom_site_label_2
_ccdc_geom_bond_type
C20   C24   S    
C5    C20   S    
O26   H30   S    
O11   V3    S    
O13   V3    S    
S3    O27   D    
O4    C2    A    
V1    O19   S    
S3    O29   S    
C11   H5    S    
S1    O21   D    
O9    V1    S    
C16   H12   S    
C10   C12   S    
H24   C30   S    
O3    C1    A    
C1    C25   S    
C30   C32   D    
C19   C21   S    
C20   C22   S    
C11   C19   S    
C4    C29   S    
C23   H15   S    
O7    C3    A    
C24   H16   S    
C21   H19   S    
O5    C7    A    
O7    V1    S    
O6    C8    A    
O8    V2    S    
C6    C19   S    
C15   C17   S    
C16   C18   S    
O3    V1    S    
O14   V4    S    
C10   H2    S    
S1    O22   D    
C2    O12   A    
C28   C32   S    
O1    V3    S    
C7    C17   S    
C14   C22   S    
H9    C13   S    
O17   V3    S    
H10   C14   S    
C2    C26   S    
C15   C23   S    
H22   C32   S    
C12   C20   S    
C26   C28   D    
O8    C4    A    
C25   C27   D    
O13   V1    S    
C13   C17   S    
C1    O11   A    
C15   H13   S    
O15   V3    S    
S4    O32   S    
C16   H14   S    
C21   S1    S    
C23   S3    S    
S2    O25   D    
C14   C18   S    
O10   V2    S    
S4    O31   D    
C27   C31   S    
C29   C31   D    
C9    C11   S    
H23   C29   S    
C24   S4    S    
O18   V4    S    
O15   C5    A    
C16   C24   S    
O16   C6    A    
H21   C31   S    
C9    C17   S    
S2    O26   S    
V2    O20   S    
S1    O23   S    
C3    C30   S    
O16   V4    S    
C10   H4    S    
C10   C18   S    
C28   H28   S    
C12   H6    S    
C11   H7    S    
S3    O28   D    
C19   C23   S    
O5    V1    S    
C22   S2    S    
O17   C7    A    
O6    V2    S    
O10   C6    A    
O18   C8    A    
O2    V4    S    
V3    O19   S    
V4    O20   S    
C8    C18   S    
S2    O24   D    
C15   H11   S    
O9    C5    A    
S4    O30   D    
C9    H1    S    
C27   H27   S    
O14   V2    S    
O2    C4    A    
C9    H3    S    
C13   C21   S    
O4    V2    S    
C12   H8    S    
O1    C3    A    
O23   H29   S    
C22   H20   S    
O29   H31   S    
O32   H32   S    
C14   H18   S    
O12   V4    S    
C13   H17   S    
C26   H26   S    
C25   H25   S    
