data_mof_unit_14381.cif
_audit_creation_date              2012-12-10T16:44:15-0500
_audit_creation_method            fapswitch 2.2
_symmetry_space_group_name_H-M    P1
_symmetry_Int_Tables_number       1
_space_group_crystal_system       triclinic
_cell_length_a                    7.430407
_cell_length_b                    8.693963
_cell_length_c                    13.406754
_cell_angle_alpha                 94.036952
_cell_angle_beta                  77.367058
_cell_angle_gamma                 103.124229
_cell_volume                      822.835320799

loop_
_atom_site_label
_atom_site_type_symbol
_atom_type_description
_atom_site_fract_x
_atom_site_fract_y
_atom_site_fract_z
_atom_type_partial_charge
C1    C     C_R   0.545274 0.800195 0.503090 0.878759
C2    C     C_R   0.417481 0.507042 0.975589 0.022200
C3    C     C_R   0.465412 0.553831 0.872116 0.078505
C4    C     C_R   0.558894 0.545367 0.035567 0.139663
C5    C     C_R   0.738418 0.641157 0.994453 0.092898
C6    C     C_R   0.774622 0.700436 0.896602 -0.189052
C7    C     C_R   0.639442 0.659719 0.836982 -0.160014
C8    C     C_R   0.527877 0.491044 0.135248 -0.254781
C9    C     C_R   0.841509 0.630217 0.153086 0.615985
C10   C     C_R   0.337075 0.494498 0.806724 -0.196243
C11   C     C_2   0.570791 0.968047 0.504640 -0.354779
C12   C     C_R   0.399481 0.497885 0.694481 0.806422
C13   C     C_2   0.429075 0.031942 0.495611 -0.353854
C14   C     C_R   0.454658 0.199806 0.497035 0.885467
C15   C     C_R   0.601918 0.511941 0.305853 0.840934
C16   C     C_R   0.878827 0.680118 0.052672 -0.234429
C17   C     C_R   0.663260 0.538900 0.195625 -0.158370
C18   C     C_R   0.152932 0.413563 0.848560 -0.280078
C19   C     C_R   0.099016 0.382210 0.952203 0.641697
C20   C     C_R   0.229696 0.425255 0.014933 -0.245314
Cu1   Cu    Cu3+1 0.321300 0.483160 0.488710 0.975351
Cu2   Cu    Cu3+1 0.678700 0.516840 0.511290 0.986207
H1    H     H_    0.292467 0.960579 0.487083 0.186424
H2    H     H_    0.010875 0.617641 0.579351 0.219854
H3    H     H_    0.989062 0.382319 0.420696 0.235490
H4    H     H_    0.908282 0.779043 0.865888 0.145815
H5    H     H_    0.016174 0.752814 0.021209 0.161878
H6    H     H_    0.397228 0.413153 0.169102 0.171868
H7    H     H_    0.051834 0.369836 0.800399 0.188575
H8    H     H_    0.177694 0.395881 0.094277 0.175184
H9    H     H_    0.672205 0.715680 0.763814 0.155755
H10   H     H_    0.707391 0.039403 0.513185 0.180646
N1    N     N_2   0.947230 0.542220 0.528320 -0.208908
N2    N     N_2   0.052770 0.457780 0.471680 -0.199944
O1    O     O_R   0.383920 0.714220 0.492660 -0.581598
O2    O     O_R   0.685730 0.742660 0.511730 -0.583605
O3    O     O_R   0.275440 0.478800 0.636790 -0.592913
O4    O     O_R   0.577250 0.507240 0.655860 -0.584588
O5    O     O_R   0.314270 0.257340 0.488270 -0.584866
O6    O     O_R   0.616080 0.285780 0.507340 -0.587483
O7    O     O_R   0.422750 0.492760 0.344140 -0.580159
O8    O     O_R   0.724560 0.521200 0.363210 -0.529909
F1    F     F_    0.975854 0.678026 0.209644 -0.656818
F2    F     F_    0.920221 0.304031 0.991680 -0.667871

loop_
_geom_bond_atom_site_label_1
_geom_bond_atom_site_label_2
_ccdc_geom_bond_type
C2    C4    A    
C6    C7    A    
Cu1   O1    S    
H2    N1    S    
Cu2   O2    S    
C15   O8    A    
C8    C17   A    
Cu1   O5    S    
H3    N2    S    
C4    C8    A    
Cu2   O6    S    
C16   H5    S    
C2    C3    A    
C6    H4    S    
C18   H7    S    
C20   H8    S    
Cu1   Cu2   S    
C11   C13   D    
C13   H1    S    
Cu2   O8    S    
C10   C12   S    
C10   C18   A    
Cu1   O7    S    
C9    C17   A    
C9    C16   A    
C11   H10   S    
N1    N2    D    
C3    C7    A    
C12   O4    A    
C5    C6    A    
C8    H6    S    
C9    F1    S    
C7    H9    S    
C15   O7    A    
C14   O6    A    
Cu2   O4    S    
Cu1   O3    S    
C19   F2    S    
C1    O1    A    
C15   C17   S    
C18   C19   A    
C12   O3    A    
C3    C10   A    
Cu2   N1    S    
C5    C16   A    
Cu1   N2    S    
C14   O5    A    
C13   C14   S    
C2    C20   A    
C19   C20   A    
C1    O2    A    
C4    C5    A    
C1    C11   S    
