data_mof_unit_41596.cif
_audit_creation_date              2012-12-11T19:34:29-0500
_audit_creation_method            fapswitch 2.2
_symmetry_space_group_name_H-M    P1
_symmetry_Int_Tables_number       1
_space_group_crystal_system       triclinic
_cell_length_a                    8.583495
_cell_length_b                    15.298322
_cell_length_c                    18.571041
_cell_angle_alpha                 99.0343
_cell_angle_beta                  92.053442
_cell_angle_gamma                 99.072077
_cell_volume                      2373.64680953

loop_
_atom_site_label
_atom_site_type_symbol
_atom_type_description
_atom_site_fract_x
_atom_site_fract_y
_atom_site_fract_z
_atom_type_partial_charge
Ba1   Ba    Ba6+2 0.852320 0.543020 0.467270 1.606826
Ba2   Ba    Ba6+2 0.337520 0.457050 0.532740 1.619987
C1    C     C_3   0.664236 0.856111 0.284936 -0.244823
C2    C     C_3   0.430844 0.508631 0.248050 -0.020749
C3    C     C_2   0.377287 0.505186 0.167512 0.000191
C4    C     C_3   0.105814 0.728430 0.271239 0.329012
C5    C     C_2   0.218857 0.496652 0.147483 -0.067832
C6    C     C_2   0.102416 0.484053 0.205577 -0.180016
C7    C     C_1   0.152373 0.482544 0.273960 0.096959
C8    C     C_R   0.049061 0.497187 0.929397 0.458553
C9    C     C_R   0.157569 0.498321 0.070388 0.452613
C10   C     C_R   0.092877 0.527830 0.799821 -0.141591
C11   C     C_R   0.048742 0.509787 0.724051 0.130219
C12   C     C_3   0.672635 0.765531 0.308679 0.330868
C13   C     C_R   0.797965 0.429151 0.749371 -0.037839
C14   C     C_R   0.843053 0.444245 0.824331 -0.139715
C15   C     C_R   0.994465 0.490306 0.850530 -0.090353
C16   C     C_3   0.020851 0.740726 0.200478 -0.351762
C17   C     C_R   0.905582 0.455585 0.699129 -0.247210
C18   C     C_R   0.846291 0.169505 0.544755 -0.020650
C19   C     C_R   0.786871 0.075215 0.534134 -0.009129
C20   C     C_R   0.653403 0.887640 0.519226 -0.052693
C21   C     C_R   0.799750 0.923620 0.557918 -0.074872
C22   C     C_R   0.864167 0.014830 0.565596 -0.119860
C23   C     C_3   0.489089 0.311981 0.300386 0.334887
C24   C     C_R   0.584590 0.794737 0.514574 0.054276
C25   C     C_R   0.428904 0.767628 0.483011 -0.260306
C26   C     C_R   0.616993 0.194841 0.475333 0.015996
C27   C     C_R   0.561599 0.100827 0.460831 -0.073824
C28   C     C_3   0.226488 0.769538 0.700445 0.728931
C29   C     C_R   0.641013 0.040974 0.493385 0.020312
C30   C     C_R   0.415235 0.067931 0.424246 -0.066113
C31   C     C_R   0.330326 0.985937 0.434229 0.020620
C32   C     C_R   0.409955 0.919567 0.459010 -0.031959
C33   C     C_R   0.569613 0.948300 0.488582 -0.001249
C34   C     C_3   0.574892 0.304750 0.229060 0.332553
C35   C     C_R   0.338940 0.827480 0.456639 -0.003700
C36   C     C_R   0.756651 0.227575 0.518149 -0.309330
C37   C     C_3   0.219334 0.836604 0.775138 -0.019214
C38   C     C_3   0.905940 0.252736 0.344419 0.310596
C39   C     C_3   0.820757 0.169146 0.293080 -0.323717
C40   C     C_3   0.747232 0.691816 0.703527 0.300988
C41   C     C_3   0.673972 0.714610 0.777843 -0.193170
C42   C     C_3   0.053936 0.853214 0.796088 -0.459773
C43   C     C_3   0.300928 0.806566 0.840161 -0.324256
C44   C     C_3   0.012480 0.221708 0.398634 -0.304798
C45   C     C_3   0.042528 0.269239 0.730192 0.355238
C46   C     C_3   0.707858 0.594248 0.674150 -0.198922
C47   C     C_3   0.792339 0.929383 0.324856 -0.481874
C48   C     C_3   0.736085 0.671498 0.840133 -0.499578
C49   C     C_3   0.314328 0.297979 0.282301 -0.257056
C50   C     C_3   0.588812 0.218421 0.116703 0.155892
C51   C     C_3   0.202984 0.321477 0.755229 -0.150457
C52   C     C_3   0.964186 0.156063 0.888492 0.146572
C53   C     C_3   0.432517 0.122207 0.621213 0.187239
C54   C     C_3   0.623873 0.077090 0.766141 -0.511855
C55   C     C_3   0.280362 0.080499 0.779840 0.313480
C56   C     C_3   0.961410 0.244537 0.798422 0.385688
C57   C     C_3   0.500656 0.502615 0.111451 -0.327789
C58   C     C_3   0.155778 0.986173 0.436745 -0.344901
C59   C     C_3   0.278875 0.727114 0.257568 -0.329796
C60   C     C_3   0.471876 0.855605 0.685441 0.157449
C61   C     C_3   0.134074 0.793857 0.635918 -0.274339
C62   C     C_3   0.534862 0.220084 0.727343 0.342870
C63   C     C_3   0.543429 0.159899 0.787804 0.356439
C64   C     C_2   0.297395 0.521213 0.297802 -0.256152
H1    H     H_    0.796464 0.760532 0.324124 0.111832
H2    H     H_    0.602666 0.762445 0.357571 0.004806
H3    H     H_    0.548348 0.876061 0.297860 0.105394
H4    H     H_    0.529876 0.380644 0.331378 -0.017978
H5    H     H_    0.547388 0.358304 0.199011 -0.068749
H6    H     H_    0.704072 0.317994 0.242175 0.041387
H7    H     H_    0.676266 0.851587 0.225101 0.141206
H8    H     H_    0.033781 0.685662 0.155460 0.091012
H9    H     H_    0.970576 0.311324 0.706649 -0.133400
H10   H     H_    0.994390 0.300467 0.845472 -0.014989
H11   H     H_    0.835638 0.240808 0.786956 -0.174851
H12   H     H_    0.282457 0.903677 0.772378 0.052060
H13   H     H_    0.647166 0.226081 0.698492 0.388008
H14   H     H_    0.049677 0.663043 0.284639 0.100639
H15   H     H_    0.623138 0.201797 0.832604 0.082407
H16   H     H_    0.976741 0.474639 0.191076 0.121824
H17   H     H_    0.205170 0.569618 0.818702 0.105364
H18   H     H_    0.758796 0.421021 0.862013 0.114411
H19   H     H_    0.321551 0.557648 0.353179 0.065011
H20   H     H_    0.869216 0.442502 0.641536 0.057075
H21   H     H_    0.864558 0.882692 0.585618 0.106365
H22   H     H_    0.974702 0.037442 0.597740 0.111102
H23   H     H_    0.818259 0.289193 0.372994 0.042408
H24   H     H_    0.352857 0.111935 0.398494 0.101703
H25   H     H_    0.374254 0.698438 0.480872 0.069965
H26   H     H_    0.800873 0.298977 0.527563 0.060018
H27   H     H_    0.893230 0.739069 0.207219 0.142474
H28   H     H_    0.070040 0.806109 0.184546 0.115773
H29   H     H_    0.063556 0.907525 0.844155 0.120822
H30   H     H_    0.987604 0.875229 0.751827 0.109664
H31   H     H_    0.988108 0.793078 0.813047 0.147324
H32   H     H_    0.242883 0.739172 0.848780 0.138148
H33   H     H_    0.427134 0.805085 0.831662 0.099914
H34   H     H_    0.779311 0.185807 0.240912 0.157732
H35   H     H_    0.296023 0.854791 0.891124 0.103751
H36   H     H_    0.051702 0.277592 0.444239 0.149406
H37   H     H_    0.949394 0.162729 0.418991 0.043739
H38   H     H_    0.114859 0.198509 0.371455 0.115074
H39   H     H_    0.784823 0.574869 0.629821 0.062163
H40   H     H_    0.729402 0.563637 0.720512 0.027750
H41   H     H_    0.583884 0.573339 0.656101 0.191914
H42   H     H_    0.808454 0.922534 0.383152 0.154264
H43   H     H_    0.904585 0.926416 0.297502 0.157231
H44   H     H_    0.757517 0.995303 0.322752 0.136169
H45   H     H_    0.718214 0.136832 0.319421 0.106488
H46   H     H_    0.663176 0.605224 0.841418 0.180279
H47   H     H_    0.860650 0.661833 0.834310 0.130106
H48   H     H_    0.727853 0.714594 0.893395 0.140981
H49   H     H_    0.266358 0.225812 0.263385 0.146608
H50   H     H_    0.265208 0.321129 0.334293 0.101012
H51   H     H_    0.283288 0.336029 0.239405 0.039324
H52   H     H_    0.719828 0.237677 0.120798 0.020593
H53   H     H_    0.533733 0.263426 0.085645 0.049779
H54   H     H_    0.559709 0.149329 0.085443 0.074286
H55   H     H_    0.267052 0.336136 0.706923 0.191963
H56   H     H_    0.902003 0.120178 0.278342 0.084504
H57   H     H_    0.198059 0.384706 0.791524 0.015665
H58   H     H_    0.260334 0.280586 0.788743 0.174579
H59   H     H_    0.843444 0.168777 0.901476 0.029912
H60   H     H_    0.054379 0.203304 0.926153 0.063748
H61   H     H_    0.972588 0.087007 0.897700 0.057245
H62   H     H_    0.547723 0.099127 0.626329 -0.116985
H63   H     H_    0.429483 0.153211 0.572321 0.113917
H64   H     H_    0.336989 0.063012 0.614215 0.073088
H65   H     H_    0.634294 0.041678 0.813464 0.141500
H66   H     H_    0.560714 0.030049 0.720196 0.100180
H67   H     H_    0.875808 0.707500 0.712410 0.045735
H68   H     H_    0.742336 0.095902 0.746600 0.133787
H69   H     H_    0.205169 0.043858 0.816212 0.047416
H70   H     H_    0.320980 0.031792 0.737931 -0.040180
H71   H     H_    0.205898 0.116891 0.750752 0.179706
H72   H     H_    0.607950 0.480952 0.132797 0.119283
H73   H     H_    0.456353 0.452929 0.061925 0.115696
H74   H     H_    0.534586 0.570339 0.096763 0.145500
H75   H     H_    0.123227 0.053165 0.435192 0.109240
H76   H     H_    0.091981 0.944121 0.388617 0.161875
H77   H     H_    0.116418 0.968545 0.489404 0.136557
H78   H     H_    0.698480 0.788620 0.795098 0.107877
H79   H     H_    0.332249 0.791677 0.242016 0.119685
H80   H     H_    0.341673 0.715708 0.307425 0.061934
H81   H     H_    0.291105 0.672852 0.212235 0.103035
H82   H     H_    0.533937 0.878989 0.740046 0.047969
H83   H     H_    0.401882 0.905378 0.670612 -0.046816
H84   H     H_    0.561791 0.858897 0.646093 0.085847
H85   H     H_    0.146519 0.746619 0.585418 0.114550
H86   H     H_    0.009338 0.790029 0.646820 0.089097
H87   H     H_    0.171361 0.863139 0.625655 0.017799
H88   H     H_    0.543845 0.693440 0.770558 0.166413
N1    N     N_R   0.193642 0.543232 0.955788 -0.246370
N2    N     N_R   0.245964 0.544166 0.024601 -0.248952
N3    N     N_R   0.011499 0.453895 0.044490 -0.257311
N4    N     N_R   0.958907 0.453088 0.975681 -0.258515
O1    O     O_2   0.865600 0.448450 0.327030 -0.486907
O2    O     O_2   0.167487 0.172688 0.546894 -0.488312
O3    O     O_3   0.058853 0.194286 0.677703 -0.592932
O4    O     O_3   0.118270 0.449980 0.414460 -0.490708
O5    O     O_3   0.581870 0.610700 0.539390 -0.485956
O6    O     O_2   0.335870 0.275730 0.458590 -0.480861
O7    O     O_3   0.516947 0.244146 0.339697 -0.650142
O8    O     O_2   0.501106 0.467913 0.756775 -0.486065
O9    O     O_3   0.514662 0.304624 0.763566 -0.619849
O10   O     O_3   0.656870 0.615610 0.375490 -0.483407
O11   O     O_2   0.764891 0.562010 0.248439 -0.507103
O12   O     O_3   0.696175 0.747033 0.657389 -0.635113
O13   O     O_3   0.998641 0.305742 0.302077 -0.646718
O14   O     O_3   0.610933 0.695351 0.251473 -0.625274
O15   O     O_2   0.853830 0.724300 0.541460 -0.473810
O16   O     O_3   0.080790 0.663040 0.412350 -0.477115
O17   O     O_2   0.006315 0.816517 0.460047 -0.488767
O18   O     O_3   0.527496 0.219008 0.186211 -0.636171
O19   O     O_3   0.994362 0.162265 0.815150 -0.657229
O20   O     O_3   0.401249 0.186613 0.678957 -0.631130
O21   O     O_3   0.400780 0.141390 0.823274 -0.627321
O22   O     O_3   0.385315 0.767085 0.681780 -0.657949
O23   O     O_3   0.091542 0.800812 0.326583 -0.616624
O24   O     O_2   0.324110 0.551580 0.673010 -0.470838
O25   O     O_3   0.071440 0.550090 0.585550 -0.499982
O26   O     O_3   0.532840 0.384460 0.624520 -0.478036
O27   O     O_3   0.151301 0.685685 0.715410 -0.676075
O28   O     O_3   0.607840 0.389380 0.460620 -0.472850
O29   O     O_3   0.108920 0.337040 0.587660 -0.483710
P1    P     P_3+3 0.033440 0.421460 0.337070 0.961583
P2    P     P_3+3 0.679060 0.710980 0.562120 0.997841
P3    P     P_3+3 0.133893 0.777474 0.414706 0.914627
P4    P     P_3+3 0.156270 0.578610 0.662940 1.001129
P5    P     P_3+3 0.044672 0.220828 0.588549 0.926797
P6    P     P_3+3 0.614944 0.592315 0.281123 0.927615
P7    P     P_3+3 0.514917 0.276546 0.435162 0.926453
P8    P     P_3+3 0.588589 0.393644 0.718993 0.861902

loop_
_geom_bond_atom_site_label_1
_geom_bond_atom_site_label_2
_ccdc_geom_bond_type
O1    P1    D    
O4    P1    S    
N3    N4    A    
C60   H83   S    
C53   H62   S    
C32   C35   A    
C17   H20   S    
O7    P7    S    
Ba2   O4    S    
O17   P3    D    
C23   C49   S    
C1    C47   S    
C56   H10   S    
C5    C6    S    
Ba1   O28   S    
C5    C9    S    
C20   C33   A    
C44   H36   S    
O12   P2    S    
Ba1   O15   S    
C24   C25   A    
O13   P1    S    
C40   H67   S    
C6    H16   S    
C4    C59   S    
C26   C27   A    
C1    H3    S    
C32   C33   A    
C27   C30   A    
C43   H32   S    
C58   H77   S    
C60   O22   S    
O6    P7    D    
C46   H41   S    
C8    C15   S    
C13   C14   A    
C36   H26   S    
C14   H18   S    
C62   O20   S    
C42   H31   S    
Ba1   Ba2   S    
Ba2   O24   S    
C59   H79   S    
C7    C64   D    
C40   O12   S    
C56   H11   S    
C58   H76   S    
Ba2   O29   S    
C4    H14   S    
C30   H24   S    
C6    C7    D    
C53   H63   S    
C10   C15   A    
C26   P7    S    
C21   C22   A    
C55   H70   S    
C25   H25   S    
C26   C36   A    
C38   H23   S    
C41   H88   S    
C40   C41   S    
C50   O18   S    
C34   H5    S    
C37   C43   S    
C13   P8    S    
C7    P1    S    
C60   H82   S    
C35   P3    S    
C16   H8    S    
C21   H21   S    
C28   C61   S    
O14   P6    S    
C64   H19   S    
O3    P5    S    
C24   P2    S    
O27   P4    S    
C47   H42   S    
C3    C5    D    
Ba1   O25   S    
C2    P6    S    
C4    C16   S    
C52   H59   S    
C46   H40   S    
Ba1   O16   S    
C11   C17   A    
C4    O23   S    
C28   O27   S    
Ba1   O1    S    
O8    P8    D    
C61   H87   S    
C12   O14   S    
C43   H33   S    
Ba2   O6    S    
C55   O21   S    
C3    C57   S    
C14   C15   A    
O11   P6    D    
C63   O21   S    
C57   H72   S    
C23   O7    S    
C44   H38   S    
C49   H49   S    
C10   H17   S    
C48   H48   S    
C39   H56   S    
C8    N1    A    
C13   C17   A    
C59   H80   S    
Ba2   O28   S    
C42   H30   S    
C58   H75   S    
C18   C36   A    
O23   P3    S    
C63   H15   S    
C46   H39   S    
C57   H73   S    
C12   H1    S    
C53   H64   S    
C61   H85   S    
C19   C29   A    
C48   H46   S    
C31   C32   A    
C39   H34   S    
C55   H71   S    
O5    P2    S    
C40   C46   S    
Ba2   P4    S    
C22   H22   S    
O2    P5    D    
O29   P5    S    
C54   H66   S    
C1    C12   S    
C43   H35   S    
C9    N2    A    
O16   P3    S    
C11   P4    S    
C50   H54   S    
C38   C39   S    
Ba1   O4    S    
C34   O18   S    
C31   C58   S    
O10   P6    S    
C51   H57   S    
C16   H28   S    
C53   O20   S    
C29   C33   A    
O24   P4    D    
C38   C44   S    
C9    N3    A    
C47   H43   S    
C52   H61   S    
Ba1   P1    S    
C16   H27   S    
C8    N4    A    
C12   H2    S    
C60   H84   S    
O9    P8    S    
O28   P7    S    
C2    C3    S    
C51   H58   S    
O25   P4    S    
Ba2   O5    S    
C18   P5    S    
C54   H68   S    
C41   C48   S    
C37   C42   S    
C62   O9    S    
O26   P8    S    
C44   H37   S    
C49   H50   S    
Ba1   O10   S    
C52   O19   S    
C45   C51   S    
C48   H47   S    
C62   C63   S    
C59   H81   S    
C45   H9    S    
C27   C29   A    
C42   H29   S    
C51   H55   S    
C30   C31   A    
C45   C56   S    
C2    C64   S    
C52   H60   S    
C57   H74   S    
C25   C35   A    
O15   P2    D    
C62   H13   S    
C28   C37   S    
Ba2   O26   S    
C56   O19   S    
Ba2   O25   S    
C1    H7    S    
C61   H86   S    
C54   H65   S    
C23   C34   S    
C20   C24   A    
C45   O3    S    
C50   H53   S    
C34   H6    S    
C18   C19   A    
Ba1   O5    S    
C39   H45   S    
C19   C22   A    
N1    N2    A    
C49   H51   S    
C28   O22   S    
C20   C21   A    
C55   H69   S    
C41   H78   S    
C23   H4    S    
C10   C11   A    
C37   H12   S    
C38   O13   S    
C54   C63   S    
C50   H52   S    
C47   H44   S    
Ba1   P2    S    
