data_mof_unit_30979.cif
_audit_creation_date              2012-12-10T17:09:57-0500
_audit_creation_method            fapswitch 2.2
_symmetry_space_group_name_H-M    P1
_symmetry_Int_Tables_number       1
_space_group_crystal_system       triclinic
_cell_length_a                    10.780567
_cell_length_b                    13.056608
_cell_length_c                    11.667802
_cell_angle_alpha                 98.975188
_cell_angle_beta                  93.708597
_cell_angle_gamma                 90.373861
_cell_volume                      1618.5964322

loop_
_atom_site_label
_atom_site_type_symbol
_atom_type_description
_atom_site_fract_x
_atom_site_fract_y
_atom_site_fract_z
_atom_type_partial_charge
C1    C     C_R   0.499316 0.299154 0.479930 0.803517
C2    C     C_R   0.458479 0.125709 0.364733 -0.249242
C3    C     C_R   0.537931 0.137140 0.567405 0.172791
C4    C     C_R   0.262466 0.496586 0.500077 0.791786
C5    C     C_R   0.535669 0.028206 0.554822 0.118347
C6    C     C_R   0.490239 0.969395 0.447746 0.137790
C7    C     C_R   0.480843 0.861875 0.436698 -0.252704
C8    C     C_R   0.563675 0.869704 0.636120 -0.197797
C9    C     C_R   0.575178 0.976441 0.647486 -0.222271
C10   C     C_R   0.368383 0.416779 0.025021 -0.346561
C11   C     C_R   0.383368 0.422179 0.146464 0.091858
C12   C     C_R   0.068896 0.416180 0.555805 0.101255
C13   C     C_R   0.558553 0.534371 0.155306 0.028483
C14   C     C_R   0.547793 0.530447 0.033056 0.067696
C15   C     C_R   0.450766 0.471456 0.967303 0.058231
C16   C     C_R   0.504349 0.700303 0.520464 0.807724
C17   C     C_R   0.439373 0.468232 0.845202 0.032415
C18   C     C_R   0.617329 0.577086 0.853374 0.093779
C19   C     C_R   0.631093 0.583999 0.975051 -0.339441
C20   C     C_R   0.737403 0.495989 0.499274 0.786679
C21   C     C_R   0.135941 0.341133 0.608577 -0.195811
C22   C     C_R   0.074342 0.268874 0.661659 -0.143710
C23   C     C_R   0.128722 0.489513 0.499777 -0.099059
C24   C     C_R   0.945307 0.268526 0.661301 -0.130399
C25   C     C_R   0.877057 0.340413 0.607796 -0.178956
C26   C     C_R   0.937648 0.415695 0.555131 0.093662
C27   C     C_3   0.486124 0.210313 0.761694 -0.656499
C28   C     C_R   0.060133 0.556836 0.439563 -0.201891
C29   C     C_R   0.932157 0.556199 0.438594 -0.208203
C30   C     C_R   0.870900 0.488347 0.498004 -0.096463
C31   C     C_R   0.515286 0.812279 0.531404 -0.046775
C32   C     C_R   0.499069 0.185857 0.471005 -0.091420
C33   C     C_R   0.453249 0.018494 0.353430 -0.219346
Cu1   Cu    Cu3+1 0.509250 0.507730 0.615930 0.942841
Cu2   Cu    Cu3+1 0.490750 0.492270 0.384070 0.935932
H1    H     H_    0.106235 0.611790 0.395118 0.151005
H2    H     H_    0.235820 0.335862 0.607396 0.134714
H3    H     H_    0.126911 0.211983 0.701813 0.129497
H4    H     H_    0.897823 0.211324 0.701225 0.124463
H5    H     H_    0.776915 0.334739 0.606293 0.160310
H6    H     H_    0.880653 0.610836 0.393705 0.144371
H7    H     H_    0.444713 0.817049 0.355052 0.150570
H8    H     H_    0.593721 0.832029 0.709341 0.153712
H9    H     H_    0.419297 0.973919 0.270984 0.144693
H10   H     H_    0.665138 0.179249 0.708840 0.230852
H11   H     H_    0.462222 0.135046 0.788243 0.207142
H12   H     H_    0.614213 0.017037 0.729826 0.144903
H13   H     H_    0.399990 0.243260 0.725994 0.223230
H14   H     H_    0.523367 0.263488 0.840068 0.227076
H15   H     H_    0.428207 0.161754 0.290370 0.169996
H16   H     H_    0.364445 0.423816 0.794002 0.117141
H17   H     H_    0.682508 0.618073 0.809475 0.125529
H18   H     H_    0.293126 0.370138 0.976750 0.140990
H19   H     H_    0.706698 0.630306 0.023148 0.137607
H20   H     H_    0.319285 0.379911 0.190137 0.126817
H21   H     H_    0.631725 0.580833 0.206982 0.119166
N1    N     N_R   0.523180 0.519350 0.790130 -0.176461
N2    N     N_R   0.476820 0.480650 0.209890 -0.181603
N3    N     N_2   0.578552 0.197764 0.676011 -0.415145
O1    O     O_R   0.506570 0.354460 0.582000 -0.556830
O2    O     O_R   0.490940 0.341410 0.386200 -0.594100
O3    O     O_R   0.327470 0.506530 0.597920 -0.588770
O4    O     O_R   0.311840 0.493480 0.402120 -0.586869
O5    O     O_R   0.509060 0.658590 0.613800 -0.586518
O6    O     O_R   0.493430 0.645540 0.418000 -0.589531
O7    O     O_R   0.688160 0.506520 0.597880 -0.593403
O8    O     O_R   0.672530 0.493470 0.402080 -0.582790

loop_
_geom_bond_atom_site_label_1
_geom_bond_atom_site_label_2
_ccdc_geom_bond_type
C27   H13   S    
Cu1   N1    S    
Cu2   O4    S    
C8    H8    S    
C5    C9    A    
C6    C7    A    
C13   N2    A    
C16   O5    A    
C11   N2    A    
C2    H15   S    
C18   N1    A    
C4    O4    A    
C6    C33   A    
Cu2   O8    S    
C13   H21   S    
Cu1   O7    S    
Cu1   O5    S    
C25   C26   A    
C18   H17   S    
C3    C32   A    
Cu2   O2    S    
C27   N3    S    
C13   C14   A    
C16   C31   S    
Cu1   O1    S    
C8    C31   A    
C12   C23   A    
C17   H16   S    
C29   C30   A    
Cu2   N2    S    
C12   C21   A    
C27   H11   S    
C20   O7    A    
C28   C29   A    
C26   C30   A    
C10   C15   A    
C25   H5    S    
C12   C26   A    
C5    C6    A    
Cu1   Cu2   S    
C22   C24   A    
C7    H7    S    
C9    H12   S    
C7    C31   A    
C10   C11   A    
Cu2   O6    S    
C22   H3    S    
C4    O3    A    
Cu1   O3    S    
C24   H4    S    
C11   H20   S    
C24   C25   A    
C28   H1    S    
C21   H2    S    
C2    C32   A    
C18   C19   A    
C1    O1    A    
C17   N1    A    
C15   C17   A    
C10   H18   S    
C3    N3    S    
C14   C15   A    
H10   N3    S    
C19   H19   S    
C20   C30   S    
C16   O6    A    
C20   O8    A    
C29   H6    S    
C4    C23   S    
C21   C22   A    
C33   H9    S    
C14   C19   A    
C1    C32   S    
C23   C28   A    
C27   H14   S    
C2    C33   A    
C8    C9    A    
C3    C5    A    
C1    O2    A    
