data_mof_unit_39042.cif
_audit_creation_date              2012-12-10T16:50:10-0500
_audit_creation_method            fapswitch 2.2
_symmetry_space_group_name_H-M    P1
_symmetry_Int_Tables_number       1
_space_group_crystal_system       triclinic
_cell_length_a                    23.243955
_cell_length_b                    8.746687
_cell_length_c                    7.468192
_cell_angle_alpha                 103.264765
_cell_angle_beta                  93.91602
_cell_angle_gamma                 93.934129
_cell_volume                      1468.81698669

loop_
_atom_site_label
_atom_site_type_symbol
_atom_type_description
_atom_site_fract_x
_atom_site_fract_y
_atom_site_fract_z
_atom_type_partial_charge
C1    C     C_R   0.492140 0.199490 0.453765 0.829830
C2    C     C_R   0.495382 0.798109 0.546237 0.796659
C3    C     C_R   0.253090 0.688841 0.401121 -0.256653
C4    C     C_R   0.767089 0.439503 0.511829 -0.208389
C5    C     C_R   0.309440 0.643888 0.399956 0.543809
C6    C     C_R   0.707276 0.414593 0.514360 0.577658
C7    C     C_R   0.328821 0.542286 0.509416 -0.253268
C8    C     C_R   0.671760 0.534350 0.495881 -0.235126
C9    C     C_R   0.288849 0.484486 0.619970 -0.090429
C10   C     C_R   0.696670 0.681957 0.476928 -0.093517
C11   C     C_R   0.232407 0.533531 0.621224 0.668701
C12   C     C_R   0.757072 0.705247 0.475769 0.684021
C13   C     C_R   0.214159 0.633046 0.510253 0.063583
C14   C     C_R   0.792027 0.584366 0.492440 0.072525
C15   C     C_2   0.476779 0.030234 0.425989 -0.051643
C16   C     C_2   0.480987 0.960672 0.571222 -0.072114
C17   C     C_R   0.390456 0.504371 0.502878 0.813227
C18   C     C_R   0.609042 0.505695 0.498243 0.895512
C19   C     C_R   0.886261 0.682637 0.649660 0.742921
C20   C     C_R   0.121157 0.601892 0.332671 0.685850
C21   C     C_R   0.878055 0.558751 0.327673 0.705351
C22   C     C_R   0.129461 0.734792 0.651746 0.743129
C23   C     C_R   0.938493 0.577364 0.322248 -0.173242
C24   C     C_R   0.068861 0.733137 0.652230 -0.172040
C25   C     C_R   0.973129 0.649407 0.486851 -0.157482
C26   C     C_R   0.034181 0.662595 0.487371 -0.157171
C27   C     C_R   0.946884 0.705282 0.651790 -0.176911
C28   C     C_R   0.060469 0.601660 0.324054 -0.168549
C29   C     C_R   0.965208 0.524244 0.158147 0.615223
C30   C     C_R   0.042053 0.794203 0.814075 0.615713
C31   C     C_R   0.025370 0.535890 0.159109 0.597831
C32   C     C_R   0.981906 0.779928 0.814016 0.595674
Cu1   Cu    Cu3+1 0.506340 0.517380 0.684380 1.096425
Cu2   Cu    Cu3+1 0.493660 0.482620 0.315620 1.103143
H1    H     H_    0.239294 0.765258 0.314011 0.224603
H2    H     H_    0.794255 0.346301 0.525233 0.228314
N1    N     N_R   0.853586 0.609150 0.489929 -0.458779
N2    N     N_R   0.154060 0.663320 0.496074 -0.461448
N3    N     N_2   0.484110 0.456420 0.038520 0.224548
N4    N     N_2   0.515890 0.543580 0.961480 0.235859
O1    O     O_R   0.504120 0.286130 0.619770 -0.573911
O2    O     O_R   0.495880 0.713870 0.380230 -0.577398
O3    O     O_R   0.493410 0.256770 0.308360 -0.590728
O4    O     O_R   0.506590 0.743230 0.691640 -0.600418
O5    O     O_R   0.423230 0.514630 0.655730 -0.556312
O6    O     O_R   0.576770 0.485370 0.344270 -0.538862
O7    O     O_R   0.412530 0.485280 0.344320 -0.513660
O8    O     O_R   0.587470 0.514720 0.655680 -0.538361
O9    O     O_2   0.859977 0.731968 0.805719 -0.389556
O10   O     O_2   0.147038 0.535713 0.180957 -0.389341
O11   O     O_2   0.843813 0.490033 0.172914 -0.409178
O12   O     O_2   0.163742 0.803445 0.806451 -0.423229
F1    F     F_    0.933507 0.458082 0.995811 -0.564194
F2    F     F_    0.073721 0.864215 0.975286 -0.566683
F3    F     F_    0.048832 0.479958 0.997718 -0.559183
F4    F     F_    0.958422 0.838018 0.974767 -0.567859
F5    F     F_    0.345092 0.699927 0.289409 -0.670461
F6    F     F_    0.683890 0.273176 0.533235 -0.651558
C33   C     C_3   0.301973 0.362693 0.727228 -0.293537
C34   C     C_3   0.270441 0.201735 0.632918 -0.757238
H3    H     H_    0.223035 0.208525 0.613409 0.315467
H4    H     H_    0.286735 0.156888 0.495905 0.229945
H5    H     H_    0.277804 0.116341 0.719581 0.247373
H6    H     H_    0.348420 0.350362 0.741129 0.250750
H7    H     H_    0.288743 0.401027 0.869831 0.272534
C35   C     C_3   0.660207 0.817091 0.464452 -0.317466
C36   C     C_3   0.649970 0.912157 0.656296 -0.688955
H8    H     H_    0.627591 0.835936 0.734775 0.245297
H9    H     H_    0.691852 0.964693 0.733880 0.300830
H10   H     H_    0.622491 0.008727 0.643388 0.251986
H11   H     H_    0.681806 0.897206 0.388755 0.283920
H12   H     H_    0.618020 0.773422 0.384574 0.231074
F7    F     F_    0.193801 0.478455 0.725350 -0.598243
F8    F     F_    0.782320 0.845816 0.460077 -0.610047
C37   C     C_3   0.448510 0.945701 0.234631 -0.326332
C38   C     C_3   0.391325 0.012303 0.190281 -0.771490
H13   H     H_    0.361651 0.006818 0.299328 0.267322
H14   H     H_    0.397802 0.135967 0.178105 0.259352
H15   H     H_    0.369903 0.939975 0.057484 0.261317
H16   H     H_    0.479804 0.957109 0.132649 0.197502
H17   H     H_    0.436007 0.819357 0.215400 0.298628
C39   C     C_3   0.458391 0.034218 0.754971 -0.346701
C40   C     C_3   0.394877 0.061337 0.725346 -0.756383
H18   H     H_    0.389262 0.134187 0.623472 0.251172
H19   H     H_    0.368590 0.946754 0.672467 0.238373
H20   H     H_    0.378953 0.122377 0.856974 0.269363
H21   H     H_    0.459654 0.953223 0.847811 0.208769
H22   H     H_    0.484862 0.141709 0.832236 0.261497
F9    F     F_    0.434675 0.393339 0.941548 -0.600819
F10   F     F_    0.563590 0.616411 0.063434 -0.567714

loop_
_geom_bond_atom_site_label_1
_geom_bond_atom_site_label_2
_ccdc_geom_bond_type
C15   C37   S    
C4    H2    S    
C12   F8    S    
Cu1   O5    S    
C6    F6    S    
Cu2   O2    S    
C38   H15   S    
C30   F2    S    
C33   H6    S    
C34   H5    S    
C23   C29   A    
C24   C26   A    
C39   H21   S    
C22   N2    A    
C34   H4    S    
C20   O10   S    
C19   N1    A    
C1    O3    A    
C35   H12   S    
C40   H18   S    
C2    O4    A    
C7    C17   S    
C1    C15   S    
C19   C27   A    
C37   H16   S    
C3    C13   A    
C35   C36   S    
C33   C34   S    
N4    F10   S    
C18   O6    A    
C10   C35   S    
C17   O5    A    
Cu1   N4    S    
C36   H8    S    
C38   H13   S    
C4    C6    A    
C11   F7    S    
N3    N4    D    
C5    C7    A    
C37   H17   S    
C6    C8    A    
C20   C28   A    
C25   C26   A    
C8    C18   S    
Cu2   N3    S    
C34   H3    S    
C36   H9    S    
C37   C38   S    
C20   N2    A    
C19   O9    S    
C35   H11   S    
C3    H1    S    
C16   C39   S    
Cu1   Cu2   S    
C9    C11   A    
C13   N2    S    
C10   C12   A    
Cu2   O6    S    
C1    O1    A    
C40   H19   S    
C12   C14   A    
C21   C23   A    
C22   C24   A    
C21   O11   S    
C2    C16   S    
C22   O12   S    
C7    C9    A    
C27   C32   A    
Cu1   O4    S    
C28   C31   A    
Cu2   O3    S    
C17   O7    A    
C38   H14   S    
C3    C5    A    
C18   O8    A    
C25   C27   A    
C26   C28   A    
C5    F5    S    
C36   H10   S    
Cu1   O1    S    
C29   C31   A    
C33   H7    S    
C14   N1    S    
C30   C32   A    
C11   C13   A    
C29   F1    S    
C2    O2    A    
C39   H22   S    
N3    F9    S    
C23   C25   A    
C4    C14   A    
C24   C30   A    
C40   H20   S    
C21   N1    A    
C8    C10   A    
C39   C40   S    
Cu1   O8    S    
Cu2   O7    S    
C31   F3    S    
C9    C33   S    
C32   F4    S    
C15   C16   D    
