data_mof_unit_43540.cif
_audit_creation_date              2012-12-10T17:27:52-0500
_audit_creation_method            fapswitch 2.2
_symmetry_space_group_name_H-M    P1
_symmetry_Int_Tables_number       1
_space_group_crystal_system       triclinic
_cell_length_a                    10.644465
_cell_length_b                    11.993059
_cell_length_c                    12.868854
_cell_angle_alpha                 93.32327
_cell_angle_beta                  91.662394
_cell_angle_gamma                 84.676827
_cell_volume                      1632.5365593

loop_
_atom_site_label
_atom_site_type_symbol
_atom_type_description
_atom_site_fract_x
_atom_site_fract_y
_atom_site_fract_z
_atom_type_partial_charge
C1    C     C_R   0.498760 0.521929 0.700600 0.877249
C2    C     C_R   0.929492 0.465945 0.400856 0.075808
C3    C     C_R   0.872061 0.492977 0.497073 -0.061830
C4    C     C_R   0.939669 0.523331 0.586490 -0.220342
C5    C     C_R   0.067862 0.525673 0.581660 -0.188468
C6    C     C_R   0.126154 0.506482 0.485917 -0.079990
C7    C     C_R   0.516007 0.463513 0.188785 -0.036055
C8    C     C_R   0.503533 0.534543 0.812153 -0.053945
C9    C     C_R   0.535696 0.645425 0.970823 -0.205406
C10   C     C_R   0.524068 0.637785 0.863250 -0.205769
C11   C     C_R   0.493513 0.439406 0.867799 -0.279181
C12   C     C_R   0.739813 0.498762 0.503659 0.853749
C13   C     C_R   0.505060 0.446153 0.974488 0.183327
C14   C     C_R   0.526073 0.549979 0.026469 0.185271
C15   C     C_R   0.533670 0.557323 0.133476 -0.232735
C16   C     C_R   0.499478 0.359573 0.137462 -0.199334
C17   C     C_R   0.494388 0.350827 0.029895 -0.222547
C18   C     C_R   0.384439 0.957071 0.399002 -0.328146
C19   C     C_R   0.395322 0.840506 0.409128 0.039346
C20   C     C_R   0.549702 0.856907 0.544210 -0.044698
C21   C     C_R   0.541999 0.974714 0.536864 0.092675
C22   C     C_R   0.458150 0.025304 0.463145 0.087335
C23   C     C_R   0.507809 0.477726 0.299845 0.917326
C24   C     C_R   0.450388 0.143068 0.455770 -0.042528
C25   C     C_R   0.604747 0.159623 0.590913 0.026203
C26   C     C_R   0.615705 0.043009 0.601028 -0.325867
C27   C     C_R   0.260125 0.500598 0.490052 0.926689
C28   C     C_R   0.861917 0.425051 0.312641 -0.183223
C29   C     C_R   0.918004 0.410382 0.216015 -0.195864
C30   C     C_R   0.037477 0.444939 0.204352 -0.134147
C31   C     C_R   0.104414 0.487624 0.290540 0.213221
C32   C     C_R   0.056493 0.485572 0.392190 0.027216
H1    H     H_    0.893302 0.542991 0.660101 0.137801
H2    H     H_    0.479105 0.270791 0.990282 0.140965
H3    H     H_    0.532840 0.711593 0.820254 0.159375
H4    H     H_    0.476748 0.359543 0.828294 0.162834
H5    H     H_    0.386311 0.183238 0.399499 0.127296
H6    H     H_    0.661651 0.211907 0.640593 0.132238
H7    H     H_    0.318994 0.993390 0.341517 0.154489
H8    H     H_    0.681149 0.006706 0.658518 0.145980
H9    H     H_    0.338363 0.788491 0.359470 0.180628
H10   H     H_    0.613782 0.816723 0.600464 0.123611
H11   H     H_    0.765879 0.404114 0.317551 0.146796
H12   H     H_    0.865351 0.379519 0.148809 0.157157
H13   H     H_    0.074300 0.445887 0.126868 0.168666
H14   H     H_    0.121894 0.543433 0.652498 0.143615
H15   H     H_    0.548824 0.637241 0.173580 0.164948
H16   H     H_    0.486641 0.286402 0.180181 0.162326
H17   H     H_    0.551586 0.725374 0.010325 0.142742
N1    N     N_R   0.523130 0.207800 0.519340 -0.101557
N2    N     N_R   0.476870 0.792180 0.480660 -0.104495
O1    O     O_R   0.506170 0.421690 0.658830 -0.628645
O2    O     O_R   0.491330 0.609320 0.646410 -0.629359
O3    O     O_R   0.690660 0.406170 0.506210 -0.628421
O4    O     O_R   0.675810 0.593790 0.493790 -0.615349
O5    O     O_R   0.508670 0.390680 0.353590 -0.640515
O6    O     O_R   0.493830 0.578310 0.341170 -0.596761
O7    O     O_R   0.324190 0.406210 0.506210 -0.619255
O8    O     O_R   0.309340 0.593830 0.493790 -0.587690
Zn1   Zn    Zn3+2 0.509910 0.374720 0.508290 0.943923
Zn2   Zn    Zn3+2 0.490090 0.625280 0.491710 0.968595
Br1   Br    Br    0.224667 0.587178 0.257491 -0.577275

loop_
_geom_bond_atom_site_label_1
_geom_bond_atom_site_label_2
_ccdc_geom_bond_type
C20   H10   S    
C9    C14   A    
O6    Zn2   S    
C29   C30   A    
C25   N1    A    
C13   C17   A    
C25   H6    S    
C1    C8    S    
O1    Zn1   S    
C9    C10   A    
C28   H11   S    
C6    C32   A    
C31   C32   A    
N2    Zn2   S    
C15   H15   S    
C18   H7    S    
N1    Zn1   S    
C16   H16   S    
C7    C15   A    
C24   H5    S    
C9    H17   S    
C23   O5    A    
C14   C15   A    
O3    Zn1   S    
C21   C22   A    
C11   C13   A    
C31   Br1   S    
C26   H8    S    
C30   C31   A    
C8    C11   A    
C7    C23   S    
O4    Zn2   S    
C2    C32   A    
C28   C29   A    
C21   C26   A    
C2    C3    A    
C20   N2    A    
C29   H12   S    
C24   N1    A    
C5    C6    A    
C1    O1    A    
C22   C24   A    
O8    Zn2   S    
C12   O4    A    
C16   C17   A    
C17   H2    S    
C19   H9    S    
C27   O8    A    
O7    Zn1   S    
C3    C4    A    
C10   H3    S    
C19   N2    A    
O5    Zn1   S    
C20   C21   A    
C8    C10   A    
C18   C19   A    
C5    H14   S    
C23   O6    A    
C1    O2    A    
C4    H1    S    
C7    C16   A    
C2    C28   A    
C3    C12   S    
C30   H13   S    
C13   C14   A    
C25   C26   A    
C18   C22   A    
O2    Zn2   S    
C12   O3    A    
C6    C27   S    
C4    C5    A    
C27   O7    A    
C11   H4    S    
