data_mof_unit_48608.cif
_audit_creation_date              2012-12-10T17:52:38-0500
_audit_creation_method            fapswitch 2.2
_symmetry_space_group_name_H-M    P1
_symmetry_Int_Tables_number       1
_space_group_crystal_system       triclinic
_cell_length_a                    14.69149
_cell_length_b                    14.745526
_cell_length_c                    23.528465
_cell_angle_alpha                 76.570432
_cell_angle_beta                  102.929255
_cell_angle_gamma                 114.536413
_cell_volume                      4463.07458905

loop_
_atom_site_label
_atom_site_type_symbol
_atom_type_description
_atom_site_fract_x
_atom_site_fract_y
_atom_site_fract_z
_atom_type_partial_charge
C1    C     C_R   0.880296 0.312494 0.508142 0.781106
C2    C     C_R   0.119704 0.687506 0.491857 0.781096
C3    C     C_R   0.936923 0.537956 0.747319 0.525130
C4    C     C_R   0.063099 0.462078 0.252679 0.525166
C5    C     C_R   0.935875 0.537828 0.687898 0.544814
C6    C     C_R   0.064146 0.462203 0.312099 0.544818
C7    C     C_R   0.999769 0.501499 0.671534 -0.355201
C8    C     C_R   0.000233 0.498506 0.328465 -0.355211
C9    C     C_R   0.064311 0.465837 0.715770 -0.388380
C10   C     C_R   0.935669 0.534141 0.284231 -0.388393
C11   C     C_R   0.065079 0.466077 0.775074 0.625841
C12   C     C_R   0.934897 0.533897 0.224926 0.625838
C13   C     C_R   0.001268 0.501946 0.790999 0.010418
C14   C     C_R   0.998730 0.498057 0.209000 0.010380
C15   C     C_R   0.811973 0.205341 0.516452 -0.127413
C16   C     C_R   0.188025 0.794658 0.483540 -0.127412
C17   C     C_R   0.772935 0.050061 0.586815 0.038479
C18   C     C_R   0.227066 0.949916 0.413160 0.038449
C19   C     C_R   0.843623 0.139478 0.561437 -0.202402
C20   C     C_R   0.156377 0.860508 0.438544 -0.202405
C21   C     C_R   0.710663 0.172448 0.487176 -0.003458
C22   C     C_R   0.289334 0.827558 0.512817 -0.003468
C23   C     C_R   0.999928 0.500499 0.609011 0.908813
C24   C     C_R   0.000073 0.499503 0.390989 0.908801
C25   C     C_R   0.639916 0.076254 0.509017 0.074008
C26   C     C_R   0.360082 0.923749 0.490972 0.073999
C27   C     C_R   0.669513 0.025667 0.564532 -0.010132
C28   C     C_R   0.330486 0.974326 0.435451 -0.010117
C29   C     C_R   0.537189 0.034427 0.482232 -0.144917
C30   C     C_R   0.462809 0.965580 0.517757 -0.144918
C31   C     C_R   0.493913 0.942968 0.578714 0.632869
C32   C     C_R   0.506089 0.057040 0.421275 0.632863
C33   C     C_R   0.595120 0.962356 0.599974 -0.272880
C34   C     C_R   0.404881 0.037643 0.400012 -0.272855
C35   C     C_R   0.706179 0.654192 0.394800 -0.325422
C36   C     C_R   0.293824 0.345811 0.605201 -0.325428
C37   C     C_R   0.792229 0.632128 0.413737 0.795268
C38   C     C_R   0.207772 0.367871 0.586263 0.795260
C39   C     C_R   0.717503 0.512843 0.493768 0.045612
C40   C     C_R   0.282498 0.487160 0.506233 0.045618
C41   C     C_R   0.629558 0.536183 0.478885 -0.011526
C42   C     C_R   0.370445 0.463823 0.521117 -0.011527
C43   C     C_R   0.624003 0.604952 0.426365 -0.055553
C44   C     C_R   0.376000 0.395055 0.573637 -0.055545
C45   C     C_R   0.076286 0.571233 0.120159 0.690186
C46   C     C_R   0.923711 0.428771 0.879839 0.690194
C47   C     C_R   0.545735 0.490988 0.511882 -0.121654
C48   C     C_R   0.454269 0.509020 0.488120 -0.121654
C49   C     C_R   0.450197 0.570452 0.432087 0.599471
C50   C     C_R   0.549809 0.429559 0.567916 0.599452
C51   C     C_R   0.535010 0.620685 0.403785 -0.196228
C52   C     C_R   0.464995 0.379325 0.596218 -0.196228
C53   C     C_R   0.921233 0.426369 0.119171 0.681621
C54   C     C_R   0.078764 0.573635 0.880828 0.681605
C55   C     C_R   0.919712 0.425135 0.059329 -0.157877
C56   C     C_R   0.080284 0.574869 0.940669 -0.157865
C57   C     C_R   0.999501 0.499550 0.030020 -0.082862
C58   C     C_R   0.000495 0.500454 0.969979 -0.082858
C59   C     C_R   0.078392 0.573135 0.060622 -0.106319
C60   C     C_R   0.921604 0.426869 0.939376 -0.106319
C61   C     C_R   0.841341 0.352014 0.028050 0.665490
C62   C     C_R   0.158655 0.647990 0.971949 0.665488
C63   C     C_R   0.842625 0.353194 0.968804 -0.197713
C64   C     C_R   0.157371 0.646810 0.031194 -0.197713
Cu1   Cu    Cu3+1 0.081740 0.475680 0.515360 1.033005
Cu2   Cu    Cu3+1 0.918260 0.524320 0.484640 1.033006
H1    H     H_    0.529235 0.669081 0.361835 0.192964
H2    H     H_    0.470771 0.330929 0.638168 0.192962
H3    H     H_    0.275471 0.546487 0.471516 0.230785
H4    H     H_    0.724529 0.453516 0.528486 0.230779
H5    H     H_    0.703164 0.708242 0.355089 0.184885
H6    H     H_    0.296839 0.291761 0.644911 0.184880
H7    H     H_    0.781262 0.295959 0.946057 0.220569
H8    H     H_    0.218734 0.704045 0.053941 0.220569
H9    H     H_    0.113927 0.437155 0.704584 0.247166
H10   H     H_    0.886038 0.562803 0.295418 0.247152
H11   H     H_    0.615504 0.935885 0.646061 0.195525
H12   H     H_    0.384503 0.064111 0.353924 0.195522
H13   H     H_    0.077493 0.837609 0.419175 0.197973
H14   H     H_    0.922510 0.162366 0.580797 0.197943
N1    N     N_R   0.998643 0.498640 0.147997 -0.423356
N2    N     N_R   0.001354 0.501363 0.852002 -0.423349
N3    N     N_R   0.795430 0.560810 0.461550 -0.254203
N4    N     N_R   0.204570 0.439190 0.538450 -0.254202
O1    O     O_R   0.977900 0.338110 0.520250 -0.535491
O2    O     O_R   0.022100 0.661890 0.479750 -0.535489
O3    O     O_R   0.839850 0.379180 0.494310 -0.606342
O4    O     O_R   0.160150 0.620820 0.505690 -0.606340
O5    O     O_R   0.069020 0.479430 0.595090 -0.559086
O6    O     O_R   0.930980 0.520570 0.404910 -0.559087
O7    O     O_R   0.930970 0.520500 0.569150 -0.523110
O8    O     O_R   0.069030 0.479500 0.430850 -0.523113
O9    O     O_2   0.150974 0.641513 0.150058 -0.492258
O10   O     O_2   0.849022 0.358491 0.849940 -0.492257
O11   O     O_2   0.846592 0.355958 0.148597 -0.425721
O12   O     O_2   0.153406 0.644044 0.851401 -0.425748
F1    F     F_    0.763022 0.278989 0.054245 -0.581639
F2    F     F_    0.236974 0.721015 0.945753 -0.581641
C65   C     C_R   0.808288 0.984560 0.637074 0.085333
C66   C     C_R   0.773509 0.880254 0.636514 -0.158083
C67   C     C_R   0.807639 0.818466 0.683161 -0.072771
C68   C     C_R   0.876807 0.860110 0.730674 -0.066342
C69   C     C_R   0.911943 0.963628 0.731631 -0.107011
C70   C     C_R   0.878076 0.025775 0.685061 -0.119559
H15   H     H_    0.720505 0.846932 0.599764 0.146776
H16   H     H_    0.780670 0.738317 0.682381 0.202032
H17   H     H_    0.903229 0.812177 0.766724 0.179996
H18   H     H_    0.965458 0.995760 0.768501 0.166468
H19   H     H_    0.905618 0.105722 0.686710 0.160526
C71   C     C_R   0.191713 0.015373 0.362875 0.085291
C72   C     C_R   0.122012 0.974119 0.314873 -0.119542
C73   C     C_R   0.088165 0.036229 0.268267 -0.106938
C74   C     C_R   0.123231 0.139745 0.269204 -0.066417
C75   C     C_R   0.192309 0.181427 0.316735 -0.072835
C76   C     C_R   0.226421 0.119678 0.363417 -0.158021
H20   H     H_    0.094528 0.894172 0.313240 0.160510
H21   H     H_    0.034721 0.004067 0.231384 0.166460
H22   H     H_    0.096827 0.187650 0.233125 0.179887
H23   H     H_    0.219225 0.261575 0.317499 0.202031
H24   H     H_    0.279361 0.153026 0.400178 0.146800
F3    F     F_    0.428010 0.907137 0.618394 -0.652728
F4    F     F_    0.571996 0.092877 0.381597 -0.652731
F5    F     F_    0.128393 0.320126 0.616954 -0.668296
F6    F     F_    0.871607 0.679871 0.383045 -0.668288
F7    F     F_    0.363764 0.578905 0.401188 -0.646625
F8    F     F_    0.636243 0.421110 0.598815 -0.646643
F9    F     F_    0.875644 0.573649 0.762583 -0.611917
F10   F     F_    0.124402 0.426416 0.237413 -0.611852
F11   F     F_    0.873070 0.574083 0.646752 -0.586616
F12   F     F_    0.126970 0.425970 0.353245 -0.586569
F13   F     F_    0.127316 0.430669 0.817180 -0.604992
F14   F     F_    0.872635 0.569275 0.182823 -0.604991
C77   C     C_R   0.323377 0.754553 0.558614 0.178237
C78   C     C_R   0.399556 0.726827 0.549946 -0.170680
C79   C     C_R   0.431938 0.659399 0.593099 -0.156037
C80   C     C_R   0.386555 0.616567 0.644303 -0.092830
C81   C     C_R   0.309431 0.641949 0.652811 -0.082712
C82   C     C_R   0.277820 0.710625 0.610269 -0.002759
H25   H     H_    0.434309 0.758104 0.510034 0.139816
H26   H     H_    0.491594 0.639563 0.586561 0.151006
H27   H     H_    0.411014 0.563503 0.677327 0.157658
H28   H     H_    0.274437 0.608747 0.692522 0.155765
H29   H     H_    0.218304 0.730029 0.617539 0.115570
C83   C     C_R   0.676618 0.245457 0.441385 0.178222
C84   C     C_R   0.722171 0.289392 0.389728 -0.002739
C85   C     C_R   0.690553 0.358067 0.347189 -0.082721
C86   C     C_R   0.613428 0.383442 0.355702 -0.092850
C87   C     C_R   0.568050 0.340604 0.406908 -0.156022
C88   C     C_R   0.600438 0.273176 0.450057 -0.170686
H30   H     H_    0.781687 0.269993 0.382455 0.115575
H31   H     H_    0.725541 0.391273 0.307476 0.155774
H32   H     H_    0.588963 0.436505 0.322681 0.157666
H33   H     H_    0.508392 0.360435 0.413449 0.151024
H34   H     H_    0.565687 0.241893 0.489970 0.139826

loop_
_geom_bond_atom_site_label_1
_geom_bond_atom_site_label_2
_ccdc_geom_bond_type
C1    O3    A    
Cu1   O8    S    
C81   H28   S    
C67   C68   A    
C53   O11   S    
C40   N4    A    
C72   C73   A    
C54   N2    A    
C6    F12   S    
C45   O9    S    
C45   N1    A    
C84   C85   A    
C79   C80   A    
C39   C41   A    
C27   C33   A    
C15   C19   A    
C66   H15   S    
C83   C88   A    
C24   O6    A    
C60   C63   A    
C35   C37   A    
C74   C75   A    
C29   C32   A    
C82   H29   S    
C30   C31   A    
C3    F9    S    
C57   C59   A    
C58   C60   A    
C18   C20   A    
C53   N1    A    
C61   C63   A    
C71   C72   A    
C62   C64   A    
C17   C19   A    
Cu2   N3    S    
C62   F2    S    
C10   H10   S    
C39   H4    S    
C86   C87   A    
C49   C51   A    
C50   C52   A    
C23   O5    A    
C2    O4    A    
C72   H20   S    
C1    C15   S    
C2    C16   S    
C54   O12   S    
C38   F5    S    
C3    C13   A    
C46   C60   A    
C44   C52   A    
C5    F11   S    
C65   C70   A    
C35   H5    S    
C77   C82   A    
C46   N2    A    
C1    O1    A    
C41   C43   A    
C19   H14   S    
C42   C44   A    
C24   O8    A    
C73   C74   A    
C75   C76   A    
C47   C50   A    
C53   C55   A    
C25   C29   A    
C79   H26   S    
C54   C56   A    
C40   H3    S    
C4    F10   S    
C22   C77   S    
C17   C27   A    
C47   C48   A    
C32   F4    S    
C18   C28   A    
C87   C88   A    
C31   F3    S    
C4    C6    A    
Cu2   O3    S    
C5    C7    A    
C83   C84   A    
Cu1   N4    S    
C6    C8    A    
C63   H7    S    
C13   N2    S    
C85   H31   S    
C11   F13   S    
C32   C34   A    
C42   C48   A    
Cu1   O5    S    
C88   H34   S    
C29   C30   A    
C37   F6    S    
C9    C11   A    
C65   C66   A    
C46   O10   S    
C16   C20   A    
C31   C33   A    
C41   C47   A    
C68   H17   S    
C51   H1    S    
C17   C65   S    
C78   C79   A    
C10   C12   A    
C50   F8    S    
C8    C10   A    
C48   C49   A    
Cu2   O6    S    
C12   C14   A    
C76   H24   S    
C55   C57   A    
C77   C78   A    
C56   C62   A    
C36   C44   A    
C87   H33   S    
C78   H25   S    
C35   C43   A    
Cu1   O4    S    
C85   C86   A    
C67   H16   S    
C7    C9    A    
C21   C25   A    
C45   C59   A    
C16   C22   A    
C12   F14   S    
C20   H13   S    
C38   N4    A    
C61   F1    S    
C84   H30   S    
C21   C83   S    
C80   C81   A    
C3    C5    A    
C52   H2    S    
Cu2   O2    S    
Cu1   O1    S    
Cu2   O7    S    
C25   C27   A    
C49   F7    S    
C81   C82   A    
C26   C28   A    
C33   H11   S    
C36   C38   A    
C86   H32   S    
C39   N3    A    
C34   H12   S    
C11   C13   A    
C43   C51   A    
C57   C58   A    
C73   H21   S    
C75   H23   S    
C7    C23   S    
C55   C61   A    
C40   C42   A    
C66   C67   A    
C8    C24   S    
C80   H27   S    
C56   C58   A    
C2    O2    A    
C23   O7    A    
C4    C14   A    
C68   C69   A    
C28   C34   A    
C74   H22   S    
C59   C64   A    
C15   C21   A    
C18   C71   S    
Cu1   Cu2   S    
C22   C26   A    
C69   C70   A    
C64   H8    S    
C70   H19   S    
C37   N3    A    
C69   H18   S    
C9    H9    S    
C14   N1    S    
C71   C76   A    
C36   H6    S    
C26   C30   A    
