data_mof_unit_36104.cif
_audit_creation_date              2012-12-10T17:35:04-0500
_audit_creation_method            fapswitch 2.2
_symmetry_space_group_name_H-M    P1
_symmetry_Int_Tables_number       1
_space_group_crystal_system       triclinic
_cell_length_a                    12.359759
_cell_length_b                    13.220783
_cell_length_c                    13.87512
_cell_angle_alpha                 105.479536
_cell_angle_beta                  73.742599
_cell_angle_gamma                 116.642226
_cell_volume                      1918.92904216

loop_
_atom_site_label
_atom_site_type_symbol
_atom_type_description
_atom_site_fract_x
_atom_site_fract_y
_atom_site_fract_z
_atom_type_partial_charge
C1    C     C_R   0.144445 0.713468 0.508448 0.769443
C2    C     C_1   0.975271 0.507323 0.791800 -0.169664
C3    C     C_R   0.737306 0.972700 0.375387 -0.167868
C4    C     C_R   0.774794 0.164550 0.467607 -0.045781
C5    C     C_R   0.177643 0.916454 0.571196 -0.182215
C6    C     C_R   0.254212 0.031727 0.590617 -0.133928
C7    C     C_R   0.380789 0.068427 0.557269 -0.162753
C8    C     C_R   0.433684 0.990139 0.499592 0.090948
C9    C     C_R   0.353617 0.874745 0.470003 0.083181
C10   C     C_R   0.563240 0.022647 0.469437 0.085988
C11   C     C_R   0.609911 0.942476 0.404401 0.168376
C12   C     C_R   0.984266 0.504404 0.686420 0.815843
C13   C     C_R   0.529165 0.834067 0.366655 -0.224208
C14   C     C_R   0.403094 0.801596 0.396959 -0.187516
C15   C     C_R   0.648235 0.132398 0.502281 -0.224709
C16   C     C_R   0.819482 0.083383 0.406668 -0.187059
C17   C     C_R   0.226042 0.836381 0.513395 -0.102661
C18   C     C_R   0.642000 0.676589 0.662848 -0.250940
C19   C     C_R   0.257631 0.352414 0.361340 0.053893
C20   C     C_R   0.352993 0.314198 0.340651 0.374719
C21   C     C_R   0.447549 0.371205 0.395102 -0.219542
C22   C     C_R   0.449736 0.464970 0.472335 -0.091322
C23   C     C_R   0.856118 0.286333 0.486088 0.793089
C24   C     C_R   0.346102 0.494709 0.497930 0.256296
C25   C     C_R   0.550512 0.527914 0.526102 -0.029081
C26   C     C_R   0.546068 0.619686 0.606428 0.141445
C27   C     C_R   0.444250 0.649736 0.630262 -0.069169
C28   C     C_R   0.345782 0.585068 0.578788 -0.236011
C29   C     C_R   0.657089 0.503602 0.502630 0.030604
C30   C     C_R   0.742410 0.647185 0.636803 0.055572
C31   C     C_R   0.015885 0.495774 0.313585 0.805668
C32   C     C_1   0.025435 0.493370 0.208215 -0.139481
C33   C     C_2   0.041104 0.489511 0.014072 -0.154067
C34   C     C_2   0.960535 0.512002 0.985940 -0.156003
C35   C     C_1   0.968010 0.509675 0.880451 0.017749
C36   C     C_1   0.033242 0.491441 0.119554 0.033478
Cu1   Cu    Cu3+1 0.899780 0.525060 0.522890 0.945104
Cu2   Cu    Cu3+1 0.100220 0.474940 0.477110 0.929880
H1    H     H_    0.888475 0.532048 0.041902 0.163284
H2    H     H_    0.345610 0.719319 0.359918 0.182687
H3    H     H_    0.815902 0.691693 0.680142 0.130057
H4    H     H_    0.640036 0.742065 0.728478 0.191134
H5    H     H_    0.670522 0.438621 0.440892 0.126468
H6    H     H_    0.517664 0.338192 0.375079 0.167327
H7    H     H_    0.270924 0.610637 0.603364 0.197425
H8    H     H_    0.113149 0.469423 0.958124 0.164532
H9    H     H_    0.917270 0.106332 0.380027 0.135985
H10   H     H_    0.563580 0.774084 0.312886 0.151871
H11   H     H_    0.773292 0.911572 0.326185 0.137274
H12   H     H_    0.618686 0.195713 0.554140 0.149570
H13   H     H_    0.080400 0.889663 0.603716 0.157602
H14   H     H_    0.433930 0.159038 0.576391 0.128551
H15   H     H_    0.215565 0.092787 0.634689 0.148027
N1    N     N_R   0.748810 0.563010 0.557590 -0.181383
N2    N     N_R   0.250540 0.437620 0.443020 -0.245254
O1    O     O_R   0.025040 0.682470 0.528790 -0.578757
O2    O     O_R   0.194310 0.640150 0.490130 -0.602760
O3    O     O_R   0.903380 0.524130 0.659910 -0.570413
O4    O     O_R   0.072660 0.481800 0.621240 -0.589582
O5    O     O_R   0.805690 0.359850 0.509870 -0.583877
O6    O     O_R   0.974960 0.317530 0.471210 -0.609331
O7    O     O_R   0.927340 0.518200 0.378760 -0.575281
O8    O     O_R   0.096620 0.475870 0.340090 -0.577536
C37   C     C_2   0.435962 0.750321 0.706570 0.353613
H16   H     H_    0.346798 0.746084 0.750859 0.067769
O9    O     O_2   0.525914 0.840900 0.715693 -0.533128
C38   C     C_2   0.173772 0.305722 0.287540 0.383301
H17   H     H_    0.075316 0.271013 0.310872 0.092560
O10   O     O_2   0.215985 0.305188 0.196679 -0.533330
O11   O     O_3   0.358085 0.221612 0.267016 -0.697964
H18   H     H_    0.274247 0.170141 0.253565 0.332260

loop_
_geom_bond_atom_site_label_1
_geom_bond_atom_site_label_2
_ccdc_geom_bond_type
C2    C35   T    
C4    C16   A    
C13   H10   S    
C9    C14   A    
C30   H3    S    
C19   C38   S    
C6    C7    A    
C18   C30   A    
C1    O2    A    
C21   H6    S    
C11   C13   A    
C34   H1    S    
C1    C17   S    
Cu1   O3    S    
C18   C26   A    
Cu2   O6    S    
C12   O3    A    
C37   H16   S    
C4    C15   A    
C33   C34   D    
C3    H11   S    
C2    C12   S    
C7    C8    A    
C21   C22   A    
C29   H5    S    
C24   N2    A    
C33   H8    S    
C30   N1    A    
C31   O7    A    
C20   O11   S    
C26   C27   A    
O11   H18   S    
C38   H17   S    
C5    C6    A    
Cu1   N1    S    
C32   C36   T    
C16   H9    S    
C9    C17   A    
C12   O4    A    
Cu1   Cu2   S    
C7    H14   S    
Cu2   O8    S    
C10   C15   A    
C18   H4    S    
C25   C29   A    
C23   O5    A    
C22   C24   A    
C28   H7    S    
Cu1   O5    S    
C5    C17   A    
C29   N1    A    
Cu2   N2    S    
C6    H15   S    
C14   H2    S    
Cu2   O4    S    
Cu2   O2    S    
C31   O8    A    
C23   O6    A    
C33   C36   S    
C3    C11   A    
C20   C21   A    
C24   C28   A    
C8    C10   A    
C34   C35   S    
C10   C11   A    
C15   H12   S    
C19   N2    A    
C27   C28   A    
C4    C23   S    
Cu1   O7    S    
C5    H13   S    
C25   C26   A    
C13   C14   A    
Cu1   O1    S    
C27   C37   S    
C1    O1    A    
C31   C32   S    
C3    C16   A    
C19   C20   A    
C8    C9    A    
C38   O10   D    
C22   C25   A    
C37   O9    D    
