data_mof_unit_21008.cif
_audit_creation_date              2012-10-26T19:41:52-0400
_audit_creation_method            fapswitch 2.2
_symmetry_space_group_name_H-M    P1
_symmetry_Int_Tables_number       1
_space_group_crystal_system       triclinic
_cell_length_a                    10.621499
_cell_length_b                    10.78555
_cell_length_c                    9.637918
_cell_angle_alpha                 90.067031
_cell_angle_beta                  90.717506
_cell_angle_gamma                 91.531951
_cell_volume                      1103.62500783

loop_
_atom_site_label
_atom_site_type_symbol
_atom_type_description
_atom_site_fract_x
_atom_site_fract_y
_atom_site_fract_z
_atom_type_partial_charge
C1    C     C_R   0.503486 0.262865 0.500400 0.552355
C2    C     C_R   0.612106 0.066883 0.562498 -0.006813
C3    C     C_R   0.509247 0.128985 0.501696 0.021847
C4    C     C_R   0.259703 0.502574 0.499075 0.554967
C5    C     C_R   0.410088 0.062310 0.437437 -0.122712
C6    C     C_R   0.408569 0.934009 0.437801 -0.126445
C7    C     C_R   0.509313 0.871139 0.496121 0.022070
C8    C     C_R   0.668585 0.660646 0.146564 -0.074281
C9    C     C_R   0.754630 0.735229 0.076394 -0.146900
C10   C     C_R   0.756242 0.733334 0.933795 -0.152510
C11   C     C_R   0.670555 0.658386 0.860278 -0.084796
C12   C     C_3   0.958781 0.602550 0.425990 -0.168310
C13   C     C_R   0.583451 0.578121 0.927062 0.165938
C14   C     C_R   0.583012 0.578603 0.076227 0.169033
C15   C     C_R   0.420812 0.425279 0.072529 0.012155
C16   C     C_R   0.501274 0.737191 0.499345 0.521612
C17   C     C_R   0.420732 0.425421 0.924891 0.013734
C18   C     C_R   0.740421 0.501750 0.500709 0.553883
C19   C     C_3   0.041704 0.408301 0.572406 -0.070891
C20   C     C_3   0.955776 0.400605 0.442988 0.257598
C21   C     C_3   0.877477 0.504656 0.501448 0.044070
C22   C     C_3   0.962265 0.514017 0.631420 -0.133054
C23   C     C_3   0.038528 0.497025 0.366649 -0.086042
C24   C     C_3   0.045820 0.611643 0.556014 -0.158091
C25   C     C_3   0.122791 0.505779 0.497123 -0.007397
C26   C     C_R   0.711515 0.129887 0.634819 -0.043991
C27   C     C_R   0.814314 0.064455 0.686485 0.310192
C28   C     C_R   0.825258 0.939428 0.653756 -0.098503
C29   C     C_R   0.726770 0.875541 0.586605 -0.166687
C30   C     C_R   0.615761 0.936583 0.549490 0.018226
Cl1   Cl    Cl    0.894465 0.260229 0.367978 -0.559821
Cu1   Cu    Cu3+1 0.499990 0.499990 0.640660 0.953473
Cu2   Cu    Cu3+1 0.500010 0.500010 0.359340 0.970751
H1    H     H_    0.908381 0.890089 0.685053 0.134081
H2    H     H_    0.081657 0.329929 0.630498 0.198448
H3    H     H_    0.928601 0.522666 0.739470 0.156744
H4    H     H_    0.086076 0.698584 0.602139 0.136343
H5    H     H_    0.921745 0.682236 0.366791 0.116603
H6    H     H_    0.071834 0.489441 0.258311 0.144358
H7    H     H_    0.331564 0.109936 0.390808 0.140865
H8    H     H_    0.709281 0.228541 0.653562 0.189525
H9    H     H_    0.960270 0.315388 0.891270 0.365960
H10   H     H_    0.738123 0.778332 0.563854 0.096385
H11   H     H_    0.328306 0.883422 0.393131 0.133033
H12   H     H_    0.355768 0.363870 0.126346 0.128493
H13   H     H_    0.673988 0.671941 0.255643 0.175302
H14   H     H_    0.820085 0.795565 0.133341 0.152277
H15   H     H_    0.824001 0.791277 0.880137 0.146001
H16   H     H_    0.676073 0.667152 0.751593 0.176658
H17   H     H_    0.355616 0.364111 0.869079 0.136712
N1    N     N_R   0.501210 0.501210 0.147910 -0.243650
N2    N     N_R   0.501250 0.501290 0.852040 -0.244106
O1    O     O_R   0.499990 0.319640 0.618810 -0.506779
O2    O     O_2   0.055225 0.121188 0.741729 -0.307609
O3    O     O_3   0.895084 0.284919 0.824212 -0.550046
O4    O     O_R   0.500000 0.319660 0.381240 -0.474865
O5    O     O_R   0.316850 0.499960 0.618770 -0.500285
O6    O     O_R   0.316860 0.499980 0.381190 -0.507382
O7    O     O_R   0.500000 0.680340 0.618760 -0.516141
O8    O     O_R   0.500010 0.680360 0.381190 -0.528486
O9    O     O_R   0.683140 0.500020 0.618810 -0.526979
O10   O     O_R   0.683150 0.500040 0.381230 -0.495512
O11   O     O_2   0.919651 0.068410 0.937261 -0.258854
S1    S     S_3+6 0.925774 0.134429 0.800158 -0.001751

loop_
_geom_bond_atom_site_label_1
_geom_bond_atom_site_label_2
_ccdc_geom_bond_type
C17   H17   S    
C4    O5    A    
C24   C25   S    
C18   O9    A    
C6    C7    A    
C11   H16   S    
C15   N1    A    
H9    O3    S    
Cu2   N1    S    
C13   N2    A    
C22   H3    S    
C9    C10   A    
C12   C24   S    
C14   N1    A    
C20   C23   S    
C2    C30   A    
O3    S1    S    
Cu2   O4    S    
C2    C3    A    
C8    C9    A    
C28   H1    S    
C2    C26   A    
C7    C30   A    
C6    H11   S    
C21   C22   S    
Cu1   Cu2   S    
C10   H15   S    
C11   C13   A    
C12   C23   S    
C26   C27   A    
Cu2   O6    S    
O2    S1    D    
Cu1   O5    S    
C23   H6    S    
C29   H10   S    
C17   N2    A    
C19   H2    S    
C28   C29   A    
C1    O4    A    
Cu1   O9    S    
C9    H14   S    
Cu2   O8    S    
C22   C24   S    
C23   C25   S    
C12   H5    S    
C5    C6    A    
C19   C25   S    
C8    H13   S    
C10   C11   A    
C15   H12   S    
C29   C30   A    
O11   S1    D    
C18   C21   S    
C4    C25   S    
Cu1   O1    S    
C19   C22   S    
C20   C21   S    
C24   H4    S    
C27   S1    S    
C5    H7    S    
C4    O6    A    
C27   C28   A    
C15   C17   A    
C1    O1    A    
C7    C16   S    
C8    C14   A    
Cu1   O7    S    
C3    C5    A    
C18   O10   A    
C13   C14   A    
C16   O8    A    
C12   C21   S    
C16   O7    A    
Cu1   N2    S    
C19   C20   S    
C26   H8    S    
Cu2   O10   S    
C1    C3    S    
C20   Cl1   S    
