data_mof_unit_62529.cif
_audit_creation_date              2012-12-10T18:39:03-0500
_audit_creation_method            fapswitch 2.2
_symmetry_space_group_name_H-M    P1
_symmetry_Int_Tables_number       1
_space_group_crystal_system       triclinic
_cell_length_a                    10.673372
_cell_length_b                    11.568708
_cell_length_c                    10.787111
_cell_angle_alpha                 89.999937
_cell_angle_beta                  90.0
_cell_angle_gamma                 90.025068
_cell_volume                      1331.96131553

loop_
_atom_site_label
_atom_site_type_symbol
_atom_type_description
_atom_site_fract_x
_atom_site_fract_y
_atom_site_fract_z
_atom_type_partial_charge
C1    C     C_R   0.500152 0.281205 0.500000 0.912537
C2    C     C_3   0.121348 0.499356 0.500410 0.066473
C3    C     C_3   0.878652 0.500570 0.500410 0.066475
C4    C     C_1   0.499909 0.838921 0.499985 -0.194161
C5    C     C_1   0.499968 0.940833 0.499967 0.001542
C6    C     C_R   0.257173 0.499635 0.500203 0.888842
C7    C     C_R   0.742827 0.500298 0.500203 0.888850
C8    C     C_1   0.500000 0.500011 0.069785 0.024248
C9    C     C_1   0.500000 0.500011 0.930215 0.023713
C10   C     C_R   0.499848 0.718795 0.499999 0.912533
C11   C     C_1   0.500091 0.161078 0.499985 -0.194173
C12   C     C_3   0.071512 0.392412 0.425332 -0.138629
C13   C     C_3   0.073829 0.612067 0.435302 -0.077101
C14   C     C_3   0.926170 0.387876 0.435267 -0.077116
C15   C     C_3   0.928488 0.607535 0.425365 -0.138629
C16   C     C_1   0.500031 0.059167 0.499967 0.001544
C17   C     C_3   0.070861 0.495543 0.636046 -0.405670
C18   C     C_3   0.929139 0.504345 0.636047 -0.405662
H1    H     H_    0.099462 0.414811 0.683941 0.173092
H2    H     H_    0.110105 0.567248 0.692739 0.190702
H3    H     H_    0.889893 0.432626 0.692717 0.190690
H4    H     H_    0.900540 0.585064 0.683967 0.173104
N1    N     N_1   0.500000 0.500010 0.180630 -0.084500
N2    N     N_1   0.500000 0.500010 0.819370 -0.085174
O1    O     O_R   0.500000 0.334450 0.602530 -0.607484
O2    O     O_R   0.500000 0.334450 0.397470 -0.609970
O3    O     O_R   0.314800 0.499980 0.602530 -0.622738
O4    O     O_R   0.314800 0.499980 0.397470 -0.634083
O5    O     O_R   0.685200 0.499980 0.602530 -0.622751
O6    O     O_R   0.685200 0.499980 0.397470 -0.634083
O7    O     O_R   0.500000 0.665550 0.602530 -0.607499
O8    O     O_R   0.500000 0.665550 0.397470 -0.609989
Zn1   Zn    Zn3+2 0.500000 0.500000 0.636920 0.967782
Zn2   Zn    Zn3+2 0.500000 0.500000 0.363080 0.964232
N3    N     N_3   0.131116 0.281955 0.459086 -0.459628
H5    H     H_    0.219862 0.277759 0.418276 0.189494
H6    H     H_    0.144066 0.275464 0.554641 0.183370
N4    N     N_3   0.121448 0.716480 0.497495 -0.454760
H7    H     H_    0.104048 0.788060 0.440824 0.210580
H8    H     H_    0.075050 0.730276 0.581426 0.207035
N5    N     N_3   0.878551 0.283448 0.497428 -0.454778
H9    H     H_    0.895950 0.211883 0.440735 0.210587
H10   H     H_    0.924949 0.269628 0.581355 0.207037
N6    N     N_3   0.868885 0.717983 0.459152 -0.459628
H11   H     H_    0.780141 0.722191 0.418341 0.189495
H12   H     H_    0.855933 0.724447 0.554709 0.183381
H13   H     H_    0.093684 0.407715 0.325551 0.138930
H14   H     H_    0.111626 0.613348 0.338871 0.136503
H15   H     H_    0.888373 0.386622 0.338836 0.136507
H16   H     H_    0.906316 0.592258 0.325580 0.138927

loop_
_geom_bond_atom_site_label_1
_geom_bond_atom_site_label_2
_ccdc_geom_bond_type
C13   H14   S    
N4    H8    S    
O7    Zn1   S    
C9    N2    T    
C7    O5    A    
O5    Zn1   S    
C18   H3    S    
N5    H9    S    
N2    Zn1   S    
C1    C11   S    
N1    Zn2   S    
C2    C12   S    
C8    N1    T    
C12   H13   S    
C17   C18   S    
O4    Zn2   S    
C7    O6    A    
O3    Zn1   S    
C12   N3    S    
C1    O1    A    
N5    H10   S    
C13   N4    S    
C2    C6    S    
C3    C14   S    
C14   N5    S    
N3    H6    S    
C12   C14   S    
C15   N6    S    
C3    C7    S    
C13   C15   S    
N4    H7    S    
C1    O2    A    
C14   H15   S    
O6    Zn2   S    
C4    C10   S    
C10   O8    A    
C17   H2    S    
C3    C15   S    
N6    H11   S    
C3    C18   S    
C11   C16   T    
C15   H16   S    
O1    Zn1   S    
C2    C13   S    
C8    C9    S    
C5    C16   S    
C17   H1    S    
C18   H4    S    
C10   O7    A    
O2    Zn2   S    
C6    O4    A    
C6    O3    A    
N6    H12   S    
C4    C5    T    
C2    C17   S    
N3    H5    S    
O8    Zn2   S    
