data_mof_unit_11364.cif
_audit_creation_date              2012-12-10T21:00:44-0500
_audit_creation_method            fapswitch 2.2
_symmetry_space_group_name_H-M    P1
_symmetry_Int_Tables_number       1
_space_group_crystal_system       triclinic
_cell_length_a                    18.146377
_cell_length_b                    18.230053
_cell_length_c                    18.332292
_cell_angle_alpha                 120.061937
_cell_angle_beta                  89.783352
_cell_angle_gamma                 119.912166
_cell_volume                      4297.94509495

loop_
_atom_site_label
_atom_site_type_symbol
_atom_type_description
_atom_site_fract_x
_atom_site_fract_y
_atom_site_fract_z
_atom_type_partial_charge
C1    C     C_R   0.109457 0.220113 0.610067 0.996553
C2    C     C_R   0.891040 0.779997 0.390008 0.995007
C3    C     C_3   0.920856 0.405207 0.450111 -0.321555
C4    C     C_3   0.079332 0.595040 0.550028 -0.327757
C5    C     C_3   0.426936 0.961890 0.025337 -0.290899
C6    C     C_3   0.571789 0.037309 0.975608 -0.217582
C7    C     C_3   0.450508 0.034353 0.994259 -0.283467
C8    C     C_3   0.548619 0.965995 0.007293 -0.216279
C9    C     C_3   0.549891 0.103152 0.053389 -0.130804
C10   C     C_3   0.449742 0.896811 0.947702 -0.127854
C11   C     C_3   0.526249 0.032109 0.083995 0.579354
C12   C     C_3   0.472336 0.967759 0.917296 0.585488
C13   C     C_3   0.474390 0.421324 0.508383 0.184727
C14   C     C_3   0.524903 0.576967 0.490516 0.252250
C15   C     C_3   0.572388 0.512059 0.536533 0.319155
C16   C     C_3   0.426995 0.486331 0.462475 0.326137
C17   C     C_3   0.550157 0.498503 0.447633 -0.381798
C18   C     C_3   0.449345 0.500112 0.551616 -0.379819
C19   C     C_3   0.451772 0.407897 0.419858 0.314900
C20   C     C_3   0.547735 0.590602 0.579118 0.324744
C21   C     C_R   0.242849 0.203336 0.802879 -0.251428
C22   C     C_R   0.758528 0.798506 0.198725 -0.177946
C23   C     C_R   0.392704 0.780944 0.888379 0.810898
C24   C     C_R   0.607289 0.219064 0.111310 0.799732
C25   C     C_R   0.203114 0.162274 0.714790 0.471280
C26   C     C_R   0.798641 0.839180 0.286477 0.460415
C27   C     C_R   0.107775 0.101724 0.678561 -0.176947
C28   C     C_R   0.893908 0.899524 0.322031 -0.159683
C29   C     C_R   0.054525 0.086674 0.733806 0.335236
C30   C     C_R   0.947066 0.916203 0.267097 0.371086
C31   C     C_R   0.096860 0.123748 0.820523 0.468406
C32   C     C_R   0.904668 0.879495 0.180431 0.454523
C33   C     C_R   0.190544 0.183334 0.854596 -0.311868
C34   C     C_R   0.810338 0.818670 0.146685 -0.319568
C35   C     C_R   0.017741 0.945270 0.523693 0.413157
C36   C     C_R   0.983221 0.055115 0.476896 0.441789
C37   C     C_R   0.950871 0.892641 0.443692 -0.207391
C38   C     C_R   0.050300 0.107692 0.556549 -0.193269
C39   C     C_R   0.939640 0.948242 0.416615 0.018900
C40   C     C_R   0.062104 0.052431 0.583659 0.009838
C41   C     C_R   0.685846 0.723071 0.886388 -0.269990
C42   C     C_R   0.310496 0.273243 0.107276 -0.254157
C43   C     C_R   0.633872 0.639267 0.891885 -0.211889
C44   C     C_R   0.363169 0.358272 0.103851 -0.215494
C45   C     C_R   0.113565 0.503150 0.892065 0.889314
C46   C     C_R   0.886682 0.497131 0.108311 0.902316
C47   C     C_R   0.595475 0.650151 0.960002 0.128562
C48   C     C_R   0.405064 0.350469 0.038457 0.135248
C49   C     C_R   0.607653 0.745150 0.021451 0.474179
C50   C     C_R   0.394887 0.256723 0.975701 0.488452
C51   C     C_R   0.662041 0.829604 0.016680 -0.347165
C52   C     C_R   0.341233 0.171378 0.980603 -0.383242
C53   C     C_R   0.699980 0.818379 0.948671 0.417127
C54   C     C_R   0.299566 0.179813 0.045928 0.439390
C55   C     C_R   0.591478 0.544675 0.007891 0.441182
C56   C     C_R   0.409335 0.458981 0.994472 0.442459
C57   C     C_R   0.550193 0.490125 0.045886 -0.201037
C58   C     C_R   0.450380 0.512661 0.955802 -0.211513
C59   C     C_R   0.457043 0.439105 0.031657 -0.087553
C60   C     C_R   0.543628 0.563660 0.969741 -0.081453
C61   C     C_R   0.334457 0.787027 0.171863 -0.118954
C62   C     C_R   0.658350 0.225072 0.866907 -0.129263
C63   C     C_R   0.252711 0.690611 0.116964 -0.226530
C64   C     C_R   0.744505 0.316831 0.909997 -0.226847
C65   C     C_R   0.181695 0.681402 0.074197 0.080870
C66   C     C_R   0.819541 0.317218 0.928459 0.088494
C67   C     C_R   0.392270 0.500402 0.608035 0.975475
C68   C     C_R   0.607679 0.499198 0.391817 0.998081
C69   C     C_R   0.193802 0.767593 0.081302 0.574692
C70   C     C_R   0.808168 0.225674 0.907083 0.593835
C71   C     C_R   0.277184 0.864991 0.137837 -0.245903
C72   C     C_R   0.721119 0.132464 0.859891 -0.207704
C73   C     C_R   0.346787 0.873856 0.182073 -0.118608
C74   C     C_R   0.646853 0.132714 0.840438 -0.156317
C75   C     C_R   0.034667 0.585199 0.091612 0.330277
C76   C     C_R   0.964967 0.416363 0.908788 0.352087
C77   C     C_R   0.945057 0.498003 0.053601 -0.231737
C78   C     C_R   0.055294 0.502403 0.947034 -0.224116
C79   C     C_R   0.911020 0.412210 0.964022 -0.125440
C80   C     C_R   0.089818 0.587294 0.037273 -0.113126
C81   C     C_R   0.393910 0.504708 0.893156 0.884845
C82   C     C_R   0.606152 0.495867 0.107186 0.901356
C83   C     C_R   0.108869 0.500019 0.607704 0.897415
C84   C     C_R   0.891188 0.500043 0.392317 0.894875
C85   C     C_3   0.014982 0.427333 0.447389 -0.263993
C86   C     C_3   0.985196 0.572911 0.552730 -0.262259
C87   C     C_3   0.041284 0.521778 0.447274 0.616258
C88   C     C_3   0.958908 0.478473 0.552853 0.617273
C89   C     C_3   0.948542 0.499964 0.449468 -0.111603
C90   C     C_3   0.051625 0.500255 0.550629 -0.116843
H1    H     H_    0.222698 0.215389 0.922433 0.214949
H2    H     H_    0.776625 0.784991 0.078876 0.205319
H3    H     H_    0.315262 0.251237 0.831763 0.230389
H4    H     H_    0.686067 0.750558 0.170259 0.229029
H5    H     H_    0.715811 0.713877 0.834247 0.170412
H6    H     H_    0.278066 0.280323 0.157599 0.170393
H7    H     H_    0.623313 0.566086 0.842900 0.173818
H8    H     H_    0.371430 0.430271 0.152266 0.175136
H9    H     H_    0.028411 0.368646 0.405114 0.200838
H10   H     H_    0.971778 0.631609 0.595005 0.197420
H11   H     H_    0.675657 0.904227 0.066694 0.195380
H12   H     H_    0.330693 0.097814 0.934096 0.165666
H13   H     H_    0.409426 0.948742 0.226868 0.180442
H14   H     H_    0.580427 0.061037 0.803921 0.216386
H15   H     H_    0.386584 0.795526 0.210447 0.158365
H16   H     H_    0.600916 0.225128 0.851584 0.160169
H17   H     H_    0.241997 0.625051 0.113897 0.143278
H18   H     H_    0.753771 0.387122 0.926122 0.129200
H19   H     H_    0.287912 0.934935 0.150924 0.177452
H20   H     H_    0.710683 0.059563 0.837052 0.196500
H21   H     H_    0.855295 0.328337 0.409407 0.180483
H22   H     H_    0.144897 0.671914 0.590824 0.167271
H23   H     H_    0.410874 0.063472 0.990695 0.197032
H24   H     H_    0.588990 0.938415 0.013161 0.189128
H25   H     H_    0.366809 0.930102 0.044383 0.180330
H26   H     H_    0.631907 0.067991 0.956022 0.186416
O1    O     O_3   0.251620 0.500000 0.748430 -0.529022
O2    O     O_3   0.748380 0.500000 0.251570 -0.533649
O3    O     O_R   0.134680 0.560740 0.864590 -0.629769
O4    O     O_R   0.865320 0.439260 0.135410 -0.628911
O5    O     O_R   0.306670 0.439270 0.571150 -0.633978
O6    O     O_R   0.693330 0.560730 0.428850 -0.610892
O7    O     O_R   0.135450 0.268370 0.694460 -0.629295
O8    O     O_R   0.864550 0.731630 0.305540 -0.620115
O9    O     O_R   0.429670 0.731610 0.863510 -0.648146
O10   O     O_R   0.570330 0.268390 0.136490 -0.653945
O11   O     O_R   0.134680 0.268390 0.572240 -0.571448
O12   O     O_R   0.865320 0.731610 0.427760 -0.583407
O13   O     O_R   0.306670 0.731630 0.863510 -0.670173
O14   O     O_R   0.693330 0.268370 0.136490 -0.644204
O15   O     O_R   0.135450 0.439270 0.865360 -0.602272
O16   O     O_R   0.864550 0.560730 0.134640 -0.610619
O17   O     O_R   0.429670 0.560710 0.692610 -0.601236
O18   O     O_R   0.570330 0.439290 0.307390 -0.615959
O19   O     O_R   0.308540 0.439240 0.865360 -0.591856
O20   O     O_R   0.691460 0.560760 0.134640 -0.602487
O21   O     O_R   0.133580 0.439310 0.571150 -0.612568
O22   O     O_R   0.866420 0.560690 0.428850 -0.619183
O23   O     O_R   0.430770 0.560690 0.864590 -0.657722
O24   O     O_R   0.569230 0.439310 0.135410 -0.642698
O25   O     O_R   0.133580 0.560760 0.692610 -0.628383
O26   O     O_R   0.866420 0.439240 0.307390 -0.616553
Zn1   Zn    Zn3+2 0.207400 0.586780 0.791530 0.997767
Zn2   Zn    Zn3+2 0.792600 0.413220 0.208470 1.022942
Zn3   Zn    Zn3+2 0.208510 0.413230 0.792630 1.089283
Zn4   Zn    Zn3+2 0.791490 0.586770 0.207370 1.085462
Zn5   Zn    Zn3+2 0.383150 0.586740 0.791530 1.006879
Zn6   Zn    Zn3+2 0.616850 0.413260 0.208470 1.009914
Zn7   Zn    Zn3+2 0.207400 0.413250 0.618010 1.121249
Zn8   Zn    Zn3+2 0.792600 0.586750 0.381990 1.123590
O27   O     O_3   0.080212 0.544454 0.388275 -0.568201
C91   C     C_3   0.164407 0.559259 0.399405 -0.203643
H27   H     H_    0.157286 0.487708 0.382133 0.150233
H28   H     H_    0.211642 0.625391 0.468365 0.158393
H29   H     H_    0.194527 0.577947 0.353244 0.203192
O28   O     O_3   0.920060 0.455764 0.611862 -0.589932
C92   C     C_3   0.836082 0.441504 0.601196 -0.243073
H30   H     H_    0.788711 0.375827 0.532194 0.168804
H31   H     H_    0.843590 0.513433 0.619102 0.157186
H32   H     H_    0.805911 0.422427 0.647151 0.200575
S1    S     S_3+6 0.276351 0.190645 0.654266 0.068957
O29   O     O_2   0.304918 0.292587 0.672357 -0.327383
O30   O     O_2   0.358690 0.199465 0.685591 -0.285902
O31   O     O_3   0.226259 0.098455 0.544004 -0.491136
H33   H     H_    0.274193 0.092908 0.521472 0.425241
S2    S     S_3+6 0.726037 0.811685 0.347978 0.075239
O32   O     O_2   0.644472 0.804970 0.318174 -0.268158
O33   O     O_2   0.696054 0.709036 0.329162 -0.308115
O34   O     O_3   0.777276 0.903323 0.458351 -0.489620
H34   H     H_    0.728755 0.904489 0.482662 0.427478
S3    S     S_3+6 0.935489 0.022919 0.696864 0.100904
O35   O     O_2   0.902971 0.058653 0.774724 -0.174496
O36   O     O_2   0.910010 0.045601 0.636613 -0.258665
O37   O     O_3   0.883317 0.894476 0.641844 -0.535419
H35   H     H_    0.846579 0.863525 0.581878 0.399664
S4    S     S_3+6 0.066787 0.983701 0.305881 0.083890
O38   O     O_2   0.102573 0.957701 0.229049 -0.254449
O39   O     O_2   0.110470 0.098315 0.362826 -0.260682
O40   O     O_3   0.095622 0.951931 0.367031 -0.497924
H36   H     H_    0.154376 0.963802 0.362033 0.424990
O41   O     O_3   0.047083 0.108087 0.874867 -0.564399
C93   C     C_3   0.043286 0.031655 0.879938 -0.128645
H37   H     H_    0.111362 0.056143 0.909935 0.157693
H38   H     H_    0.008806 0.956511 0.813041 0.187574
H39   H     H_    0.003813 0.019612 0.923959 0.226629
O42   O     O_3   0.956611 0.897294 0.127651 -0.560700
C94   C     C_3   0.931096 0.932434 0.086023 -0.112965
H40   H     H_    0.914574 0.987511 0.130648 0.169427
H41   H     H_    0.874022 0.865846 0.022997 0.153493
H42   H     H_    0.988344 0.974191 0.067988 0.227322
S5    S     S_3+6 0.054089 0.879432 0.543618 0.070970
O43   O     O_2   0.998056 0.835794 0.590107 -0.308166
O44   O     O_2   0.043079 0.791968 0.456707 -0.216674
O45   O     O_3   0.163204 0.958676 0.606302 -0.516403
H43   H     H_    0.164749 0.953820 0.657662 0.350094
S6    S     S_3+6 0.945891 0.120790 0.457798 0.075192
O46   O     O_2   0.956416 0.207271 0.545229 -0.237783
O47   O     O_2   0.001167 0.165170 0.411419 -0.282830
O48   O     O_3   0.837037 0.041102 0.394790 -0.521784
H44   H     H_    0.826307 0.081934 0.381363 0.385187
S7    S     S_3+6 0.762364 0.923334 0.940532 -0.046732
O49   O     O_2   0.817130 0.022088 0.032491 -0.318897
O50   O     O_2   0.824018 0.910780 0.888055 -0.343117
O51   O     O_3   0.690780 0.929478 0.889650 -0.585478
H45   H     H_    0.640133 0.856640 0.844478 0.379951
S8    S     S_3+6 0.236836 0.073654 0.052493 -0.049327
O52   O     O_2   0.171152 0.082304 0.100390 -0.317012
O53   O     O_2   0.186484 0.975404 0.959880 -0.344223
O54   O     O_3   0.307614 0.070316 0.107745 -0.603889
H46   H     H_    0.357882 0.143587 0.152240 0.368693
O55   O     O_3   0.572014 0.756065 0.090100 -0.613351
C95   C     C_3   0.513734 0.784941 0.087003 -0.287127
H47   H     H_    0.467792 0.763439 0.123010 0.181456
H48   H     H_    0.470907 0.743209 0.017839 0.144602
H49   H     H_    0.552107 0.869998 0.121426 0.204408
O56   O     O_3   0.440425 0.255631 0.913770 -0.636726
C96   C     C_3   0.411253 0.155788 0.840921 -0.303674
H50   H     H_    0.336832 0.104005 0.808895 0.176652
H51   H     H_    0.436431 0.122622 0.861943 0.166490
H52   H     H_    0.440835 0.162446 0.789714 0.231746
O57   O     O_3   0.680262 0.584224 0.011329 -0.602704
C97   C     C_3   0.684018 0.502932 0.944169 -0.236550
H53   H     H_    0.643958 0.469043 0.876631 0.159168
H54   H     H_    0.659900 0.440849 0.954750 0.146375
H55   H     H_    0.755054 0.534420 0.946562 0.188507
O58   O     O_3   0.320284 0.418632 0.990434 -0.592119
C98   C     C_3   0.315141 0.499533 0.056130 -0.244215
H56   H     H_    0.332000 0.556653 0.040649 0.133502
H57   H     H_    0.359704 0.539679 0.123884 0.154461
H58   H     H_    0.244973 0.465892 0.057149 0.195295
O59   O     O_3   0.118807 0.753953 0.041052 -0.660878
C99   C     C_3   0.141770 0.823085 0.017164 -0.073908
H59   H     H_    0.195904 0.831743 0.986292 0.156374
H60   H     H_    0.160290 0.898811 0.075985 0.259122
H61   H     H_    0.081523 0.791736 0.966798 0.203420
O60   O     O_3   0.884296 0.228663 0.924942 -0.602152
C100  C     C_3   0.873249 0.177674 0.966047 -0.054471
H62   H     H_    0.836965 0.093392 0.914796 0.255785
H63   H     H_    0.838634 0.193755 0.016498 0.136106
H64   H     H_    0.940799 0.205842 0.001355 0.208665
S9    S     S_3+6 0.074362 0.690169 0.207318 0.081067
O61   O     O_2   0.046260 0.647076 0.261845 -0.236528
O62   O     O_2   0.174466 0.768646 0.246261 -0.262431
O63   O     O_3   0.025400 0.750654 0.216797 -0.472469
H65   H     H_    0.027915 0.755854 0.165497 0.381049
S10   S     S_3+6 0.920102 0.317005 0.791056 0.094865
O64   O     O_2   0.947676 0.246218 0.774092 -0.151055
O65   O     O_2   0.819230 0.254204 0.755389 -0.273514
O66   O     O_3   0.961762 0.368869 0.734029 -0.509496
H66   H     H_    0.941265 0.414075 0.747222 0.364891
O67   O     O_3   0.556572 0.062235 0.171373 -0.629550
C101  C     C_3   0.531197 0.125794 0.229907 -0.258524
H67   H     H_    0.459443 0.093709 0.202871 0.173835
H68   H     H_    0.575787 0.205406 0.247345 0.161125
H69   H     H_    0.539980 0.131771 0.292931 0.208646
O68   O     O_3   0.449268 0.934318 0.827669 -0.624440
C102  C     C_3   0.358054 0.893577 0.795125 -0.303890
H70   H     H_    0.344898 0.953718 0.831252 0.152189
H71   H     H_    0.312753 0.826969 0.798302 0.191630
H72   H     H_    0.341258 0.865106 0.723983 0.198272
O69   O     O_3   0.653090 0.527627 0.568647 -0.589630
C103  C     C_3   0.656927 0.529881 0.646556 -0.211732
H73   H     H_    0.616390 0.554050 0.685044 0.180002
H74   H     H_    0.727956 0.585936 0.691055 0.147638
H75   H     H_    0.635421 0.452852 0.628992 0.225790
O70   O     O_3   0.346345 0.470965 0.430528 -0.581728
C104  C     C_3   0.341065 0.465595 0.351137 -0.206115
H76   H     H_    0.269720 0.408899 0.307409 0.150383
H77   H     H_    0.380998 0.440295 0.312538 0.179391
H78   H     H_    0.362214 0.541807 0.366790 0.221872
S11   S     S_3+6 0.439498 0.318521 0.520790 0.063160
O71   O     O_2   0.486012 0.267431 0.476795 -0.253173
O72   O     O_2   0.464688 0.361158 0.618085 -0.283712
O73   O     O_3   0.327690 0.229539 0.472918 -0.501682
H79   H     H_    0.300940 0.264963 0.509584 0.383046
S12   S     S_3+6 0.559443 0.678195 0.476050 0.055020
O74   O     O_2   0.659848 0.754748 0.515520 -0.292022
O75   O     O_2   0.531489 0.632872 0.378291 -0.294342
O76   O     O_3   0.510276 0.738501 0.527308 -0.520970
H80   H     H_    0.531115 0.792261 0.515946 0.389001
O77   O     O_3   0.407913 0.313672 0.334199 -0.616478
C105  C     C_3   0.314611 0.252108 0.318657 -0.009805
H81   H     H_    0.293246 0.279032 0.378392 0.184987
H82   H     H_    0.293086 0.172107 0.291209 0.234611
H83   H     H_    0.277896 0.249098 0.268099 0.164921
O78   O     O_3   0.592626 0.685411 0.664364 -0.604305
C106  C     C_3   0.685716 0.745576 0.678320 0.002711
H84   H     H_    0.709285 0.827218 0.711032 0.231989
H85   H     H_    0.704916 0.721426 0.616866 0.189955
H86   H     H_    0.722495 0.742648 0.723611 0.161351

loop_
_geom_bond_atom_site_label_1
_geom_bond_atom_site_label_2
_ccdc_geom_bond_type
S11   O73   S    
S2    O33   D    
S3    O35   D    
C63   C65   A    
C7    C9    S    
C92   H30   S    
C12   O68   S    
C27   C29   A    
O3    Zn1   S    
O34   H34   S    
O2    Zn8   S    
O4    Zn2   S    
C76   C79   A    
C83   O21   A    
O1    Zn7   S    
O24   Zn6   S    
C6    C9    S    
S5    O44   D    
S1    O29   D    
O14   Zn2   S    
O67   C101  S    
C47   C49   A    
C4    C87   S    
C66   C70   A    
O41   C93   S    
O63   H65   S    
C96   H52   S    
C66   C79   S    
S3    O36   D    
C52   H12   S    
O66   H66   S    
O11   Zn7   S    
O77   C105  S    
C13   C18   S    
C42   H6    S    
O6    Zn8   S    
C101  H68   S    
O31   H33   S    
C67   O17   A    
C76   C78   A    
C5    C11   S    
O78   C106  S    
O2    Zn2   S    
O25   Zn1   S    
C46   O16   A    
O69   C103  S    
C104  H78   S    
C86   C88   S    
C95   H48   S    
C57   C59   A    
C21   C33   A    
C58   C60   A    
S11   O71   D    
O60   C100  S    
C23   O13   A    
C61   C63   A    
S9    O61   D    
S7    O49   D    
C69   C71   A    
C3    C88   S    
O37   H35   S    
C94   H42   S    
C82   O24   A    
C47   C60   S    
C93   H37   S    
C44   H8    S    
S4    O40   S    
C26   S2    S    
O7    Zn3   S    
C3    H21   S    
C28   C30   A    
C54   S8    S    
C98   H58   S    
C73   H13   S    
C62   C64   A    
O76   H80   S    
S12   O76   S    
C72   H20   S    
C64   H18   S    
C45   C78   S    
O17   Zn5   S    
C84   O26   A    
C86   H10   S    
C75   C80   A    
S10   O64   D    
C18   C20   S    
C8    H24   S    
C23   O9    A    
C45   O3    A    
S4    O39   D    
O45   H43   S    
C4    H22   S    
C84   O22   A    
O48   H44   S    
C92   H31   S    
C65   C80   S    
C87   O27   S    
C100  H62   S    
C5    H25   S    
C22   H4    S    
C24   O10   A    
S7    O50   D    
C14   C17   S    
O21   Zn7   S    
C7    C12   S    
C42   C44   A    
C103  H75   S    
S6    O48   S    
C22   C34   A    
C67   O5    A    
C6    C12   S    
C30   S4    S    
S1    O30   D    
C52   C54   A    
C81   O19   A    
C4    C90   S    
C1    O7    A    
C85   C87   S    
C15   C20   S    
C19   O77   S    
S3    O37   S    
S10   O65   D    
C106  H86   S    
C13   C19   S    
S5    O43   D    
C14   C20   S    
O2    Zn4   S    
S8    O54   S    
O56   C96   S    
C106  H85   S    
O16   Zn4   S    
C72   C74   A    
O9    Zn5   S    
C58   C81   S    
C68   O6    A    
C83   O25   A    
O10   Zn6   S    
S8    O52   D    
C20   O78   S    
C69   O59   S    
C97   H55   S    
C49   C51   A    
C18   C67   S    
O8    Zn4   S    
C14   S12   S    
C99   H61   S    
C11   O67   S    
O40   H36   S    
C102  H71   S    
C93   H39   S    
C32   C34   A    
C94   H40   S    
C36   S6    S    
O55   C95   S    
O57   C97   S    
C85   H9    S    
C24   O14   A    
C9    C11   S    
C8    C11   S    
C50   C52   A    
C98   H56   S    
C91   H29   S    
C50   O56   S    
C27   C40   S    
O27   C91   S    
O23   Zn5   S    
O68   C102  S    
C49   O55   S    
C31   C33   A    
O54   H46   S    
C105  H81   S    
C77   C79   A    
C46   O4    A    
C55   C57   A    
C70   O60   S    
O51   H45   S    
C97   H54   S    
C75   C77   A    
C6    H26   S    
C10   C12   S    
C1    C38   S    
C105  H83   S    
C101  H69   S    
O13   Zn1   S    
S6    O47   D    
S4    O38   D    
C98   H57   S    
C88   C90   S    
C45   O15   A    
C92   H32   S    
C25   S1    S    
C100  H63   S    
C13   C15   S    
S2    O32   D    
S7    O51   S    
C14   C16   S    
C3    C85   S    
C21   H3    S    
S9    O62   D    
C25   C27   A    
C84   C89   S    
S11   O72   D    
C63   H17   S    
C36   C38   A    
C88   O28   S    
C78   C80   A    
C102  H70   S    
S1    O31   S    
C61   H15   S    
C3    C89   S    
C91   H27   S    
C48   C59   S    
C74   H14   S    
C91   H28   S    
O12   Zn8   S    
C81   O23   A    
C83   C90   S    
C21   C25   A    
O73   H79   S    
O28   C92   S    
C17   C68   S    
C35   S5    S    
C13   S11   S    
C93   H38   S    
C35   C37   A    
C29   S3    S    
C29   C31   A    
C95   H49   S    
C26   C28   A    
O1    Zn3   S    
O5    Zn7   S    
C36   C39   A    
C76   S10   S    
C41   C43   A    
C43   H7    S    
S12   O75   D    
S6    O46   D    
C86   C89   S    
C99   H60   S    
C46   C77   S    
C6    C8    S    
C85   C90   S    
C56   C59   A    
C9    C24   S    
C15   C17   S    
C103  H73   S    
C62   H16   S    
C2    O8    A    
C10   C23   S    
C96   H51   S    
O18   Zn6   S    
C105  H82   S    
C28   C39   S    
C32   O42   S    
C55   O57   S    
O1    Zn5   S    
C104  H76   S    
C61   C73   A    
C16   C18   S    
C102  H72   S    
C68   O18   A    
C35   C40   A    
C96   H50   S    
S5    O45   S    
C5    C7    S    
C5    C10   S    
O19   Zn3   S    
S9    O63   S    
C42   C54   A    
C30   C32   A    
S12   O74   D    
C104  H77   S    
C2    C37   S    
C7    H23   S    
C41   H5    S    
C38   C40   A    
C56   O58   S    
C16   C19   S    
C65   C69   A    
C34   H2    S    
C71   H19   S    
C48   C50   A    
C99   H59   S    
C17   C19   S    
C56   C58   A    
O15   Zn3   S    
O26   Zn2   S    
O22   Zn8   S    
C82   O20   A    
C97   H53   S    
C53   S7    S    
C94   H41   S    
O70   C104  S    
C1    O11   A    
O2    Zn6   S    
C41   C53   A    
C106  H84   S    
C75   S9    S    
C37   C39   A    
C103  H74   S    
C4    C86   S    
C95   H47   S    
O1    Zn1   S    
S2    O34   S    
C8    C10   S    
O58   C98   S    
C22   C26   A    
C100  H64   S    
C71   C73   A    
O59   C99   S    
C87   C89   S    
C16   O70   S    
C57   C82   S    
C62   C74   A    
C70   C72   A    
C15   O69   S    
C51   C53   A    
O42   C94   S    
C55   C60   A    
S8    O53   D    
C43   C47   A    
S10   O66   S    
O20   Zn4   S    
C51   H11   S    
C44   C48   A    
C31   O41   S    
C64   C66   A    
C101  H67   S    
C33   H1    S    
C2    O12   A    
