data_mof_unit_41219.cif
_audit_creation_date              2012-12-11T17:01:23-0500
_audit_creation_method            fapswitch 2.2
_symmetry_space_group_name_H-M    P1
_symmetry_Int_Tables_number       1
_space_group_crystal_system       triclinic
_cell_length_a                    14.987568
_cell_length_b                    14.853783
_cell_length_c                    14.916116
_cell_angle_alpha                 109.81424
_cell_angle_beta                  109.251904
_cell_angle_gamma                 109.515334
_cell_volume                      2550.88878951

loop_
_atom_site_label
_atom_site_type_symbol
_atom_type_description
_atom_site_fract_x
_atom_site_fract_y
_atom_site_fract_z
_atom_type_partial_charge
Br1   Br    Br    0.594336 0.592386 0.916977 -0.640132
Br2   Br    Br    0.960690 0.658302 0.463987 -0.602023
C1    C     C_R   0.929899 0.744609 0.023104 -0.126140
C2    C     C_R   0.210121 0.805638 0.300808 -0.153422
C3    C     C_R   0.971221 0.408363 0.223745 -0.113603
C4    C     C_R   0.779457 0.253723 0.686020 -0.140468
C5    C     C_R   0.313957 0.593150 0.068173 -0.134122
C6    C     C_R   0.047696 0.502229 0.326567 0.071022
C7    C     C_R   0.325588 0.501216 0.052599 0.015981
C8    C     C_R   0.303033 0.868760 0.301828 0.084036
C9    C     C_R   0.934499 0.131139 0.934504 0.085667
C10   C     C_3   0.525143 0.484236 0.954563 0.205849
C11   C     C_3   0.423177 0.484767 0.953178 -0.441353
C12   C     C_R   0.676109 0.223900 0.673058 0.074022
C13   C     C_3   0.538986 0.407961 0.084037 -0.455336
C14   C     C_3   0.633271 0.613524 0.162685 -0.369971
C15   C     C_3   0.601560 0.502356 0.067186 0.262945
C16   C     C_R   0.097809 0.592911 0.794610 -0.150821
C17   C     C_3   0.426882 0.501940 0.063247 0.335181
C18   C     C_3   0.435501 0.407971 0.082005 -0.400158
C19   C     C_3   0.530248 0.613681 0.159808 -0.399009
C20   C     C_R   0.574492 0.122962 0.468690 0.169978
C21   C     C_R   0.575458 0.168084 0.568354 0.035333
C22   C     C_R   0.474177 0.139902 0.564501 -0.184890
C23   C     C_R   0.068488 0.502837 0.700601 0.084050
C24   C     C_R   0.378568 0.047928 0.469979 -0.205542
C25   C     C_R   0.384673 0.985569 0.379420 0.030129
C26   C     C_R   0.480139 0.033138 0.375333 0.159296
C27   C     C_3   0.541337 0.982734 0.337028 -0.520690
C28   C     C_R   0.698277 0.408521 0.001348 -0.141148
C29   C     C_3   0.644423 0.080415 0.439245 -0.517350
C30   C     C_R   0.136449 0.607327 0.528675 0.024244
C31   C     C_R   0.091087 0.508018 0.432039 0.075449
C32   C     C_R   0.075323 0.412365 0.439070 -0.176406
C33   C     C_R   0.081880 0.412402 0.534915 -0.187095
C34   C     C_R   0.697688 0.500862 0.063724 0.037927
C35   C     C_R   0.106303 0.508814 0.623633 0.082812
C36   C     C_R   0.149059 0.608776 0.624605 0.109805
C37   C     C_3   0.130485 0.704822 0.661913 -0.579679
C38   C     C_3   0.112164 0.700600 0.554522 0.197067
C39   C     C_R   0.841837 0.873002 0.945677 0.228879
C40   C     C_R   0.005718 0.409696 0.700002 -0.138889
C41   C     C_R   0.897773 0.829182 0.902999 0.024935
C42   C     C_R   0.924147 0.859269 0.831343 -0.183692
C43   C     C_R   0.922775 0.952203 0.828847 -0.197268
C44   C     C_R   0.893720 0.013567 0.896996 0.018715
C45   C     C_R   0.066947 0.593349 0.313749 -0.048314
C46   C     C_R   0.839391 0.963752 0.942123 0.159395
C47   C     C_3   0.847737 0.011497 0.052448 -0.539867
C48   C     C_3   0.851303 0.913053 0.057041 -0.513071
C49   C     C_R   0.791920 0.592172 0.096679 -0.028529
C50   C     C_R   0.685515 0.249016 0.775733 -0.109253
C51   C     C_R   0.025009 0.749686 0.934651 -0.124591
C52   C     C_R   0.946828 0.773937 0.948966 0.081408
C53   C     C_R   0.222938 0.408080 0.976156 -0.134472
C54   C     C_R   0.298779 0.804246 0.207412 -0.155677
C55   C     C_R   0.904719 0.195689 0.995034 -0.160364
C56   C     C_R   0.997280 0.194754 0.905366 -0.136884
H1    H     H_    0.871075 0.746397 0.048685 0.134176
H2    H     H_    0.803517 0.250888 0.625117 0.113075
H3    H     H_    0.350103 0.404716 0.882822 0.140818
H4    H     H_    0.513715 0.325807 0.017900 0.150177
H5    H     H_    0.363231 0.325827 0.015440 0.151866
H6    H     H_    0.687163 0.625962 0.243200 0.185066
H7    H     H_    0.678625 0.684905 0.155832 0.180215
H8    H     H_    0.529903 0.684353 0.149894 0.162704
H9    H     H_    0.533651 0.627890 0.239364 0.165380
H10   H     H_    0.592691 0.418927 0.163769 0.195586
H11   H     H_    0.438810 0.419899 0.161056 0.173703
H12   H     H_    0.202383 0.322537 0.939001 0.093744
H13   H     H_    0.469799 0.178605 0.637558 0.129928
H14   H     H_    0.162004 0.676952 0.831887 0.104333
H15   H     H_    0.304163 0.019022 0.473766 0.129426
H16   H     H_    0.523821 0.903556 0.336463 0.201165
H17   H     H_    0.536445 0.980970 0.260386 0.192687
H18   H     H_    0.684693 0.055929 0.496242 0.201019
H19   H     H_    0.699029 0.134427 0.421303 0.196623
H20   H     H_    0.045927 0.335025 0.367654 0.120149
H21   H     H_    0.055742 0.334701 0.534033 0.120719
H22   H     H_    0.056678 0.685078 0.670939 0.233956
H23   H     H_    0.345572 0.832423 0.171209 0.101923
H24   H     H_    0.205956 0.780982 0.734269 0.166979
H25   H     H_    0.641535 0.323061 0.969867 0.082713
H26   H     H_    0.174862 0.776274 0.565865 0.082161
H27   H     H_    0.959566 0.821626 0.789170 0.143269
H28   H     H_    0.957201 0.982589 0.784860 0.134512
H29   H     H_    0.925444 0.090489 0.116196 0.201055
H30   H     H_    0.772258 0.012335 0.047021 0.200676
H31   H     H_    0.931401 0.937361 0.123492 0.191609
H32   H     H_    0.778323 0.857802 0.055218 0.230073
H33   H     H_    0.982188 0.325396 0.646864 0.085869
H34   H     H_    0.840489 0.167502 0.013653 0.105910
H35   H     H_    0.823684 0.677583 0.154822 0.085712
H36   H     H_    0.621255 0.237051 0.795910 0.090392
H37   H     H_    0.057015 0.760820 0.881745 0.096148
H38   H     H_    0.123813 0.679081 0.375632 0.096299
H39   H     H_    0.937464 0.322890 0.203222 0.093395
H40   H     H_    0.020460 0.165626 0.844765 0.087026
H41   H     H_    0.179072 0.835398 0.353288 0.098931
H42   H     H_    0.376300 0.679266 0.117563 0.095571
H43   H     H_    0.499473 0.401976 0.887773 0.092506
H44   H     H_    0.415118 0.551038 0.938524 0.204878
N1    N     N_R   0.995640 0.706130 0.053910 -0.046940
N2    N     N_R   0.054010 0.556790 0.847890 -0.037020
N3    N     N_R   0.789940 0.443190 0.997130 -0.033849
N4    N     N_R   0.997630 0.443170 0.791110 -0.037684
N5    N     N_R   0.846320 0.556810 0.053910 -0.040924
N6    N     N_R   0.791080 0.293860 0.847890 -0.042222
N7    N     N_R   0.052880 0.706130 0.997130 -0.041853
N8    N     N_R   0.002370 0.556830 0.208890 -0.043819
N9    N     N_R   0.153680 0.443190 0.946090 -0.038369
N10   N     N_R   0.208920 0.706140 0.152110 -0.038741
N11   N     N_R   0.947120 0.293870 0.002870 -0.041350
N12   N     N_R   0.004360 0.293870 0.946090 -0.038887
N13   N     N_R   0.151690 0.706140 0.208890 -0.044008
N14   N     N_R   0.945990 0.443210 0.152110 -0.045018
N15   N     N_R   0.210060 0.556810 0.002870 -0.038245
N16   N     N_R   0.848310 0.293860 0.791110 -0.042047
Ni1   Ni    Ni4+2 0.999010 0.630300 0.130220 0.228118
Ni2   Ni    Ni4+2 0.000990 0.369700 0.869780 0.209578
Ni3   Ni    Ni4+2 0.130280 0.630280 0.000000 0.208966
Ni4   Ni    Ni4+2 0.869720 0.369720 0.000000 0.216291

loop_
_geom_bond_atom_site_label_1
_geom_bond_atom_site_label_2
_ccdc_geom_bond_type
C8    C25   S    
C14   C19   S    
C55   H34   S    
C19   H8    S    
C51   H37   S    
C38   H26   S    
C2    N13   A    
C17   C18   S    
C56   H40   S    
N2    N4    A    
C54   H23   S    
C43   C44   A    
N3    N5    A    
C24   C25   A    
N14   Ni4   S    
C26   C27   S    
C17   C19   S    
C22   C24   A    
C40   H33   S    
C36   C37   S    
C1    C52   A    
C1    N1    A    
C24   H15   S    
C5    C7    A    
C32   C33   A    
C28   H25   S    
C47   H29   S    
N15   Ni3   S    
C41   C52   S    
C23   C35   S    
C7    C17   S    
C12   C50   A    
N11   Ni4   S    
C14   C15   S    
C10   C15   S    
C21   C22   A    
C50   H36   S    
C7    C53   A    
C15   C34   S    
C30   C36   A    
C9    C56   A    
C8    C54   A    
C53   N9    A    
N1    N7    A    
C20   C26   A    
C19   H9    S    
C39   C41   A    
C47   H30   S    
Br1   C10   S    
C3    N14   A    
N12   Ni2   S    
N5    Ni1   S    
C48   H32   S    
C29   H19   S    
C16   H14   S    
C13   C18   S    
C44   C46   A    
C5    H42   S    
C11   C17   S    
C4    H2    S    
C20   C29   S    
C37   C38   S    
C55   N11   A    
C27   H16   S    
C51   C52   A    
N9    Ni2   S    
C12   C21   S    
C23   C40   A    
C41   C42   A    
C35   C36   A    
N6    N16   A    
C4    C12   A    
C48   H31   S    
C45   H38   S    
C31   C32   A    
C16   N2    A    
C40   N4    A    
C34   C49   A    
C49   H35   S    
C27   H17   S    
C46   C47   S    
C3    H39   S    
N13   Ni1   S    
C28   N3    A    
C39   C46   A    
C18   H11   S    
C2    C8    A    
C42   H27   S    
N8    N14   A    
C39   C48   S    
C42   C43   A    
C33   C35   A    
N11   N12   A    
C51   N7    A    
C13   C15   S    
N4    Ni2   S    
N1    Ni1   S    
C37   H24   S    
N6    Ni4   S    
N8    Ni1   S    
C3    C6    A    
N2    Ni3   S    
C45   N8    A    
C5    N15   A    
C28   C34   A    
N9    N15   A    
C37   H22   S    
C18   H5    S    
C43   H28   S    
C6    C45   A    
N10   Ni3   S    
C27   C29   S    
C16   C23   A    
C30   C31   A    
N7    Ni3   S    
C29   H18   S    
C13   H10   S    
C33   H21   S    
C13   H4    S    
C4    N16   A    
N3    Ni4   S    
C6    C31   S    
C30   C38   S    
N16   Ni2   S    
C53   H12   S    
Br2   C38   S    
C10   H43   S    
C11   H3    S    
C10   C11   S    
C50   N6    A    
C49   N5    A    
C47   C48   S    
C2    H41   S    
C25   C26   A    
C56   N12   A    
C20   C21   A    
C9    C44   S    
C14   H7    S    
C14   H6    S    
C11   H44   S    
C9    C55   A    
C54   N10   A    
N10   N13   A    
C32   H20   S    
C22   H13   S    
C1    H1    S    
