data_mof_unit_34026.cif
_audit_creation_date              2012-12-11T21:06:07-0500
_audit_creation_method            fapswitch 2.2
_symmetry_space_group_name_H-M    P1
_symmetry_Int_Tables_number       1
_space_group_crystal_system       triclinic
_cell_length_a                    36.610659
_cell_length_b                    39.339505
_cell_length_c                    8.42734
_cell_angle_alpha                 89.92434
_cell_angle_beta                  93.918335
_cell_angle_gamma                 90.027262
_cell_volume                      12109.0528327

loop_
_atom_site_label
_atom_site_type_symbol
_atom_type_description
_atom_site_fract_x
_atom_site_fract_y
_atom_site_fract_z
_atom_type_partial_charge
Ba1   Ba    Ba6+2 0.000060 0.523150 0.844950 1.655717
Ba2   Ba    Ba6+2 0.000060 0.476850 0.344950 1.686468
Ba3   Ba    Ba6+2 0.500060 0.023150 0.844950 1.655631
Ba4   Ba    Ba6+2 0.500060 0.976850 0.344950 1.686435
C1    C     C_3   0.987160 0.689871 0.649196 -0.325988
C2    C     C_3   0.029507 0.300470 0.129314 -0.375922
C3    C     C_3   0.487202 0.189906 0.649085 -0.326428
C4    C     C_3   0.529494 0.800471 0.129280 -0.375918
C5    C     C_R   0.841985 0.323959 0.853689 0.618994
C6    C     C_R   0.857478 0.685575 0.410049 0.611012
C7    C     C_R   0.341975 0.823964 0.853676 0.618997
C8    C     C_R   0.357453 0.185560 0.409978 0.611026
C9    C     C_2   0.913284 0.361138 0.823754 0.185870
C10   C     C_2   0.898178 0.627938 0.269440 0.175853
C11   C     C_2   0.413278 0.861140 0.823744 0.185874
C12   C     C_2   0.398161 0.127926 0.269381 0.175696
C13   C     C_3   0.945659 0.384490 0.788470 -0.137798
C14   C     C_3   0.935912 0.611623 0.260261 -0.105217
C15   C     C_3   0.445655 0.884490 0.788468 -0.137795
C16   C     C_3   0.435898 0.111617 0.260223 -0.105656
C17   C     C_1   0.919073 0.425463 0.970788 0.020966
C18   C     C_1   0.920576 0.576794 0.486857 0.046373
C19   C     C_1   0.419072 0.925463 0.970793 0.020962
C20   C     C_1   0.420568 0.076791 0.486836 0.046363
C21   C     C_2   0.888139 0.408103 0.973337 -0.135911
C22   C     C_2   0.898094 0.601028 0.531852 -0.131320
C23   C     C_2   0.388137 0.908104 0.973345 -0.135900
C24   C     C_2   0.398076 0.101019 0.531801 -0.131439
C25   C     C_2   0.885463 0.372306 0.912162 0.213473
C26   C     C_2   0.883121 0.627175 0.413610 0.199070
C27   C     C_2   0.385458 0.872308 0.912159 0.213459
C28   C     C_2   0.383100 0.127163 0.413543 0.199130
C29   C     C_R   0.805540 0.300251 0.055138 -0.101114
C30   C     C_R   0.800145 0.698937 0.526263 -0.101779
C31   C     C_R   0.305527 0.800258 0.055115 -0.101115
C32   C     C_R   0.300119 0.198920 0.526180 -0.101785
C33   C     C_R   0.811843 0.330170 0.143421 -0.064216
C34   C     C_R   0.801464 0.666474 0.596148 -0.053759
C35   C     C_R   0.311830 0.830177 0.143398 -0.064209
C36   C     C_R   0.301437 0.166457 0.596059 -0.053766
C37   C     C_R   0.791276 0.336116 0.275232 -0.064142
C38   C     C_R   0.779007 0.659587 0.719750 -0.093428
C39   C     C_R   0.291260 0.836124 0.275202 -0.064148
C40   C     C_R   0.278980 0.159569 0.719660 -0.093428
C41   C     C_R   0.823146 0.295611 0.913340 -0.046418
C42   C     C_R   0.827834 0.708489 0.425751 -0.047024
C43   C     C_R   0.323134 0.795617 0.913321 -0.046421
C44   C     C_R   0.327808 0.208473 0.425672 -0.046989
C45   C     C_3   0.989920 0.661477 0.089116 0.566932
C46   C     C_3   0.983583 0.332999 0.538329 0.524382
C47   C     C_3   0.489996 0.161421 0.089494 0.566419
C48   C     C_3   0.483585 0.833001 0.538337 0.524392
C49   C     C_2   0.946207 0.417075 0.882383 -0.249172
C50   C     C_2   0.940864 0.580588 0.364054 -0.304784
C51   C     C_2   0.446205 0.917074 0.882389 -0.249184
C52   C     C_2   0.440859 0.080588 0.364044 -0.304881
C53   C     C_2   0.060247 0.581749 0.314427 -0.277196
C54   C     C_2   0.057926 0.421458 0.818249 -0.241894
C55   C     C_2   0.560253 0.081748 0.314423 -0.277306
C56   C     C_2   0.557925 0.921456 0.818244 -0.241917
C57   C     C_R   0.228282 0.759585 0.251417 0.035513
C58   C     C_R   0.221041 0.239618 0.721505 0.028637
C59   C     C_R   0.728301 0.259574 0.251464 0.035510
C60   C     C_R   0.721063 0.739631 0.721570 0.028636
C61   C     C_R   0.261962 0.715378 0.115869 0.003988
C62   C     C_R   0.236030 0.273694 0.487539 0.003678
C63   C     C_R   0.761978 0.215369 0.115885 0.003990
C64   C     C_R   0.736052 0.773707 0.487602 0.003677
C65   C     C_R   0.232171 0.725174 0.204363 0.028723
C66   C     C_R   0.215478 0.268985 0.622789 0.032522
C67   C     C_R   0.732190 0.225163 0.204396 0.028725
C68   C     C_R   0.715499 0.768998 0.622848 0.032521
C69   C     C_R   0.195054 0.769304 0.313491 -0.089739
C70   C     C_R   0.196824 0.235258 0.844268 -0.103708
C71   C     C_R   0.695076 0.269292 0.313561 -0.089743
C72   C     C_R   0.696846 0.735271 0.844327 -0.103708
C73   C     C_R   0.167516 0.745589 0.335728 -0.078582
C74   C     C_R   0.173696 0.261162 0.887622 -0.108288
C75   C     C_R   0.667540 0.245575 0.335815 -0.078582
C76   C     C_R   0.673715 0.761173 0.887675 -0.108283
C77   C     C_R   0.172731 0.710956 0.303565 -0.014757
C78   C     C_R   0.170115 0.291016 0.798256 -0.020932
C79   C     C_R   0.672754 0.210943 0.303634 -0.014766
C80   C     C_R   0.670131 0.791026 0.798302 -0.020932
C81   C     C_R   0.205790 0.700588 0.244138 -0.086231
C82   C     C_R   0.188331 0.293479 0.657761 -0.077149
C83   C     C_R   0.705809 0.200576 0.244174 -0.086232
C84   C     C_R   0.688348 0.793489 0.657810 -0.077150
C85   C     C_R   0.212570 0.665758 0.225984 -0.055459
C86   C     C_R   0.178755 0.319992 0.551463 -0.066554
C87   C     C_R   0.712586 0.165747 0.225989 -0.055470
C88   C     C_R   0.678770 0.820000 0.551505 -0.066551
C89   C     C_3   0.970948 0.695637 0.114961 -0.344416
C90   C     C_3   0.968456 0.298727 0.474783 -0.332790
C91   C     C_3   0.470959 0.195505 0.116356 -0.345133
C92   C     C_3   0.468463 0.798727 0.474798 -0.332781
C93   C     C_R   0.186436 0.641737 0.273262 0.591025
C94   C     C_R   0.150965 0.343330 0.587136 0.587984
C95   C     C_R   0.686452 0.141725 0.273259 0.591029
C96   C     C_R   0.650977 0.843335 0.587167 0.587983
C97   C     C_R   0.144973 0.686710 0.323623 0.567322
C98   C     C_R   0.147714 0.317973 0.843854 0.563864
C99   C     C_R   0.644996 0.186698 0.323707 0.567338
C100  C     C_R   0.647727 0.817981 0.843890 0.563871
C101  C     C_2   0.097983 0.630344 0.427489 -0.092130
C102  C     C_2   0.082688 0.362695 0.866413 -0.104436
C103  C     C_2   0.598002 0.130331 0.427533 -0.092107
C104  C     C_2   0.582695 0.862696 0.866429 -0.104423
C105  C     C_3   0.061467 0.612858 0.418391 -0.093876
C106  C     C_3   0.053276 0.388155 0.899004 -0.109289
C107  C     C_3   0.561483 0.112853 0.418409 -0.093353
C108  C     C_3   0.553279 0.888153 0.899008 -0.109286
C109  C     C_1   0.084374 0.577169 0.204814 0.040569
C110  C     C_1   0.084441 0.426444 0.721987 0.001757
C111  C     C_1   0.584380 0.077168 0.204813 0.040634
C112  C     C_1   0.584441 0.926445 0.721989 0.001768
C113  C     C_2   0.111810 0.599982 0.182892 -0.019415
C114  C     C_2   0.114469 0.406911 0.722774 0.022419
C115  C     C_2   0.611818 0.099979 0.182900 -0.019400
C116  C     C_2   0.614472 0.906914 0.722784 0.022419
C117  C     C_2   0.120961 0.627313 0.309788 0.213767
C118  C     C_2   0.111426 0.370438 0.779103 0.227909
C119  C     C_2   0.620977 0.127304 0.309820 0.213668
C120  C     C_2   0.611432 0.870441 0.779121 0.227894
C121  C     C_R   0.757049 0.283152 0.226478 0.001743
C122  C     C_R   0.748779 0.715154 0.687649 0.012416
C123  C     C_R   0.257031 0.783162 0.226438 0.001746
C124  C     C_R   0.248755 0.215139 0.687574 0.012418
C125  C     C_R   0.781527 0.275036 0.108988 0.018944
C126  C     C_R   0.771583 0.722042 0.560667 0.015934
C127  C     C_R   0.281511 0.775045 0.108960 0.018943
C128  C     C_R   0.271558 0.222026 0.560591 0.015933
C129  C     C_R   0.781757 0.241970 0.043455 0.005871
C130  C     C_R   0.767370 0.752611 0.472534 0.003321
C131  C     C_R   0.281742 0.741978 0.043435 0.005870
C132  C     C_R   0.267346 0.252596 0.472464 0.003323
C133  C     C_3   0.894375 0.521180 0.159002 0.307944
C134  C     C_3   0.893688 0.478604 0.648934 0.301109
C135  C     C_3   0.394375 0.021186 0.158946 0.307941
C136  C     C_3   0.393689 0.978604 0.648948 0.301126
C137  C     C_R   0.762665 0.314148 0.312408 0.155723
C138  C     C_R   0.756478 0.684769 0.778397 0.176905
C139  C     C_R   0.262648 0.814157 0.312370 0.155723
C140  C     C_R   0.256452 0.184751 0.778312 0.176907
C141  C     C_R   0.820299 0.263388 0.836416 0.069270
C142  C     C_R   0.825686 0.741190 0.353124 0.064159
C143  C     C_R   0.320285 0.763394 0.836397 0.069267
C144  C     C_R   0.325661 0.241174 0.353047 0.064159
C145  C     C_R   0.270110 0.679810 0.106590 0.051430
C146  C     C_R   0.223329 0.298725 0.371945 0.043001
C147  C     C_R   0.770124 0.179800 0.106582 0.051430
C148  C     C_R   0.723350 0.798736 0.372002 0.043005
C149  C     C_R   0.245527 0.655799 0.164207 -0.072122
C150  C     C_R   0.195580 0.321578 0.407832 -0.052794
C151  C     C_R   0.745541 0.155788 0.164190 -0.072123
C152  C     C_R   0.695597 0.821587 0.407878 -0.052798
C153  C     C_R   0.799757 0.237350 0.902835 -0.109530
C154  C     C_R   0.796299 0.762617 0.381650 -0.117657
C155  C     C_R   0.299744 0.737356 0.902819 -0.109529
C156  C     C_R   0.296275 0.262602 0.381578 -0.117658
C157  C     C_3   0.858761 0.540278 0.175499 -0.364830
C158  C     C_3   0.860658 0.455372 0.620607 -0.339995
C159  C     C_3   0.358757 0.040268 0.175562 -0.364895
C160  C     C_3   0.360660 0.955371 0.620611 -0.339980
C161  C     C_3   0.106601 0.477990 0.045357 0.308517
C162  C     C_3   0.102885 0.523977 0.547047 0.295334
C163  C     C_3   0.606598 0.977988 0.045366 0.308524
C164  C     C_3   0.602888 0.023978 0.547074 0.295333
C165  C     C_3   0.138502 0.454445 0.091369 -0.346365
C166  C     C_3   0.136561 0.546685 0.561027 -0.349681
C167  C     C_3   0.638499 0.954443 0.091384 -0.346357
C168  C     C_3   0.636567 0.046682 0.561056 -0.349710
C169  C     C_3   0.005049 0.658485 0.583547 0.352418
C170  C     C_3   0.013622 0.336352 0.123836 0.359552
C171  C     C_3   0.504875 0.158375 0.583754 0.352913
C172  C     C_3   0.513614 0.836355 0.123823 0.359545
C173  C     C_R   0.839783 0.352727 0.101469 0.594927
C174  C     C_R   0.826876 0.642154 0.548145 0.583230
C175  C     C_R   0.339773 0.852732 0.101454 0.594929
C176  C     C_R   0.326850 0.142138 0.548054 0.583247
H1    H     H_    0.982976 0.640643 0.539827 -0.010142
H2    H     H_    0.986250 0.335897 0.172391 0.070626
H3    H     H_    0.482697 0.140508 0.541469 -0.009042
H4    H     H_    0.486243 0.835902 0.172390 0.070637
H5    H     H_    0.839937 0.524649 0.243463 0.137585
H6    H     H_    0.836803 0.466161 0.677776 0.109791
H7    H     H_    0.339957 0.024634 0.243631 0.137646
H8    H     H_    0.336803 0.966159 0.677763 0.109782
H9    H     H_    0.864088 0.564434 0.239895 0.054985
H10   H     H_    0.866761 0.429841 0.671282 0.075546
H11   H     H_    0.364083 0.064430 0.239904 0.055025
H12   H     H_    0.366762 0.929841 0.671295 0.075538
H13   H     H_    0.845437 0.545867 0.055995 0.124681
H14   H     H_    0.853651 0.452650 0.490889 0.153528
H15   H     H_    0.345404 0.045845 0.056098 0.124625
H16   H     H_    0.353656 0.952647 0.490891 0.153545
H17   H     H_    0.103772 0.480716 0.914694 -0.003503
H18   H     H_    0.093160 0.521574 0.420715 0.009523
H19   H     H_    0.603768 0.980711 0.914703 -0.003530
H20   H     H_    0.593159 0.021580 0.420744 0.009500
H21   H     H_    0.081288 0.466936 0.089125 0.068720
H22   H     H_    0.081251 0.535404 0.615742 0.088799
H23   H     H_    0.581286 0.966935 0.089142 0.068728
H24   H     H_    0.581257 0.035404 0.615792 0.088812
H25   H     H_    0.164070 0.464546 0.045385 0.102517
H26   H     H_    0.158009 0.536388 0.487365 0.133907
H27   H     H_    0.664068 0.964544 0.045402 0.102519
H28   H     H_    0.658010 0.036387 0.487362 0.133921
H29   H     H_    0.132970 0.428846 0.041098 0.087733
H30   H     H_    0.129538 0.572608 0.519943 0.075989
H31   H     H_    0.632968 0.928844 0.041114 0.087737
H32   H     H_    0.629546 0.072607 0.520012 0.075962
H33   H     H_    0.142291 0.452284 0.222934 0.150901
H34   H     H_    0.147519 0.548081 0.687070 0.119540
H35   H     H_    0.642287 0.952283 0.222949 0.150904
H36   H     H_    0.647530 0.048069 0.687094 0.119536
H37   H     H_    0.020857 0.666922 0.482695 -0.027719
H38   H     H_    0.009117 0.344122 0.997359 -0.103866
H39   H     H_    0.520477 0.166628 0.481949 -0.028894
H40   H     H_    0.509107 0.844128 0.997350 -0.103861
H41   H     H_    0.972140 0.703910 0.550632 0.074824
H42   H     H_    0.054541 0.299153 0.063132 0.124456
H43   H     H_    0.471968 0.203796 0.550626 0.075045
H44   H     H_    0.554519 0.799149 0.063040 0.124391
H45   H     H_    0.967272 0.682419 0.736231 0.149753
H46   H     H_    0.009207 0.282127 0.075839 0.053172
H47   H     H_    0.467542 0.182648 0.737415 0.149936
H48   H     H_    0.509186 0.782130 0.075855 0.053177
H49   H     H_    0.985225 0.709900 0.214487 0.071994
H50   H     H_    0.973891 0.278412 0.564978 0.062761
H51   H     H_    0.485290 0.209719 0.215902 0.072094
H52   H     H_    0.473903 0.778413 0.564995 0.062761
H53   H     H_    0.863684 0.420749 0.009286 0.110479
H54   H     H_    0.891398 0.602595 0.654844 0.150913
H55   H     H_    0.363682 0.920751 0.009292 0.110492
H56   H     H_    0.391369 0.102583 0.654779 0.150937
H57   H     H_    0.796939 0.358358 0.348386 0.135712
H58   H     H_    0.782166 0.635767 0.784052 0.109449
H59   H     H_    0.296924 0.858366 0.348357 0.135707
H60   H     H_    0.282139 0.135750 0.783960 0.109448
H61   H     H_    0.103881 0.648238 0.523804 0.120344
H62   H     H_    0.078048 0.336915 0.902755 0.103852
H63   H     H_    0.603905 0.148219 0.523869 0.120461
H64   H     H_    0.578058 0.836916 0.902781 0.103863
H65   H     H_    0.142068 0.754543 0.379225 0.118574
H66   H     H_    0.157446 0.257171 0.988844 0.113283
H67   H     H_    0.642094 0.254529 0.379333 0.118588
H68   H     H_    0.657465 0.757181 0.988895 0.113288
H69   H     H_    0.188648 0.795560 0.334721 0.106796
H70   H     H_    0.194178 0.212051 0.909020 0.123690
H71   H     H_    0.688669 0.295547 0.334799 0.106804
H72   H     H_    0.694200 0.712063 0.909079 0.123690
H73   H     H_    0.008264 0.706873 0.707425 0.123958
H74   H     H_    0.037040 0.292714 0.253580 0.141502
H75   H     H_    0.508458 0.206974 0.705701 0.123889
H76   H     H_    0.537040 0.792717 0.253538 0.141513
H77   H     H_    0.252118 0.628988 0.158908 0.117464
H78   H     H_    0.186240 0.340271 0.319540 0.143080
H79   H     H_    0.752131 0.128978 0.158870 0.117468
H80   H     H_    0.686256 0.840278 0.319582 0.143079
H81   H     H_    0.797118 0.213573 0.839868 0.084572
H82   H     H_    0.796953 0.788033 0.334779 0.087612
H83   H     H_    0.297104 0.713578 0.839859 0.084568
H84   H     H_    0.296930 0.288017 0.334709 0.087615
H85   H     H_    0.969514 0.433766 0.872277 0.078668
H86   H     H_    0.966174 0.566439 0.358434 0.078686
H87   H     H_    0.469515 0.933763 0.872291 0.078667
H88   H     H_    0.466176 0.066448 0.358457 0.078708
H89   H     H_    0.034967 0.567331 0.312093 0.074627
H90   H     H_    0.040965 0.442130 0.856091 0.062799
H91   H     H_    0.534966 0.067341 0.312053 0.074618
H92   H     H_    0.540961 0.942127 0.856074 0.062806
H93   H     H_    0.993800 0.648727 0.207289 -0.119834
H94   H     H_    0.979172 0.334221 0.666588 -0.061133
H95   H     H_    0.493996 0.148550 0.207335 -0.119343
H96   H     H_    0.479174 0.834223 0.666597 -0.061150
H97   H     H_    0.970200 0.711284 0.005032 0.105657
H98   H     H_    0.980883 0.291349 0.364109 0.097083
H99   H     H_    0.470053 0.211248 0.006701 0.105937
H100  H     H_    0.480890 0.791351 0.364123 0.097088
H101  H     H_    0.942565 0.691397 0.148064 0.125105
H102  H     H_    0.938474 0.300125 0.445731 0.100535
H103  H     H_    0.442634 0.191155 0.149952 0.125465
H104  H     H_    0.438480 0.800120 0.445753 0.100524
H105  H     H_    0.906995 0.515975 0.279335 0.023532
H106  H     H_    0.899246 0.482237 0.778206 0.011228
H107  H     H_    0.407025 0.015994 0.279243 0.023505
H108  H     H_    0.399242 0.982240 0.778221 0.011215
H109  H     H_    0.913114 0.536949 0.091735 0.062958
H110  H     H_    0.917667 0.466511 0.598395 0.069522
H111  H     H_    0.413089 0.036961 0.091572 0.062921
H112  H     H_    0.417671 0.966511 0.598432 0.069508
N1    N     N_R   0.855315 0.349621 0.955725 -0.418075
N2    N     N_R   0.854906 0.651686 0.454932 -0.416569
N3    N     N_R   0.355307 0.849624 0.955715 -0.418078
N4    N     N_R   0.354881 0.151671 0.454850 -0.416550
N5    N     N_R   0.151234 0.652041 0.302201 -0.418807
N6    N     N_R   0.137321 0.343806 0.737064 -0.426124
N7    N     N_R   0.651253 0.152030 0.302240 -0.418792
N8    N     N_R   0.637332 0.843811 0.737092 -0.426127
O1    O     O_2   0.072110 0.546320 0.923350 -0.466480
O2    O     O_2   0.072110 0.453680 0.423350 -0.441052
O3    O     O_2   0.572110 0.046320 0.923350 -0.466488
O4    O     O_2   0.572110 0.953680 0.423350 -0.441048
O5    O     O_3   0.885554 0.509931 0.576438 -0.626120
O6    O     O_3   0.886298 0.490972 0.077143 -0.636787
O7    O     O_3   0.385556 0.009929 0.576432 -0.626108
O8    O     O_3   0.386297 0.990970 0.077149 -0.636788
O9    O     O_3   0.968096 0.642842 0.974492 -0.586198
O10   O     O_3   0.965149 0.359110 0.449210 -0.573887
O11   O     O_3   0.468149 0.142848 0.974720 -0.586197
O12   O     O_3   0.465145 0.859110 0.449218 -0.573896
O13   O     O_3   0.958050 0.483830 0.034350 -0.496165
O14   O     O_3   0.958050 0.516170 0.534350 -0.498132
O15   O     O_3   0.458050 0.983830 0.034350 -0.496178
O16   O     O_3   0.458050 0.016170 0.534350 -0.498089
O17   O     O_2   0.850280 0.374769 0.195723 -0.578658
O18   O     O_2   0.824042 0.612606 0.590343 -0.602678
O19   O     O_2   0.350270 0.874773 0.195712 -0.578659
O20   O     O_2   0.324016 0.112589 0.590244 -0.602681
O21   O     O_2   0.115099 0.696750 0.359209 -0.632275
O22   O     O_2   0.138107 0.318611 0.979825 -0.605289
O23   O     O_2   0.615128 0.196738 0.359352 -0.632262
O24   O     O_2   0.638119 0.818619 0.979860 -0.605269
O25   O     O_2   0.845153 0.326531 0.710956 -0.594207
O26   O     O_2   0.886187 0.696004 0.362953 -0.617298
O27   O     O_2   0.345145 0.826536 0.710944 -0.594191
O28   O     O_2   0.386164 0.195991 0.362910 -0.617434
O29   O     O_2   0.195159 0.611940 0.290262 -0.609058
O30   O     O_2   0.139156 0.363281 0.484909 -0.572573
O31   O     O_2   0.695173 0.111926 0.290213 -0.609051
O32   O     O_2   0.639166 0.863285 0.484933 -0.572574
O33   O     O_3   0.042000 0.516250 0.155330 -0.491538
O34   O     O_3   0.042000 0.483750 0.655330 -0.494007
O35   O     O_3   0.542000 0.016250 0.155330 -0.491530
O36   O     O_3   0.542000 0.983750 0.655330 -0.494002
O37   O     O_3   0.012540 0.574900 0.645500 -0.459603
O38   O     O_3   0.012540 0.425100 0.145500 -0.469188
O39   O     O_3   0.512540 0.074900 0.645500 -0.459829
O40   O     O_3   0.512540 0.925100 0.145500 -0.469192
O41   O     O_2   0.078218 0.596123 0.737942 -0.507274
O42   O     O_2   0.082064 0.408085 0.206291 -0.453566
O43   O     O_2   0.578216 0.096132 0.737967 -0.507260
O44   O     O_2   0.582063 0.908082 0.206305 -0.453561
O45   O     O_3   0.114511 0.509636 0.113097 -0.635869
O46   O     O_3   0.113117 0.492180 0.607771 -0.647649
O47   O     O_3   0.614510 0.009635 0.113091 -0.635862
O48   O     O_3   0.613118 0.992178 0.607768 -0.647650
O49   O     O_3   0.028560 0.643255 0.702481 -0.559885
O50   O     O_3   0.036553 0.357938 0.219953 -0.536069
O51   O     O_3   0.528573 0.143270 0.702370 -0.560177
O52   O     O_3   0.536549 0.857937 0.219942 -0.536073
O53   O     O_2   0.928110 0.546600 0.766510 -0.445549
O54   O     O_2   0.928110 0.453400 0.266510 -0.437016
O55   O     O_2   0.428110 0.046600 0.766510 -0.445630
O56   O     O_2   0.428110 0.953400 0.266510 -0.436981
O57   O     O_3   0.987780 0.574950 0.044470 -0.464348
O58   O     O_3   0.987780 0.425050 0.544470 -0.464472
O59   O     O_3   0.487780 0.074950 0.044470 -0.464291
O60   O     O_3   0.487780 0.925050 0.544470 -0.464476
O61   O     O_2   0.920269 0.594522 0.941613 -0.489848
O62   O     O_2   0.918725 0.407670 0.484704 -0.451914
O63   O     O_2   0.420289 0.094562 0.941420 -0.489838
O64   O     O_2   0.418724 0.907672 0.484702 -0.451912
P1    P     P_3+3 0.075650 0.535480 0.098240 0.977268
P2    P     P_3+3 0.075650 0.464520 0.598240 0.990615
P3    P     P_3+3 0.575650 0.035480 0.098240 0.977305
P4    P     P_3+3 0.575650 0.964520 0.598240 0.990627
P5    P     P_3+3 0.924520 0.535770 0.591580 1.001279
P6    P     P_3+3 0.924520 0.464230 0.091580 1.005813
P7    P     P_3+3 0.424520 0.035770 0.591580 1.001286
P8    P     P_3+3 0.424520 0.964230 0.091580 1.005823
P9    P     P_3+3 0.952725 0.605090 0.057203 0.950900
P10   P     P_3+3 0.954216 0.393495 0.570491 0.968284
P11   P     P_3+3 0.452727 0.105092 0.057189 0.950903
P12   P     P_3+3 0.454214 0.893497 0.570492 0.968279
P13   P     P_3+3 0.046698 0.394861 0.116299 1.014167
P14   P     P_3+3 0.045533 0.605911 0.622751 0.937265
P15   P     P_3+3 0.546698 0.894861 0.116300 1.014156
P16   P     P_3+3 0.545534 0.105911 0.622738 0.937047
N9    N     N_2   0.744033 0.320630 0.452131 -0.434996
H113  H     H_    0.759934 0.316017 0.555639 0.213507
C177  C     C_3   0.724834 0.352770 0.455377 -0.259411
H114  H     H_    0.706758 0.352718 0.555900 0.116758
H115  H     H_    0.707551 0.356603 0.343163 0.113799
H116  H     H_    0.744478 0.374174 0.472709 0.112254
N10   N     N_2   0.745654 0.680295 0.936123 -0.443542
H117  H     H_    0.742824 0.655312 0.970727 0.194061
C178  C     C_3   0.766451 0.700259 0.055040 -0.262499
H118  H     H_    0.753870 0.697994 0.170795 0.119598
H119  H     H_    0.766634 0.727493 0.020647 0.118093
H120  H     H_    0.795107 0.691056 0.069851 0.107582
N11   N     N_2   0.244014 0.820640 0.452088 -0.434994
H121  H     H_    0.259914 0.816027 0.555598 0.213498
C179  C     C_3   0.224815 0.852781 0.455333 -0.259412
H122  H     H_    0.206736 0.852728 0.555846 0.116756
H123  H     H_    0.207535 0.856615 0.343112 0.113798
H124  H     H_    0.244460 0.874184 0.472681 0.112253
N12   N     N_2   0.245627 0.180275 0.936035 -0.443543
H125  H     H_    0.242792 0.155292 0.970622 0.194062
C180  C     C_3   0.266429 0.200233 0.054963 -0.262496
H126  H     H_    0.253849 0.197964 0.170722 0.119595
H127  H     H_    0.266614 0.227468 0.020595 0.118095
H128  H     H_    0.295083 0.191025 0.069756 0.107586
N13   N     N_2   0.915113 0.326167 0.784136 -0.404428
H129  H     H_    0.919196 0.321092 0.667730 0.209745
C181  C     C_3   0.933810 0.304172 0.900487 -0.286174
H130  H     H_    0.925930 0.277405 0.874737 0.107679
H131  H     H_    0.926172 0.310449 0.022456 0.119638
H132  H     H_    0.963731 0.306471 0.893585 0.093670
N14   N     N_2   0.881380 0.646699 0.138517 -0.401632
H133  H     H_    0.898506 0.654035 0.053012 0.212944
C182  C     C_3   0.847127 0.633027 0.070846 -0.229327
H134  H     H_    0.835991 0.650141 0.974784 0.105912
H135  H     H_    0.826788 0.631022 0.162276 0.110527
H136  H     H_    0.851541 0.607671 0.018135 0.134664
N15   N     N_2   0.415103 0.826169 0.784105 -0.404409
H137  H     H_    0.419193 0.821099 0.667700 0.209746
C183  C     C_3   0.433799 0.804172 0.900447 -0.286174
H138  H     H_    0.425926 0.777404 0.874656 0.107676
H139  H     H_    0.426151 0.810440 0.022413 0.119641
H140  H     H_    0.463720 0.806477 0.893585 0.093670
N16   N     N_2   0.381365 0.146688 0.138453 -0.401660
H141  H     H_    0.398496 0.154038 0.052988 0.213003
C184  C     C_3   0.347123 0.133005 0.070721 -0.229256
H142  H     H_    0.335986 0.150119 0.974656 0.105913
H143  H     H_    0.326778 0.130990 0.162120 0.110523
H144  H     H_    0.351552 0.107653 0.018005 0.134649
C185  C     C_3   0.842749 0.253555 0.698672 -0.180971
C186  C     C_3   0.820401 0.256038 0.539819 -0.377546
H145  H     H_    0.794648 0.241148 0.542247 0.122359
H146  H     H_    0.813839 0.282942 0.512967 0.174256
H147  H     H_    0.836583 0.245958 0.443560 0.113385
H148  H     H_    0.867970 0.269046 0.695337 0.149231
H149  H     H_    0.852543 0.226933 0.714942 0.079330
C187  C     C_3   0.851914 0.753851 0.234100 -0.164350
C188  C     C_3   0.883260 0.774262 0.316099 -0.366743
H150  H     H_    0.872376 0.797350 0.372153 0.109877
H151  H     H_    0.898519 0.758916 0.409180 0.171183
H152  H     H_    0.902507 0.782270 0.226875 0.113405
H153  H     H_    0.862394 0.732851 0.162262 0.149937
H154  H     H_    0.837104 0.770621 0.144843 0.075096
C189  C     C_3   0.342733 0.753560 0.698646 -0.180968
C190  C     C_3   0.320384 0.756048 0.539798 -0.377534
H155  H     H_    0.294631 0.741157 0.542223 0.122356
H156  H     H_    0.313822 0.782952 0.512958 0.174256
H157  H     H_    0.336565 0.745969 0.443531 0.113386
H158  H     H_    0.367956 0.769049 0.695313 0.149237
H159  H     H_    0.352525 0.726937 0.714906 0.079327
C191  C     C_3   0.351888 0.253834 0.234018 -0.164352
C192  C     C_3   0.383232 0.274249 0.316008 -0.366718
H160  H     H_    0.372345 0.297337 0.372054 0.109873
H161  H     H_    0.398493 0.258906 0.409094 0.171190
H162  H     H_    0.402478 0.282258 0.226780 0.113414
H163  H     H_    0.362371 0.232833 0.162193 0.149965
H164  H     H_    0.337076 0.270601 0.144751 0.075094
C193  C     C_3   0.306914 0.666077 0.063786 -0.218965
C194  C     C_3   0.303525 0.644052 0.913882 -0.417346
H165  H     H_    0.289526 0.619741 0.938141 0.133954
H166  H     H_    0.287741 0.657187 0.814875 0.133933
H167  H     H_    0.331253 0.638078 0.875944 0.124599
H168  H     H_    0.327480 0.686362 0.051210 0.106780
H169  H     H_    0.318519 0.650155 0.164048 0.107210
C195  C     C_3   0.232303 0.298354 0.198522 -0.215473
C196  C     C_3   0.251920 0.330712 0.149478 -0.428551
H170  H     H_    0.232633 0.352521 0.142214 0.136590
H171  H     H_    0.275188 0.337198 0.235275 0.129390
H172  H     H_    0.262391 0.327026 0.030100 0.127691
H173  H     H_    0.247603 0.275485 0.166088 0.102250
H174  H     H_    0.206192 0.296712 0.124596 0.147302
C197  C     C_3   0.806927 0.166067 0.063761 -0.218962
C198  C     C_3   0.803536 0.144046 0.913844 -0.417341
H175  H     H_    0.789534 0.119736 0.938088 0.133954
H176  H     H_    0.787753 0.157185 0.814843 0.133928
H177  H     H_    0.831263 0.138071 0.875900 0.124598
H178  H     H_    0.827494 0.186352 0.051194 0.106777
H179  H     H_    0.818532 0.150142 0.164011 0.107209
C199  C     C_3   0.732326 0.798367 0.198582 -0.215471
C200  C     C_3   0.751942 0.830726 0.149546 -0.428553
H180  H     H_    0.732654 0.852534 0.142281 0.136590
H181  H     H_    0.775208 0.837213 0.235348 0.129391
H182  H     H_    0.762414 0.827041 0.030170 0.127690
H183  H     H_    0.747628 0.775499 0.166153 0.102247
H184  H     H_    0.706217 0.796723 0.124647 0.147287
C201  C     C_3   0.132992 0.599626 0.032822 -0.177847
C202  C     C_3   0.129926 0.633153 0.940035 -0.360355
H185  H     H_    0.140615 0.629603 0.820947 0.130546
H186  H     H_    0.101035 0.641527 0.924298 0.161510
H187  H     H_    0.146160 0.653695 0.999947 0.101551
H188  H     H_    0.162087 0.593610 0.061185 0.144313
H189  H     H_    0.124395 0.578947 0.951498 0.151162
C203  C     C_3   0.151645 0.423988 0.708454 -0.177485
C204  C     C_3   0.184354 0.406893 0.800121 -0.427111
H190  H     H_    0.206534 0.425866 0.823704 0.120054
H191  H     H_    0.195906 0.386322 0.729488 0.135058
H192  H     H_    0.176807 0.396638 0.916156 0.144251
H193  H     H_    0.157100 0.426458 0.580928 0.151602
H194  H     H_    0.150604 0.450085 0.757282 0.104494
C205  C     C_3   0.632991 0.099633 0.032805 -0.177855
C206  C     C_3   0.629922 0.133167 0.940073 -0.360179
H195  H     H_    0.640591 0.129623 0.820944 0.130548
H196  H     H_    0.601033 0.141551 0.924432 0.161361
H197  H     H_    0.646172 0.153701 0.999974 0.101536
H198  H     H_    0.662087 0.093614 0.061127 0.144296
H199  H     H_    0.624388 0.078958 0.951464 0.151171
C207  C     C_3   0.651646 0.923994 0.708470 -0.177474
C208  C     C_3   0.684357 0.906901 0.800133 -0.427115
H200  H     H_    0.706535 0.925877 0.823727 0.120054
H201  H     H_    0.695913 0.886334 0.729493 0.135059
H202  H     H_    0.676812 0.896644 0.916164 0.144256
H203  H     H_    0.657102 0.926467 0.580945 0.151603
H204  H     H_    0.650603 0.950090 0.757306 0.104500
N17   N     N_2   0.025895 0.666137 0.029478 -0.399265
H205  H     H_    0.038151 0.643131 0.008258 0.219851
C209  C     C_3   0.050719 0.689059 0.116929 -0.257759
H206  H     H_    0.078510 0.686816 0.073268 0.136500
H207  H     H_    0.051905 0.682833 0.245514 0.144678
H208  H     H_    0.041777 0.715784 0.097836 0.122880
N18   N     N_2   0.022746 0.335498 0.522052 -0.381449
H209  H     H_    0.032915 0.359463 0.548157 0.207313
C210  C     C_3   0.045172 0.308897 0.597687 -0.276130
H210  H     H_    0.074524 0.314915 0.588016 0.139382
H211  H     H_    0.039778 0.284173 0.537549 0.111862
H212  H     H_    0.039490 0.306374 0.724873 0.077270
N19   N     N_2   0.525911 0.166233 0.029486 -0.399352
H213  H     H_    0.538208 0.143275 0.007707 0.220103
C211  C     C_3   0.550729 0.189128 0.117131 -0.257752
H214  H     H_    0.578503 0.186967 0.073198 0.136447
H215  H     H_    0.551978 0.182803 0.245623 0.144932
H216  H     H_    0.541730 0.215851 0.098557 0.122994
N20   N     N_2   0.522747 0.835507 0.522053 -0.381436
H217  H     H_    0.532911 0.859473 0.548161 0.207302
C212  C     C_3   0.545178 0.808909 0.597673 -0.276099
H218  H     H_    0.574529 0.814931 0.588000 0.139394
H219  H     H_    0.539789 0.784185 0.537527 0.111862
H220  H     H_    0.539498 0.806382 0.724861 0.077253

loop_
_geom_bond_atom_site_label_1
_geom_bond_atom_site_label_2
_ccdc_geom_bond_type
C153  H81   S    
C83   C87   A    
N14   C182  S    
C29   C41   A    
C184  H142  S    
C162  O46   S    
N20   H217  S    
O56   P8    D    
C149  H77   S    
Ba4   O16   S    
C135  H111  S    
C188  H150  S    
O40   P15   S    
C173  N1    Am   
C14   P9    S    
C92   H104  S    
C6    O26   D    
C144  C191  S    
C165  H25   S    
Ba2   O38   S    
C15   C51   S    
O45   P1    S    
C140  N12   S    
C58   C66   A    
C172  H4    S    
C162  H22   S    
C181  H132  S    
O47   P3    S    
C171  O51   S    
Ba2   P2    S    
C68   C84   A    
C36   C176  A    
C134  O5    S    
C175  N3    Am   
C53   C105  S    
C148  C152  A    
O15   P8    S    
O61   P9    D    
C55   C107  S    
Ba2   O14   S    
C103  C119  D    
O38   P13   S    
C89   H97   S    
C8    C44   A    
C90   H102  S    
C169  O49   S    
C180  H127  S    
C31   C43   A    
C182  H135  S    
Ba2   O33   S    
Ba3   P7    S    
O12   P12   S    
C103  H63   S    
C126  C130  A    
C104  C120  D    
O44   P15   D    
C101  H61   S    
O8    P8    S    
C21   C25   S    
C131  C155  A    
C23   C27   S    
C92   H100  S    
C114  C203  S    
C24   C28   S    
C183  H140  S    
O49   P14   S    
N16   C184  S    
C82   C86   A    
O48   P4    S    
C163  C167  S    
C2    C170  S    
C207  C208  S    
C4    H76   S    
O7    P7    S    
C99   N7    Am   
C162  H18   S    
C97   N5    Am   
C148  C199  S    
C208  H201  S    
C3    H43   S    
C74   C78   A    
C191  H163  S    
C53   H89   S    
C12   C16   S    
C46   H94   S    
O41   P14   D    
C57   C123  A    
C123  C139  A    
Ba2   O2    S    
C19   C51   D    
C124  C140  A    
C61   C131  A    
C39   H59   S    
C62   C132  A    
C163  O47   S    
C59   C67   A    
C125  C129  A    
C91   H103  S    
C212  H219  S    
C178  H118  S    
C184  H144  S    
C105  P14   S    
C109  P1    S    
O46   P2    S    
O53   P5    D    
C177  H114  S    
C72   H72   S    
C158  H10   S    
C187  C188  S    
C186  H146  S    
C171  H3    S    
C188  H152  S    
N12   C180  S    
C195  H174  S    
C19   P8    S    
C54   C106  S    
C119  N7    S    
C80   C84   A    
C91   H51   S    
C160  H8    S    
C166  H26   S    
O13   P6    S    
C115  C119  S    
C20   C52   D    
C165  H33   S    
N11   H121  S    
C54   H90   S    
C170  O50   S    
O35   P3    S    
O57   P9    S    
C8    O28   D    
C134  C158  S    
N13   H129  S    
C133  C157  S    
C42   C142  A    
C3    H47   S    
C49   H85   S    
C1    H45   S    
C61   C145  A    
C202  H185  S    
C123  C127  A    
C95   N7    Am   
C195  C196  S    
O50   P13   S    
C121  C125  A    
C108  P15   S    
Ba1   O53   S    
C69   C73   A    
C172  O52   S    
C45   C89   S    
C168  H36   S    
C71   C75   A    
C75   H67   S    
C2    H42   S    
C211  H216  S    
O5    P5    S    
O64   P12   D    
C183  H138  S    
C16   C52   S    
C209  H208  S    
C170  H2    S    
C5    N1    Am   
C180  H126  S    
C38   H58   S    
C18   C50   D    
C77   C97   A    
C185  C186  S    
C7    N3    Am   
C96   O32   D    
C79   C99   A    
C41   C141  A    
C98   O22   D    
N20   C212  S    
C138  N10   S    
C32   C128  A    
C144  C156  A    
O43   P16   D    
O9    P9    S    
O54   P6    D    
C203  H194  S    
N12   H125  S    
C145  C193  S    
C206  H195  S    
C202  H187  S    
C114  C118  S    
C1    H73   S    
C201  H188  S    
C145  C149  A    
Ba4   P8    S    
C121  C137  A    
C154  H82   S    
C178  H120  S    
C193  H168  S    
C30   C42   A    
O58   P10   S    
C100  N8    Am   
C174  N2    Am   
C192  H162  S    
C22   H54   S    
C137  N9    S    
Ba1   O14   S    
C189  H159  S    
C102  C118  D    
C40   H60   S    
N15   C183  S    
C69   H69   S    
C60   C72   A    
C43   C143  A    
C194  H165  S    
C101  C117  D    
C198  H175  S    
Ba2   O54   S    
C20   P7    S    
C25   N1    S    
C46   C90   S    
C53   C109  D    
C135  O8    S    
C115  C205  S    
C94   O30   D    
C16   P11   S    
C164  H24   S    
C171  H39   S    
C190  H155  S    
N17   C209  S    
Ba3   O15   S    
C201  C202  S    
C10   N14   S    
C90   H98   S    
C151  H79   S    
C112  P4    S    
C166  H30   S    
C128  C132  A    
O36   P4    S    
C78   C98   A    
C157  H13   S    
O34   P2    S    
C110  C114  D    
C210  H211  S    
C24   H56   S    
C109  C113  D    
C130  C154  A    
C116  C207  S    
C22   C26   S    
C147  C151  A    
O2    P2    D    
C18   C22   D    
C80   C100  A    
C56   C112  D    
C167  H27   S    
C209  H206  S    
C180  H128  S    
C65   C81   A    
C90   H50   S    
N9    C177  S    
C176  O20   D    
C207  H203  S    
N18   C210  S    
C193  C194  S    
C17   C21   D    
C103  C107  S    
O59   P11   S    
C72   C76   A    
C110  P2    S    
N10   C178  S    
C4    H44   S    
C98   N6    Am   
C35   C175  A    
C4    C172  S    
C11   C27   D    
C142  C154  A    
C136  C160  S    
C33   C173  A    
C62   C66   A    
C111  C115  D    
C206  H197  S    
C9    C13   S    
C135  C159  S    
Ba4   P4    S    
C177  H116  S    
Ba3   O3    S    
C99   O23   D    
Ba1   P5    S    
O3    P3    D    
C196  H171  S    
C32   C44   A    
C48   N20   S    
C129  C153  A    
C46   N18   S    
C181  H131  S    
C33   C37   A    
C199  C200  S    
C52   H88   S    
C187  H153  S    
C9    N13   S    
C192  H160  S    
C132  C156  A    
C36   C40   A    
Ba4   O35   S    
C155  H83   S    
C205  H198  S    
C93   O29   D    
C54   C110  D    
C163  H19   S    
O16   P7    S    
C159  H11   S    
C87   C95   A    
C160  H12   S    
Ba1   O37   S    
C77   C81   A    
Ba3   Ba4   S    
C94   N6    Am   
O51   P16   S    
C79   C83   A    
C5    C41   A    
C182  H134  S    
C184  H143  S    
C7    C43   A    
C200  H180  S    
C198  H177  S    
C161  O45   S    
C76   C80   A    
Ba1   Ba2   S    
C200  H182  S    
C48   H96   S    
C37   H57   S    
C11   C15   S    
C13   P10   S    
C190  H157  S    
C34   C174  A    
C111  P3    S    
C9    C25   D    
C183  H139  S    
C141  C185  S    
C15   P12   S    
C62   C146  A    
Ba4   O56   S    
C31   C127  A    
Ba3   O39   S    
C179  H124  S    
O1    P1    D    
C122  C126  A    
C89   H49   S    
Ba1   O57   S    
C203  C204  S    
Ba4   O4    S    
Ba3   O59   S    
C161  H21   S    
C157  H5    S    
C107  P16   S    
C191  H164  S    
C17   P6    S    
C47   C91   S    
O14   P5    S    
C117  N5    S    
C76   H68   S    
C163  H23   S    
O39   P16   S    
C86   C150  A    
C112  C116  D    
C120  N8    S    
C6    N2    Am   
C167  H35   S    
C28   N4    S    
C169  H1    S    
C185  H149  S    
C212  H218  S    
C176  N4    Am   
C161  C165  S    
Ba2   P6    S    
C1    C169  S    
C102  H62   S    
C71   H71   S    
C197  H179  S    
Ba4   O15   S    
C27   N3    S    
C47   O11   S    
C188  H151  S    
C4    H48   S    
C20   C24   D    
N18   H209  S    
C93   N5    Am   
Ba3   P3    S    
C81   C85   A    
C208  H202  S    
O11   P11   S    
C57   C69   A    
C78   C82   A    
C122  C138  A    
C29   C33   A    
C104  C108  S    
O6    P6    S    
C203  H193  S    
C17   C49   D    
C31   C35   A    
C197  C198  S    
C64   C148  A    
C161  H17   S    
C136  H112  S    
C73   C77   A    
O42   P13   D    
C160  H16   S    
Ba2   O13   S    
C135  H107  S    
C136  H108  S    
C202  H186  S    
C45   H93   S    
C186  H147  S    
C189  H158  S    
C194  H166  S    
C67   C83   A    
O4    P4    D    
C182  H136  S    
C60   C122  A    
C106  P13   S    
C12   C28   D    
Ba2   O58   S    
C13   C49   S    
C6    C42   A    
C175  O19   D    
C26   N2    S    
C29   C125  A    
C211  H215  S    
N10   H117  S    
C164  H20   S    
O52   P15   S    
C3    H75   S    
C18   P5    S    
C191  C192  S    
C209  H207  S    
C179  H122  S    
C166  H34   S    
C47   H95   S    
C64   C130  A    
C134  H110  S    
C147  C197  S    
C197  H178  S    
C75   C79   A    
C101  C105  S    
C199  H183  S    
C61   C65   A    
C2    H46   S    
C206  H196  S    
C63   C67   A    
C100  O24   D    
C164  C168  S    
C70   C74   A    
C204  H192  S    
N14   H133  S    
C178  H119  S    
C58   C70   A    
C205  C206  S    
C192  H161  S    
C8    N4    Am   
C1    H41   S    
C195  H173  S    
C205  H199  S    
Ba1   O13   S    
C10   C14   S    
Ba4   O40   S    
C143  C155  A    
C89   H101  S    
N15   H137  S    
C142  C187  S    
C208  H200  S    
C204  H191  S    
N11   C179  S    
C50   H86   S    
C59   C71   A    
C190  H156  S    
C63   C129  A    
C198  H176  S    
N9    H113  S    
C34   C38   A    
C127  C131  A    
C47   N19   S    
O55   P7    D    
N13   C181  S    
C211  H214  S    
C141  C153  A    
C2    H74   S    
C159  H7    S    
N17   H205  S    
C113  C117  S    
C186  H145  S    
C74   H66   S    
C11   N15   S    
C84   C88   A    
C194  H167  S    
C3    C171  S    
C38   C138  A    
C181  H130  S    
C199  H184  S    
C96   N8    Am   
C169  H37   S    
C210  H210  S    
C64   C68   A    
C92   H52   S    
C159  H15   S    
C146  C195  S    
C158  H14   S    
Ba4   O60   S    
C152  H80   S    
Ba1   O1    S    
C10   C26   D    
C45   O9    S    
C124  C128  A    
O63   P11   D    
C70   H70   S    
C207  H204  S    
C48   O12   S    
C91   H99   S    
C63   C147  A    
Ba3   O55   S    
C32   C36   A    
C51   H87   S    
C168  H32   S    
C157  H9    S    
N16   H141  S    
C158  H6    S    
C35   C39   A    
C95   O31   D    
C85   C93   A    
C118  N6    S    
C201  H189  S    
C133  H109  S    
C177  H115  S    
C37   C137  A    
C56   C108  S    
C168  H28   S    
C167  H31   S    
C85   C149  A    
C133  H105  S    
C40   C140  A    
C165  H29   S    
C104  H64   S    
C196  H170  S    
C193  H169  S    
C55   H91   S    
C88   C152  A    
C59   C121  A    
C56   H92   S    
O33   P1    S    
C46   O10   S    
C187  H154  S    
C170  H38   S    
C5    O25   D    
C19   C23   D    
N19   C211  S    
C146  C150  A    
C7    O27   D    
C87   C151  A    
C12   N16   S    
C172  H40   S    
C66   C82   A    
C88   C96   A    
C156  H84   S    
C39   C139  A    
C102  C106  S    
C57   C65   A    
Ba1   P1    S    
C30   C34   A    
C45   N17   S    
C97   O21   D    
C139  N11   S    
C150  H78   S    
C200  H181  S    
C23   H55   S    
C134  H106  S    
C196  H172  S    
O37   P14   S    
C204  H190  S    
Ba3   O16   S    
O10   P10   S    
C189  C190  S    
C164  O48   S    
C58   C124  A    
Ba1   O34   S    
C179  H123  S    
C212  H220  S    
C185  H148  S    
Ba3   O36   S    
C44   C144  A    
C162  C166  S    
C48   C92   S    
C73   H65   S    
C60   C68   A    
C174  O18   D    
C210  H212  S    
C14   C50   S    
C21   H53   S    
C136  O7    S    
C173  O17   D    
C30   C126  A    
C55   C111  D    
C113  C201  S    
C143  C189  S    
N19   H213  S    
C86   C94   A    
O62   P10   D    
C133  O6    S    
C116  C120  S    
O60   P12   S    
