data_mof_unit_25849.cif
_audit_creation_date              2012-12-11T14:30:44-0500
_audit_creation_method            fapswitch 2.2
_symmetry_space_group_name_H-M    P1
_symmetry_Int_Tables_number       1
_space_group_crystal_system       triclinic
_cell_length_a                    17.550028
_cell_length_b                    24.437681
_cell_length_c                    15.081367
_cell_angle_alpha                 90.786561
_cell_angle_beta                  126.020154
_cell_angle_gamma                 89.572227
_cell_volume                      5230.99229005

loop_
_atom_site_label
_atom_site_type_symbol
_atom_type_description
_atom_site_fract_x
_atom_site_fract_y
_atom_site_fract_z
_atom_type_partial_charge
C1    C     C_R   0.847597 0.651416 0.907273 -0.149019
C2    C     C_R   0.940175 0.502917 0.637437 0.100969
C3    C     C_3   0.413739 0.818349 0.536930 -0.914051
C4    C     C_3   0.799979 0.325139 0.806908 -0.449723
C5    C     C_3   0.851505 0.269886 0.836228 -0.238519
C6    C     C_3   0.832754 0.240324 0.735531 -0.884538
C7    C     C_3   0.222243 0.333640 0.196745 -0.475465
C8    C     C_3   0.205212 0.271596 0.179512 -0.253756
C9    C     C_3   0.242529 0.243281 0.287513 -0.887903
C10   C     C_3   0.299661 0.826709 0.800678 -0.477955
C11   C     C_3   0.344977 0.770171 0.817636 -0.268880
C12   C     C_3   0.305179 0.741314 0.708300 -0.810570
C13   C     C_R   0.465331 0.007361 0.287678 0.078718
C14   C     C_3   0.689357 0.828038 0.200386 -0.469293
C15   C     C_3   0.639239 0.773600 0.184033 -0.227260
C16   C     C_3   0.662995 0.752598 0.292445 -0.920759
C17   C     C_R   0.453251 0.002398 0.644134 0.174017
C18   C     C_R   0.673982 0.502207 0.703871 0.136413
C19   C     C_R   0.298784 0.503434 0.367030 0.128340
C20   C     C_R   0.174159 0.002020 0.701216 0.085968
C21   C     C_R   0.825702 0.001946 0.308523 0.094654
C22   C     C_3   0.496915 0.481201 0.639234 -0.296206
C23   C     C_3   0.447923 0.451841 0.525969 -0.371722
C24   C     C_3   0.009924 0.954538 0.557112 -0.358258
C25   C     C_R   0.153920 0.650970 0.094994 -0.146079
C26   C     C_3   0.994317 0.958856 0.445016 -0.352781
C27   C     C_3   0.437794 0.533127 0.580349 0.698199
C28   C     C_3   0.523050 0.473859 0.514590 0.639008
C29   C     C_3   0.932912 0.997655 0.520686 0.651616
C30   C     C_3   0.065576 0.006050 0.490421 0.649736
C31   C     C_3   0.391070 0.503938 0.469841 -0.037414
C32   C     C_3   0.572118 0.502650 0.626026 -0.069752
C33   C     C_3   0.918128 0.001977 0.410414 -0.027067
C34   C     C_3   0.080596 0.001868 0.600899 -0.029969
C35   C     C_3   0.466973 0.525806 0.459295 -0.266576
C36   C     C_R   0.351582 0.152578 0.907180 -0.160676
C37   C     C_3   0.514704 0.555202 0.571031 -0.348663
C38   C     C_3   0.988935 0.049319 0.454120 -0.315906
C39   C     C_3   0.004192 0.045002 0.566392 -0.319672
C40   C     C_2   0.129789 0.762707 0.918293 -0.110090
C41   C     C_2   0.865854 0.761062 0.087877 -0.116015
C42   C     C_2   0.622872 0.264743 0.916568 -0.112459
C43   C     C_2   0.389554 0.270603 0.084991 -0.105865
C44   C     C_2   0.153407 0.737562 0.009101 -0.189377
C45   C     C_2   0.846082 0.737377 0.996584 -0.185379
C46   C     C_2   0.646009 0.239507 0.007265 -0.185657
C47   C     C_R   0.651556 0.151813 0.094233 -0.156698
C48   C     C_2   0.366776 0.243056 0.995283 -0.198035
C49   C     C_2   0.686063 0.305581 0.923366 -0.102261
C50   C     C_2   0.329737 0.315386 0.076133 -0.079661
C51   C     C_2   0.194610 0.801782 0.924423 -0.098038
C52   C     C_2   0.797720 0.797941 0.081043 -0.105551
C53   C     C_R   0.919296 0.362907 0.092258 -0.192308
C54   C     C_R   0.090348 0.370170 0.907884 -0.201973
C55   C     C_R   0.426136 0.857544 0.090638 -0.210090
C56   C     C_R   0.567763 0.852656 0.911207 -0.214251
C57   C     C_2   0.779350 0.301022 0.998946 -0.212160
C58   C     C_R   0.842188 0.338784 0.999921 0.113082
C59   C     C_2   0.236970 0.314493 0.995677 -0.237663
C60   C     C_2   0.287920 0.794387 0.995816 -0.215741
C61   C     C_2   0.704852 0.788411 0.008464 -0.206176
C62   C     C_2   0.946081 0.548276 0.410800 -0.119240
C63   C     C_2   0.920610 0.550384 0.486165 -0.093336
C64   C     C_2   0.373372 0.983916 0.355507 -0.166102
C65   C     C_2   0.367203 0.992299 0.446980 -0.038627
C66   C     C_2   0.005416 0.509507 0.421082 -0.190158
C67   C     C_2   0.916519 0.503892 0.528291 -0.184095
C68   C     C_2   0.427484 0.018313 0.348466 -0.182018
C69   C     C_R   0.171889 0.349210 0.999321 0.114973
C70   C     C_2   0.446422 0.005319 0.545114 -0.273654
C71   C     C_R   0.022770 0.549563 0.284326 -0.144231
C72   C     C_R   0.956570 0.547793 0.702308 -0.149618
C73   C     C_R   0.488486 0.050160 0.251863 -0.127021
C74   C     C_R   0.462964 0.047475 0.705102 -0.111370
C75   C     C_R   0.730013 0.456156 0.738958 -0.130590
C76   C     C_R   0.254114 0.457481 0.305035 -0.108564
C77   C     C_R   0.230320 0.956108 0.736710 -0.071025
C78   C     C_R   0.769590 0.955985 0.268767 -0.057778
C79   C     C_R   0.036021 0.458452 0.297389 0.156226
C80   C     C_R   0.350768 0.832686 0.998239 0.103929
C81   C     C_R   0.948143 0.456731 0.694559 0.181053
C82   C     C_R   0.498547 0.959106 0.268700 0.190085
C83   C     C_R   0.458469 0.955977 0.699567 0.196620
C84   C     C_R   0.730362 0.547722 0.737331 -0.091430
C85   C     C_R   0.254327 0.548048 0.303720 -0.111361
C86   C     C_R   0.230482 0.047669 0.737378 -0.031771
C87   C     C_R   0.769568 0.047687 0.269643 -0.053428
C88   C     C_R   0.834639 0.358124 0.909377 0.123741
C89   C     C_R   0.174577 0.363985 0.090222 0.174568
C90   C     C_R   0.339045 0.855799 0.908443 0.153628
C91   C     C_R   0.639701 0.826481 0.003735 0.103572
C92   C     C_R   0.655104 0.853750 0.092385 0.141822
C93   C     C_R   0.939218 0.651217 0.090090 -0.115317
C94   C     C_R   0.061299 0.650985 0.911840 -0.103433
C95   C     C_R   0.443942 0.153050 0.089324 -0.124651
C96   C     C_R   0.559651 0.151340 0.911373 -0.111631
C97   C     C_R   0.876281 0.682052 0.998902 0.139071
C98   C     C_R   0.124907 0.681716 0.004500 0.131439
C99   C     C_R   0.384259 0.184706 0.998350 0.140041
C100  C     C_R   0.621489 0.182715 0.003495 0.137239
C101  C     C_3   0.079658 0.405584 0.356932 -0.532231
C102  C     C_R   0.024523 0.505700 0.340929 0.117480
C103  C     C_3   0.175311 0.414918 0.468070 -0.171205
C104  C     C_3   0.230559 0.361629 0.513238 -0.941274
C105  C     C_3   0.913246 0.400093 0.646078 -0.630452
C106  C     C_3   0.808493 0.399756 0.551576 -0.112341
C107  C     C_3   0.776189 0.344081 0.493961 -0.806057
C108  C     C_3   0.529036 0.907860 0.336025 -0.488965
C109  C     C_3   0.591244 0.920092 0.459776 -0.157613
C110  C     C_3   0.635121 0.867873 0.525688 -0.885070
C111  C     C_3   0.454178 0.896253 0.669326 -0.436006
C112  C     C_3   0.411013 0.880236 0.550067 -0.274351
H1    H     H_    0.808324 0.665967 0.823970 0.093608
H2    H     H_    0.541115 0.597953 0.589172 0.170645
H3    H     H_    0.316939 0.766535 0.656862 0.246328
H4    H     H_    0.340890 0.701276 0.722854 0.291191
H5    H     H_    0.422420 0.774750 0.862929 0.199922
H6    H     H_    0.331511 0.743859 0.866520 0.214484
H7    H     H_    0.222237 0.822010 0.754744 0.183606
H8    H     H_    0.314551 0.851419 0.751249 0.191060
H9    H     H_    0.740214 0.746527 0.351897 0.262574
H10   H     H_    0.638641 0.782131 0.327532 0.257038
H11   H     H_    0.627104 0.712826 0.278396 0.256440
H12   H     H_    0.561705 0.778996 0.125973 0.197608
H13   H     H_    0.979650 0.087353 0.409332 0.168246
H14   H     H_    0.661186 0.742383 0.148926 0.208949
H15   H     H_    0.766535 0.821046 0.249518 0.179664
H16   H     H_    0.674327 0.856401 0.246562 0.208146
H17   H     H_    0.250798 0.560218 0.612436 0.371873
H18   H     H_    0.562097 0.357070 0.519108 0.331206
H19   H     H_    0.840844 0.900557 0.532197 0.332827
H20   H     H_    0.187752 0.923180 0.499074 0.325001
H21   H     H_    0.009349 0.079344 0.618620 0.170090
H22   H     H_    0.071468 0.749031 0.837278 0.118448
H23   H     H_    0.923194 0.747395 0.168802 0.121065
H24   H     H_    0.567102 0.249735 0.835381 0.120393
H25   H     H_    0.440435 0.254597 0.166393 0.129352
H26   H     H_    0.208303 0.754247 0.089497 0.136595
H27   H     H_    0.791497 0.754031 0.916766 0.139012
H28   H     H_    0.697976 0.257258 0.087715 0.136799
H29   H     H_    0.194343 0.665182 0.179277 0.101978
H30   H     H_    0.319981 0.261113 0.914733 0.138148
H31   H     H_    0.656935 0.336103 0.859490 0.122896
H32   H     H_    0.358634 0.343740 0.144800 0.173100
H33   H     H_    0.165769 0.834188 0.864261 0.125127
H34   H     H_    0.824272 0.831130 0.140855 0.125538
H35   H     H_    0.810428 0.270328 0.062541 0.139076
H36   H     H_    0.205778 0.285816 0.927269 0.141397
H37   H     H_    0.318371 0.762013 0.056046 0.141194
H38   H     H_    0.677192 0.755341 0.948307 0.148659
H39   H     H_    0.918645 0.580067 0.349588 0.130414
H40   H     H_    0.315098 0.166946 0.824015 0.101345
H41   H     H_    0.918309 0.590314 0.516649 0.119334
H42   H     H_    0.344749 0.947067 0.305185 0.142669
H43   H     H_    0.303682 0.980677 0.437932 0.229581
H44   H     H_    0.033819 0.478241 0.483152 0.134425
H45   H     H_    0.913025 0.464821 0.490818 0.138456
H46   H     H_    0.447155 0.057351 0.392475 0.152374
H47   H     H_    0.511696 0.014988 0.555857 0.142857
H48   H     H_    0.947102 0.353423 0.175532 0.116801
H49   H     H_    0.068718 0.364712 0.825335 0.125715
H50   H     H_    0.460604 0.842440 0.172032 0.118128
H51   H     H_    0.690135 0.166585 0.178016 0.099012
H52   H     H_    0.527701 0.833013 0.832412 0.121406
H53   H     H_    0.024070 0.592595 0.302791 0.110345
H54   H     H_    0.944392 0.590351 0.679331 0.098907
H55   H     H_    0.478764 0.093178 0.259852 0.109160
H56   H     H_    0.453928 0.089872 0.681070 0.119655
H57   H     H_    0.705591 0.414603 0.721402 0.134970
H58   H     H_    0.268373 0.416760 0.336749 0.098087
H59   H     H_    0.205870 0.914914 0.710302 0.091191
H60   H     H_    0.793134 0.914775 0.295169 0.102260
H61   H     H_    0.709240 0.590093 0.720019 0.097815
H62   H     H_    0.511003 0.463379 0.714856 0.175224
H63   H     H_    0.268022 0.590578 0.329190 0.135382
H64   H     H_    0.209075 0.089775 0.714817 0.102165
H65   H     H_    0.790232 0.089864 0.294419 0.097553
H66   H     H_    0.984069 0.665128 0.174399 0.086134
H67   H     H_    0.016403 0.664769 0.828064 0.081471
H68   H     H_    0.492620 0.167839 0.172602 0.091076
H69   H     H_    0.513742 0.165008 0.827588 0.087144
H70   H     H_    0.189505 0.331140 0.523119 0.266203
H71   H     H_    0.246568 0.344657 0.457159 0.253185
H72   H     H_    0.298136 0.369615 0.594455 0.263732
H73   H     H_    0.420762 0.409238 0.508070 0.158204
H74   H     H_    0.218200 0.444470 0.459490 0.230177
H75   H     H_    0.164913 0.432163 0.528625 0.207593
H76   H     H_    0.030750 0.384389 0.369148 0.188967
H77   H     H_    0.091995 0.379241 0.305965 0.200870
H78   H     H_    0.818852 0.331555 0.464581 0.227079
H79   H     H_    0.782357 0.312811 0.550233 0.253855
H80   H     H_    0.701198 0.346500 0.422130 0.294560
H81   H     H_    0.769764 0.409947 0.586713 0.267668
H82   H     H_    0.791180 0.430629 0.489309 0.223987
H83   H     H_    0.955524 0.383997 0.618398 0.204792
H84   H     H_    0.019608 0.916448 0.601961 0.151370
H85   H     H_    0.920930 0.372472 0.708409 0.208114
H86   H     H_    0.579143 0.838486 0.506365 0.250909
H87   H     H_    0.681456 0.848454 0.506660 0.272480
H88   H     H_    0.678071 0.877909 0.614660 0.258627
H89   H     H_    0.647845 0.949313 0.481034 0.284428
H90   H     H_    0.549098 0.939158 0.484487 0.177463
H91   H     H_    0.466003 0.884329 0.313705 0.176801
H92   H     H_    0.572353 0.883156 0.318715 0.207253
H93   H     H_    0.487221 0.802969 0.591424 0.264356
H94   H     H_    0.369719 0.797488 0.556740 0.268293
H95   H     H_    0.989026 0.924428 0.392845 0.158688
H96   H     H_    0.385592 0.808199 0.450722 0.250640
H97   H     H_    0.336360 0.893281 0.496386 0.229474
H98   H     H_    0.452451 0.898444 0.524224 0.216311
H99   H     H_    0.528301 0.882038 0.717858 0.188941
H100  H     H_    0.412252 0.875077 0.691926 0.195685
H101  H     H_    0.755950 0.238326 0.669112 0.270184
H102  H     H_    0.869435 0.261784 0.706252 0.249743
H103  H     H_    0.860824 0.197986 0.757614 0.259990
H104  H     H_    0.928821 0.276295 0.895956 0.196495
H105  H     H_    0.827690 0.243273 0.874735 0.208736
H106  H     H_    0.454918 0.543956 0.384842 0.179560
H107  H     H_    0.722886 0.318194 0.759345 0.188784
H108  H     H_    0.814126 0.348238 0.755106 0.206167
H109  H     H_    0.319267 0.250992 0.347649 0.258931
H110  H     H_    0.205083 0.258505 0.322015 0.258783
H111  H     H_    0.230840 0.198466 0.273121 0.263372
H112  H     H_    0.128406 0.263271 0.120898 0.199662
H113  H     H_    0.241247 0.253560 0.145487 0.215209
H114  H     H_    0.298874 0.342754 0.249913 0.206581
H115  H     H_    0.190113 0.347603 0.238101 0.187935
H116  H     H_    0.228425 0.734038 0.663906 0.248174
N1    N     N_R   0.892320 0.603520 0.941090 -0.041981
N2    N     N_R   0.973240 0.529450 0.794410 -0.054604
N3    N     N_R   0.526760 0.029450 0.205590 -0.046372
N4    N     N_R   0.473240 0.029450 0.794410 -0.063294
N5    N     N_R   0.819350 0.473090 0.793940 -0.053052
N6    N     N_R   0.180650 0.473090 0.206060 -0.048136
N7    N     N_R   0.319350 0.973090 0.793940 -0.041618
N8    N     N_R   0.680650 0.973090 0.206060 -0.046025
N9    N     N_R   0.027860 0.473090 0.206590 -0.061607
N10   N     N_R   0.972140 0.473090 0.793410 -0.057689
N11   N     N_R   0.527860 0.973090 0.206590 -0.055673
N12   N     N_R   0.107680 0.603520 0.058910 -0.041228
N13   N     N_R   0.472140 0.973090 0.793410 -0.072770
N14   N     N_R   0.818250 0.529450 0.792940 -0.047524
N15   N     N_R   0.181750 0.529450 0.207060 -0.047397
N16   N     N_R   0.318250 0.029450 0.792940 -0.037136
N17   N     N_R   0.681750 0.029450 0.207060 -0.042417
N18   N     N_R   0.896320 0.399020 0.944720 -0.059560
N19   N     N_R   0.103680 0.399020 0.055280 -0.064534
N20   N     N_R   0.396320 0.899020 0.944720 -0.066493
N21   N     N_R   0.603680 0.899020 0.055280 -0.064152
N22   N     N_R   0.949790 0.603520 0.054810 -0.043752
N23   N     N_R   0.392320 0.103520 0.941090 -0.047278
N24   N     N_R   0.050210 0.603520 0.945190 -0.043521
N25   N     N_R   0.449790 0.103520 0.054810 -0.048217
N26   N     N_R   0.550210 0.103520 0.945190 -0.047516
N27   N     N_R   0.607680 0.103520 0.058910 -0.046549
N28   N     N_R   0.953790 0.399020 0.058440 -0.052704
N29   N     N_R   0.046210 0.399020 0.941560 -0.054007
N30   N     N_R   0.453790 0.899020 0.058440 -0.054667
N31   N     N_R   0.546210 0.899020 0.941560 -0.052780
N32   N     N_R   0.026760 0.529450 0.205590 -0.055546
Ni1   Ni    Ni4+2 0.934100 0.565890 0.869590 0.212923
Ni2   Ni    Ni4+2 0.065900 0.565890 0.130410 0.221812
Ni3   Ni    Ni4+2 0.434100 0.065890 0.869590 0.233631
Ni4   Ni    Ni4+2 0.565900 0.065890 0.130410 0.232711
Ni5   Ni    Ni4+2 0.068420 0.436630 0.132700 0.197776
Ni6   Ni    Ni4+2 0.931580 0.436630 0.867300 0.203351
Ni7   Ni    Ni4+2 0.568420 0.936630 0.132700 0.219784
Ni8   Ni    Ni4+2 0.431580 0.936630 0.867300 0.208462
O1    O     O_2   0.443408 0.589760 0.737811 -0.292481
O2    O     O_2   0.111959 0.007209 0.349331 -0.303352
O3    O     O_2   0.209940 0.061808 0.518042 -0.294532
O4    O     O_3   0.228517 0.955972 0.532178 -0.581695
O5    O     O_2   0.334965 0.622259 0.548952 -0.339809
O6    O     O_3   0.289512 0.534249 0.603520 -0.569059
O7    O     O_2   0.482508 0.419965 0.336070 -0.307614
O8    O     O_2   0.634012 0.467306 0.448505 -0.311434
O9    O     O_3   0.613006 0.375844 0.521303 -0.588493
O10   O     O_2   0.884571 0.991078 0.659662 -0.292153
O11   O     O_2   0.770563 0.033599 0.481869 -0.294405
O12   O     O_3   0.790998 0.927884 0.486583 -0.571633
S1    S     S_3+6 0.376244 0.572457 0.619735 -0.069890
S2    S     S_3+6 0.564095 0.434005 0.451541 -0.087231
S3    S     S_3+6 0.842654 0.988985 0.539505 -0.066622
S4    S     S_3+6 0.155501 0.009408 0.469918 -0.075910

loop_
_geom_bond_atom_site_label_1
_geom_bond_atom_site_label_2
_ccdc_geom_bond_type
O4    S4    S    
C104  H70   S    
N3    Ni4   S    
C21   C87   A    
C18   C75   A    
N4    Ni3   S    
C64   H42   S    
C110  H86   S    
C56   H52   S    
C66   C102  S    
C83   C111  S    
C111  C112  S    
O12   S3    S    
C85   N15   A    
C96   H69   S    
O9    S2    S    
C19   C31   S    
C74   H56   S    
C57   C58   S    
C14   H16   S    
C7    C8    S    
C106  H82   S    
C40   C44   D    
C92   N21   A    
C81   N10   A    
C28   S2    S    
O6    S1    S    
C60   C80   S    
N26   N27   A    
C72   N2    A    
C20   C77   A    
C86   N16   A    
C50   C59   D    
C64   C68   D    
N9    Ni5   S    
C109  H90   S    
C35   C37   S    
C16   H11   S    
C24   C26   S    
C108  H91   S    
C101  H77   S    
C52   C61   D    
C38   C39   S    
C95   C99   A    
N23   N25   A    
C41   H23   S    
C21   C33   S    
C106  C107  S    
C51   H33   S    
C15   C16   S    
C7    C89   S    
C29   C33   S    
C6    H101  S    
C45   H27   S    
C36   N23   A    
C49   C57   D    
C108  C109  S    
C30   C38   S    
C42   H24   S    
C70   H47   S    
C42   C46   D    
N20   Ni8   S    
O7    S2    D    
C16   H10   S    
C24   C29   S    
N22   Ni2   S    
N31   Ni8   S    
C22   H62   S    
N5    Ni6   S    
C111  H100  S    
C44   C98   S    
C9    H110  S    
C56   C91   A    
C5    H105  S    
C6    H103  S    
C26   H95   S    
C28   C35   S    
C61   C91   S    
C8    C9    S    
C4    H108  S    
C15   H14   S    
C90   N20   A    
C107  H80   S    
C75   H57   S    
N8    Ni7   S    
C18   C84   A    
C11   H6    S    
C79   C102  A    
C75   N5    A    
C10   H7    S    
N15   Ni2   S    
O11   S3    D    
C101  H76   S    
C61   H38   S    
C95   N25   A    
C41   C52   S    
N1    N22   A    
C8    H112  S    
C73   H55   S    
N6    N15   A    
C60   H37   S    
C12   H3    S    
C47   H51   S    
C59   H36   S    
C105  H85   S    
N2    Ni1   S    
C17   C70   S    
C101  C103  S    
O1    S1    D    
H17   O6    S    
C103  H74   S    
C1    H1    S    
N21   N31   A    
C1    N1    A    
C2    C72   A    
N30   Ni7   S    
C30   S4    S    
N19   N29   A    
C50   H32   S    
C87   N17   A    
C106  H81   S    
C63   C67   D    
C81   C105  S    
C10   H8    S    
C62   H39   S    
C62   C66   D    
C110  H88   S    
C34   C39   S    
C3    H93   S    
C28   C32   S    
C103  H75   S    
C63   H41   S    
N32   Ni2   S    
C2    C67   S    
C15   H12   S    
C1    C97   A    
C91   C92   A    
C23   H73   S    
C52   H34   S    
C30   C34   S    
C36   H40   S    
N6    Ni5   S    
C37   H2    S    
C25   N12   A    
C71   N32   A    
C23   C28   S    
C5    H104  S    
C40   H22   S    
C13   C82   A    
C95   H68   S    
C24   C34   S    
C14   H15   S    
N4    N13   A    
C20   C86   A    
C17   C83   A    
C23   C31   S    
C21   C78   A    
C16   H9    S    
C47   N27   A    
C62   C63   S    
C9    H109  S    
C87   H65   S    
C88   N18   A    
C9    H111  S    
C26   C33   S    
C41   C45   D    
C6    H102  S    
N10   Ni6   S    
C3    C112  S    
C29   S3    S    
C4    H107  S    
C82   N11   A    
C29   C39   S    
N9    N32   A    
C78   H60   S    
N13   Ni8   S    
N11   Ni7   S    
C67   H45   S    
N16   Ni3   S    
C32   C37   S    
C76   H58   S    
C14   C92   S    
H19   O12   S    
C112  H98   S    
C93   H66   S    
N24   Ni1   S    
C59   C69   S    
C77   N7    A    
N20   N30   A    
N25   Ni4   S    
C74   N4    A    
C53   N28   A    
C71   C102  A    
C13   C73   A    
N26   Ni3   S    
N12   N24   A    
C82   C108  S    
O10   S3    D    
C57   H35   S    
C27   C31   S    
C17   C74   A    
C31   C35   S    
N2    N10   A    
C56   N31   A    
C18   C32   S    
C3    H96   S    
C84   H61   S    
C11   H5    S    
C35   H106  S    
C93   C97   A    
C73   N3    A    
C38   H13   S    
C93   N22   A    
C46   H28   S    
C104  H71   S    
C39   H21   S    
N7    Ni8   S    
C105  H83   S    
C48   C99   S    
C46   C100  S    
C19   C76   A    
C77   H59   S    
C53   H48   S    
C44   H26   S    
C85   H63   S    
C104  H72   S    
C110  H87   S    
C22   C23   S    
C3    H94   S    
C72   H54   S    
N8    N17   A    
C65   H43   S    
C25   H29   S    
N29   Ni6   S    
C55   H50   S    
N12   Ni2   S    
N3    N11   A    
C19   C85   A    
C79   N9    A    
C58   C88   A    
H20   O4    S    
C76   N6    A    
C8    H113  S    
C43   C50   S    
C26   C30   S    
C4    C88   S    
C7    H114  S    
N1    Ni1   S    
C7    H115  S    
C40   C51   S    
C105  C106  S    
C83   N13   A    
C69   C89   A    
C33   C38   S    
C22   C32   S    
C22   C27   S    
C55   N30   A    
C43   C48   D    
C64   C65   S    
N21   Ni7   S    
H18   O9    S    
C109  H89   S    
C27   S1    S    
O5    S1    D    
C108  H92   S    
C45   C97   S    
C109  C110  S    
C112  H97   S    
C66   H44   S    
C55   C80   A    
O8    S2    D    
O3    S4    D    
C5    C6    S    
C54   C69   A    
N18   N28   A    
C27   C37   S    
N5    N14   A    
C4    C5    S    
C49   H31   S    
C107  H78   S    
C68   H46   S    
N14   Ni1   S    
C43   H25   S    
C36   C99   A    
C86   H64   S    
C94   H67   S    
C54   H49   S    
C80   C90   A    
C111  H99   S    
N7    N16   A    
C12   H116  S    
C10   C11   S    
C47   C100  A    
C42   C49   S    
C96   N26   A    
C20   C34   S    
N19   Ni5   S    
C89   N19   A    
C25   C98   A    
C48   H30   S    
C96   C100  A    
N27   Ni4   S    
C10   C90   S    
C78   N8    A    
C71   H53   S    
C24   H84   S    
C107  H79   S    
C103  C104  S    
C54   N29   A    
C94   C98   A    
C14   C15   S    
C79   C101  S    
C2    C81   A    
C84   N14   A    
C51   C60   D    
O2    S4    D    
N18   Ni6   S    
N17   Ni4   S    
C94   N24   A    
C53   C58   A    
C65   C70   D    
C11   C12   S    
N23   Ni3   S    
N28   Ni5   S    
C12   H4    S    
C13   C68   S    
