data_mof_unit_60196.cif
_audit_creation_date              2013-03-05T15:51:13-0500
_audit_creation_method            fapswitch 2.2
_symmetry_space_group_name_H-M    P1
_symmetry_Int_Tables_number       1
_space_group_crystal_system       triclinic
_cell_length_a                    22.949748
_cell_length_b                    6.986697
_cell_length_c                    20.711326
_cell_angle_alpha                 90.241102
_cell_angle_beta                  93.312412
_cell_angle_gamma                 89.959864
_cell_volume                      3315.33693201

loop_
_atom_site_label
_atom_site_type_symbol
_atom_site_description
_atom_site_fract_x
_atom_site_fract_y
_atom_site_fract_z
_atom_type_partial_charge
O1    O     O_R   0.188030 0.379840 0.189340 -0.582255
O2    O     O_R   0.811970 0.620160 0.810660 -0.581662
O3    O     O_R   0.311970 0.879840 0.310660 -0.584889
O4    O     O_R   0.688030 0.120160 0.689340 -0.582116
O5    O     O_R   0.307090 0.708420 0.185790 -0.584203
O6    O     O_R   0.692910 0.291580 0.814210 -0.582265
O7    O     O_R   0.192910 0.208420 0.314210 -0.580538
O8    O     O_R   0.807090 0.791580 0.685790 -0.581590
C1    C     C_R   0.326631 0.541518 0.170763 0.998762
C2    C     C_R   0.673300 0.458484 0.829159 0.992641
C3    C     C_R   0.172825 0.042092 0.328618 0.999873
C4    C     C_R   0.827243 0.957881 0.671474 0.997546
O9    O     O_R   0.188180 0.709480 0.181650 -0.581092
O10   O     O_R   0.811820 0.290520 0.818350 -0.580934
O11   O     O_R   0.311820 0.209480 0.318350 -0.563695
O12   O     O_R   0.688180 0.790520 0.681650 -0.578788
O13   O     O_R   0.192210 0.880960 0.306500 -0.582740
O14   O     O_R   0.807790 0.119040 0.693500 -0.582818
O15   O     O_R   0.307790 0.380960 0.193500 -0.584515
O16   O     O_R   0.692210 0.619040 0.806500 -0.583931
C5    C     C_R   0.168415 0.540461 0.164929 1.003399
C6    C     C_R   0.831580 0.459541 0.835076 1.004821
C7    C     C_R   0.333185 0.041336 0.333405 1.000325
C8    C     C_R   0.668195 0.959005 0.665278 1.009975
O17   O     O_3   0.251460 0.546730 0.290970 -0.257098
O18   O     O_3   0.748540 0.453270 0.709030 -0.263367
O19   O     O_3   0.248540 0.046730 0.209030 -0.268789
O20   O     O_3   0.751460 0.953270 0.790970 -0.266151
V1    V     V_3+5 0.249730 0.821120 0.242400 1.264986
V2    V     V_3+5 0.750270 0.178880 0.757600 1.266108
V3    V     V_3+5 0.250270 0.321120 0.257600 1.274574
V4    V     V_3+5 0.749730 0.678880 0.742400 1.268434
C9    C     C_R   0.567994 0.869862 0.622666 0.196738
C10   C     C_R   0.435799 0.133221 0.372681 0.214071
C11   C     C_R   0.931078 0.574776 0.871265 0.199316
C12   C     C_R   0.068906 0.425250 0.128763 0.199257
C13   C     C_R   0.620601 0.966747 0.613955 -0.313260
C14   C     C_R   0.383865 0.029640 0.381628 -0.298677
C15   C     C_R   0.880858 0.470337 0.884542 -0.320236
C16   C     C_R   0.119127 0.529673 0.115475 -0.319577
C17   C     C_R   0.628729 0.062876 0.555447 0.209499
C18   C     C_R   0.380869 0.905686 0.435035 0.225344
C19   C     C_R   0.878254 0.375895 0.944322 0.226345
C20   C     C_R   0.121719 0.624140 0.055700 0.226323
C21   C     C_R   0.581112 0.081264 0.508590 -0.064862
C22   C     C_R   0.431361 0.870334 0.476426 -0.082328
C23   C     C_R   0.929135 0.366460 0.986923 -0.076271
C24   C     C_R   0.070831 0.633603 0.013113 -0.076286
C25   C     C_R   0.530138 0.969451 0.515509 -0.007524
C26   C     C_R   0.482579 0.979406 0.468418 -0.004702
C27   C     C_R   0.975976 0.493888 0.976961 -0.001330
C28   C     C_R   0.023993 0.506171 0.023077 -0.001421
C29   C     C_R   0.526120 0.850224 0.570175 -0.004931
C30   C     C_R   0.486500 0.098216 0.413572 -0.030038
C31   C     C_R   0.974568 0.610096 0.921052 0.005888
C32   C     C_R   0.025404 0.389958 0.078985 0.005822
C33   C     C_R   0.584229 0.197224 0.452939 0.262990
C34   C     C_R   0.433587 0.723549 0.523831 0.266128
C35   C     C_R   0.935611 0.231207 0.037764 0.262897
C36   C     C_R   0.064348 0.768886 0.962283 0.262999
C37   C     C_R   0.541136 0.181182 0.402239 0.117856
C38   C     C_R   0.481682 0.710533 0.569084 0.140317
C39   C     C_R   0.984421 0.239725 0.082267 0.150330
C40   C     C_R   0.015541 0.760354 0.917778 0.150190
C41   C     C_3   0.045862 0.094585 0.528429 0.123119
C42   C     C_3   0.953950 0.905456 0.471400 0.124330
C43   C     C_3   0.455120 0.594168 0.970258 0.126119
C44   C     C_3   0.545615 0.405992 0.030669 0.125489
C45   C     C_3   0.022568 0.899388 0.548882 0.225319
C46   C     C_3   0.977251 0.100648 0.450940 0.224975
C47   C     C_3   0.479583 0.399363 0.950287 0.223312
C48   C     C_3   0.521131 0.600781 0.050655 0.225186
C49   C     C_1   0.873610 0.960851 0.626783 -0.214220
C50   C     C_1   0.126382 0.039124 0.373225 -0.218152
C51   C     C_1   0.627901 0.462454 0.874994 -0.213801
C52   C     C_1   0.372311 0.537641 0.125277 -0.219104
C53   C     C_3   0.981873 0.170611 0.521847 0.093871
C54   C     C_3   0.017941 0.829422 0.477976 0.092771
C55   C     C_3   0.518846 0.671118 0.979926 0.096035
C56   C     C_3   0.481883 0.329048 0.021016 0.093502
C57   C     C_3   0.959221 0.973436 0.542909 -0.234211
C58   C     C_3   0.040605 0.026601 0.456918 -0.233432
C59   C     C_3   0.542627 0.474319 0.959313 -0.234771
C60   C     C_3   0.458090 0.525838 0.041598 -0.233965
C61   C     C_1   0.912498 0.961340 0.589409 0.286150
C62   C     C_1   0.087409 0.038661 0.410501 0.285774
C63   C     C_1   0.589618 0.462866 0.913098 0.286965
C64   C     C_1   0.410867 0.537287 0.087515 0.285441
I1    I     I_    0.546534 0.811230 0.720290 -0.175820
I2    I     I_    0.431044 0.382566 0.311480 -0.233184
I3    I     I_    0.948687 0.610797 0.771623 -0.166141
I4    I     I_    0.051322 0.389231 0.228413 -0.166309
I5    I     I_    0.716938 0.138076 0.535610 -0.159106
I6    I     I_    0.294650 0.827562 0.461983 -0.134974
I7    I     I_    0.793817 0.286624 0.972732 -0.150559
I8    I     I_    0.206147 0.713403 0.027266 -0.151103
N1    N     N_R   0.623732 0.356528 0.452682 0.256178
O21   O     O_R   0.659132 0.378733 0.406462 -0.276113
O22   O     O_R   0.622253 0.486220 0.497860 -0.375713
N2    N     N_R   0.392005 0.570268 0.520653 0.257007
O23   O     O_R   0.363594 0.526541 0.571151 -0.276786
O24   O     O_R   0.385920 0.464249 0.468922 -0.377416
N3    N     N_R   0.897772 0.068225 0.039230 0.257293
O25   O     O_R   0.869965 0.031410 0.090793 -0.272414
O26   O     O_R   0.894331 0.948635 0.990794 -0.384577
N4    N     N_R   0.102173 0.931902 0.960837 0.257292
O27   O     O_R   0.129954 0.968852 0.909272 -0.272456
O28   O     O_R   0.105646 0.051349 0.009308 -0.384628
I9    I     I_    0.571208 0.197632 0.306230 -0.022490
I10   I     I_    0.497199 0.438707 0.615276 -0.162478
I11   I     I_    0.005566 0.984729 0.136541 -0.165767
I12   I     I_    0.994373 0.015345 0.863514 -0.166075
N5    N     N_R   0.049483 0.791119 0.602537 0.280866
O29   O     O_R   0.102472 0.727453 0.599230 -0.285915
O30   O     O_R   0.024463 0.782964 0.657097 -0.306706
N6    N     N_R   0.950331 0.208895 0.397283 0.280739
O31   O     O_R   0.897357 0.272676 0.400614 -0.283529
O32   O     O_R   0.975300 0.216735 0.342686 -0.306499
N7    N     N_R   0.455470 0.289689 0.895012 0.280938
O33   O     O_R   0.401869 0.229248 0.894189 -0.284158
O34   O     O_R   0.485488 0.265118 0.844260 -0.315944
N8    N     N_R   0.545209 0.710338 0.105978 0.279662
O35   O     O_R   0.598790 0.770976 0.106836 -0.286726
O36   O     O_R   0.515221 0.734241 0.156787 -0.329856
I13   I     I_    0.119721 0.233097 0.575828 -0.000053
I14   I     I_    0.880007 0.767150 0.424082 0.003741
I15   I     I_    0.382619 0.731642 0.920155 -0.000923
I16   I     I_    0.618079 0.268765 0.080947 -0.008627
I17   I     I_    0.052646 0.575740 0.436439 -0.208057
I18   I     I_    0.947112 0.424259 0.563354 -0.206480
I19   I     I_    0.444985 0.076824 0.060355 -0.216591
I20   I     I_    0.555876 0.923457 0.940831 -0.205119

loop_
_geom_bond_atom_site_label_1
_geom_bond_atom_site_label_2
_geom_bond_distance
_ccdc_geom_bond_type
C34   C38   1.409274 A    
C59   C63   1.484635 S    
O1    C5    1.302065 A    
O19   V1    1.723358 S    
O13   V1    1.969001 S    
O3    C7    1.304561 A    
C56   C60   1.546348 S    
C37   I9    2.145737 S    
N1    O21   1.300680 A    
O7    C3    1.292870 A    
C21   C33   1.416845 A    
C26   C30   1.416813 A    
C12   C32   1.414103 A    
O9    V1    1.993664 S    
C54   I17   2.140146 S    
C14   C18   1.412507 A    
C48   C55   1.545103 S    
C9    I1    2.149629 S    
O4    C8    1.301190 A    
C25   C29   1.415771 A    
C40   I12   2.150707 S    
C43   C47   1.536150 S    
N4    O27   1.301900 A    
C6    C15   1.483187 S    
O1    V3    1.994497 S    
N6    O31   1.300015 A    
O2    V4    1.994497 S    
C18   C22   1.423117 A    
O3    V1    1.992461 S    
C12   C16   1.405687 A    
C1    O15   1.302212 A    
C17   I5    2.154596 S    
C2    O16   1.302139 A    
O2    C6    1.302063 A    
C19   I7    2.151016 S    
O14   V2    1.969001 S    
C1    C52   1.449534 S    
C53   C57   1.546153 S    
C44   I16   2.138996 S    
O5    V1    1.974012 S    
C44   C48   1.536328 S    
C12   I4    2.141623 S    
O11   C7    1.304731 A    
O15   V3    1.971765 S    
C43   C60   1.552413 S    
O12   C8    1.302168 A    
C56   I19   2.140142 S    
C18   I6    2.157859 S    
C4    C49   1.450343 S    
C22   C34   1.421598 A    
C46   C53   1.543671 S    
O17   V1    2.167999 S    
C45   C54   1.543660 S    
O10   V2    1.993666 S    
C47   C56   1.545027 S    
N1    O22   1.301637 A    
C24   C36   1.419107 A    
C47   C59   1.539975 S    
N7    O34   1.300374 A    
C9    C29   1.415062 A    
C42   C54   1.560087 S    
C41   C53   1.560027 S    
C11   C31   1.414072 A    
C27   C28   1.418375 A    
O8    V4    1.978679 S    
O20   V4    2.160548 S    
O7    V3    1.978678 S    
C39   I11   2.150749 S    
O18   V4    1.718065 S    
C15   C19   1.409741 A    
C46   N6    1.454560 S    
C58   C62   1.485013 S    
O19   V3    2.160548 S    
C9    C13   1.405610 A    
C42   I14   2.139172 S    
C41   I13   2.139026 S    
C11   C15   1.405668 A    
C10   I2    2.157738 S    
O5    C1    1.292324 A    
C20   I8    2.150979 S    
C43   I15   2.138783 S    
C2    C51   1.449669 S    
C54   C58   1.546252 S    
C38   I10   2.150314 S    
C21   C25   1.421597 A    
O8    C4    1.292800 A    
C33   N1    1.436222 S    
C31   C40   1.414309 A    
N2    O24   1.300875 A    
C8    C13   1.480578 S    
C32   C39   1.414342 A    
C34   N2    1.433695 S    
N3    O26   1.301770 A    
C50   C62   1.214851 T    
C33   C37   1.404443 A    
C49   C61   1.214718 T    
C48   C60   1.539937 S    
C51   C63   1.214424 T    
O6    V2    1.974010 S    
C10   C30   1.420718 A    
C25   C26   1.422966 A    
N8    O36   1.300377 A    
C44   C56   1.560353 S    
C36   N4    1.433999 S    
N5    O29   1.300002 A    
O16   V4    1.971765 S    
C52   C64   1.214322 T    
C3    O13   1.301405 A    
C48   N8    1.457449 S    
C10   C14   1.416492 A    
C44   C59   1.552699 S    
O17   V3    1.718065 S    
C60   C64   1.484476 S    
C3    C50   1.450517 S    
O6    C2    1.292493 A    
C23   C27   1.421017 A    
N7    O33   1.300020 A    
O11   V3    1.997032 S    
C30   C37   1.414028 A    
O12   V4    1.997036 S    
C7    C14   1.491083 S    
C22   C26   1.419413 A    
C35   C39   1.410024 A    
C47   N7    1.457390 S    
C36   C40   1.410016 A    
C35   N3    1.434029 S    
O10   C6    1.303586 A    
O20   V2    1.723358 S    
O9    C5    1.303584 A    
C42   C57   1.551491 S    
C55   C59   1.546483 S    
C41   C58   1.551542 S    
C42   C46   1.535386 S    
C5    C16   1.483192 S    
N4    O28   1.301701 A    
C41   C45   1.535315 S    
C55   I20   2.140022 S    
N2    O23   1.301587 A    
N6    O32   1.298246 A    
C27   C31   1.415849 A    
C53   I18   2.140198 S    
C13   C17   1.409768 A    
C46   C58   1.541300 S    
C57   C61   1.484809 S    
C45   C57   1.541149 S    
C23   C35   1.419134 A    
C28   C32   1.415857 A    
C16   C20   1.409707 A    
C29   C38   1.411276 A    
C45   N5    1.454563 S    
C4    O14   1.301441 A    
N3    O25   1.301985 A    
C17   C21   1.425063 A    
N8    O35   1.300024 A    
C24   C28   1.421006 A    
C19   C23   1.423973 A    
C43   C55   1.560253 S    
O4    V2    1.992460 S    
C20   C24   1.423941 A    
N5    O30   1.298248 A    
O18   V2    2.167998 S    
C11   I3    2.141610 S    
