data_mof_unit_19486.cif
_audit_creation_date              2013-03-05T16:18:14-0500
_audit_creation_method            fapswitch 2.2
_symmetry_space_group_name_H-M    P1
_symmetry_Int_Tables_number       1
_space_group_crystal_system       triclinic
_cell_length_a                    8.327958
_cell_length_b                    19.082449
_cell_length_c                    22.767194
_cell_angle_alpha                 99.540591
_cell_angle_beta                  89.675696
_cell_angle_gamma                 92.006255
_cell_volume                      3565.88173087

loop_
_atom_site_label
_atom_site_type_symbol
_atom_site_description
_atom_site_fract_x
_atom_site_fract_y
_atom_site_fract_z
_atom_type_partial_charge
P1    P     P_3+3 0.933470 0.664380 0.557030 0.468734
O1    O     O_2   0.108070 0.674980 0.540650 -0.364654
O2    O     O_3   0.861930 0.586170 0.535430 -0.397018
O3    O     O_3   0.366390 0.628250 0.433820 -0.376785
O4    O     O_2   0.285357 0.754892 0.478218 -0.412386
O5    O     O_3   0.931459 0.682952 0.634866 -0.566558
O6    O     O_3   0.342740 0.737743 0.363195 -0.523131
H1    H     H_    0.320958 0.632858 0.321781 0.157068
C1    C     C_3   0.359206 0.702660 0.257680 -0.869925
H2    H     H_    0.365276 0.654691 0.223039 0.247370
H3    H     H_    0.238140 0.724462 0.255847 0.276022
P2    P     P_3+3 0.383600 0.440030 0.365120 0.474080
P3    P     P_3+3 0.946965 0.586479 0.325056 0.446378
O7    O     O_2   0.211060 0.461230 0.357810 -0.403317
O8    O     O_3   0.958150 0.591500 0.402390 -0.362963
O9    O     O_2   0.077658 0.536225 0.296624 -0.400006
O10   O     O_3   0.395894 0.346798 0.351227 -0.584130
O11   O     O_3   0.008116 0.668754 0.306584 -0.514237
C2    C     C_3   0.895657 0.721055 0.326269 0.702541
H4    H     H_    0.805117 0.704533 0.357854 0.033109
C3    C     C_3   0.986953 0.787212 0.358229 -0.818824
H5    H     H_    0.038946 0.775480 0.400103 0.258197
H6    H     H_    0.085345 0.803570 0.329764 0.264448
C4    C     C_3   0.813580 0.376438 0.342865 0.401400
H7    H     H_    0.709121 0.399099 0.368566 0.122160
H8    H     H_    0.911621 0.417622 0.344741 0.109930
C5    C     C_3   0.762597 0.352584 0.278282 -0.916844
H9    H     H_    0.653247 0.317269 0.276126 0.284988
H10   H     H_    0.737217 0.399002 0.257007 0.225326
H11   H     H_    0.859414 0.323287 0.252502 0.257183
Ba1   Ba    Ba6+2 0.157290 0.533910 0.474710 1.563575
C6    C     C_3   0.999411 0.627741 0.658440 0.414765
H12   H     H_    0.113298 0.611820 0.635690 0.108603
H13   H     H_    0.913706 0.581306 0.654003 0.109412
C7    C     C_3   0.034135 0.654345 0.724112 -0.916413
H14   H     H_    0.112749 0.703206 0.729038 0.279456
H15   H     H_    0.096248 0.613923 0.744340 0.228521
H16   H     H_    0.919955 0.666694 0.748466 0.256533
C8    C     C_3   0.248054 0.311297 0.335774 0.840387
H17   H     H_    0.152156 0.336479 0.364504 0.025634
C9    C     C_3   0.209934 0.312176 0.269908 -0.967068
H18   H     H_    0.176079 0.365937 0.263290 0.230011
H19   H     H_    0.107412 0.275026 0.254860 0.253140
H20   H     H_    0.316067 0.296054 0.241749 0.277320
P4    P     P_3+3 0.876840 0.335610 0.442930 0.494518
O12   O     O_2   0.702240 0.324970 0.459330 -0.308166
O13   O     O_3   0.948380 0.413820 0.464520 -0.408715
O14   O     O_3   0.443920 0.371740 0.566130 -0.372289
O15   O     O_3   0.868090 0.317444 0.365034 -0.562340
P5    P     P_3+3 0.861444 0.417754 0.675682 0.448078
O16   O     O_3   0.358830 0.538360 0.571050 -0.393893
O17   O     O_3   0.852160 0.408490 0.597560 -0.370120
O18   O     O_2   0.710137 0.456978 0.699669 -0.396823
O19   O     O_3   0.823887 0.336148 0.699594 -0.518707
Ba2   Ba    Ba6+2 0.652900 0.466090 0.525240 1.588266
P6    P     P_3+3 0.402487 0.717653 0.431726 0.425733
C10   C     C_3   0.390955 0.682667 0.318451 0.464272
H21   H     H_    0.521247 0.673008 0.321774 0.003340
H22   H     H_    0.449416 0.743380 0.248025 0.249082
O20   O     O_3   0.451480 0.461630 0.428900 -0.353476
C11   C     C_3   0.481435 0.684214 0.621573 0.445901
H23   H     H_    0.605183 0.666997 0.609993 0.093475
H24   H     H_    0.403216 0.671315 0.581600 0.123794
C12   C     C_3   0.486990 0.764489 0.640508 -0.995177
H25   H     H_    0.566285 0.779640 0.679948 0.275832
H26   H     H_    0.534889 0.790414 0.603527 0.215497
H27   H     H_    0.364194 0.783394 0.651791 0.266806
P7    P     P_3+3 0.418068 0.559459 0.645782 0.448273
O21   O     O_2   0.599240 0.538720 0.642170 -0.355937
O22   O     O_3   0.420465 0.651769 0.668568 -0.554713
H28   H     H_    0.906298 0.832559 0.369112 0.201125
C13   C     C_3   0.928867 0.283906 0.673238 0.721192
H29   H     H_    0.016336 0.302989 0.641834 0.015499
C14   C     C_3   0.827890 0.221773 0.639504 -0.842392
H30   H     H_    0.777299 0.237416 0.598814 0.256972
H31   H     H_    0.900343 0.174101 0.626632 0.201049
H32   H     H_    0.728421 0.206413 0.667937 0.271378
P8    P     P_3+3 0.409012 0.282152 0.567392 0.456222
C15   C     C_3   0.420398 0.315544 0.680720 0.434263
H33   H     H_    0.290445 0.325215 0.677260 0.005104
O23   O     O_2   0.526488 0.245755 0.520642 -0.377231
O24   O     O_3   0.469090 0.261116 0.635563 -0.536128
H34   H     H_    0.489550 0.365470 0.677873 0.163127
H35   H     H_    0.376484 0.247394 0.747030 0.252721
C16   C     C_3   0.451769 0.294897 0.741252 -0.898325
H36   H     H_    0.422976 0.339736 0.776817 0.247784
H37   H     H_    0.579629 0.282538 0.745739 0.280842
C17   C     C_R   0.959084 0.197290 0.467859 -0.220985
H38   H     H_    0.878494 0.175222 0.431953 0.155780
C18   C     C_R   0.991857 0.271659 0.477346 0.265785
C19   C     C_R   0.135268 0.188680 0.549703 -0.349168
H39   H     H_    0.171197 0.166654 0.588073 0.141910
C20   C     C_R   0.203560 0.255053 0.543664 0.257973
C21   C     C_R   0.675243 0.812024 0.450374 -0.329124
H40   H     H_    0.633681 0.836907 0.414250 0.145988
C22   C     C_R   0.608246 0.744896 0.455205 0.241309
C23   C     C_R   0.851572 0.801837 0.531913 -0.323179
H41   H     H_    0.931101 0.823508 0.568267 0.155934
C24   C     C_R   0.819220 0.727603 0.521684 0.319863
C25   C     C_R   0.020653 0.153794 0.507855 0.102784
C26   C     C_R   0.122767 0.298633 0.512028 -0.328733
H42   H     H_    0.166324 0.352793 0.512365 0.155352
C27   C     C_R   0.790657 0.845886 0.492439 0.097782
C28   C     C_R   0.689742 0.700738 0.486160 -0.435964
H43   H     H_    0.647116 0.646300 0.484979 0.158797
C29   C     C_R   0.222607 0.035895 0.543807 -0.228777
C30   C     C_R   0.310598 0.984932 0.565766 0.332116
C31   C     C_R   0.265875 0.914010 0.548523 -0.132579
C32   C     C_R   0.125943 0.896467 0.515947 -0.211741
C33   C     C_R   0.010775 0.947260 0.510957 0.066074
C34   C     C_R   0.064689 0.020707 0.520549 0.062159
C35   C     C_R   0.848918 0.924757 0.494709 -0.054520
C36   C     C_R   0.744637 0.979158 0.483272 0.102040
C37   C     C_R   0.799709 0.052507 0.490878 0.056684
C38   C     C_R   0.962118 0.075008 0.506870 -0.043535
C39   C     C_R   0.581834 0.963880 0.466059 -0.167809
C40   C     C_R   0.486875 0.014382 0.447501 -0.120950
C41   C     C_R   0.535890 0.084942 0.459507 -0.044625
C42   C     C_R   0.684032 0.103366 0.486203 -0.185997
H44   H     H_    0.288653 0.084293 0.542099 0.157123
H45   H     H_    0.342079 0.872482 0.558064 0.154318
H46   H     H_    0.105044 0.842426 0.496116 0.198628
H47   H     H_    0.518056 0.915565 0.470674 0.149414
H48   H     H_    0.366480 0.999885 0.431032 0.147461
H49   H     H_    0.453865 0.125426 0.452399 0.196327
H50   H     H_    0.706752 0.157776 0.504550 0.179452
H51   H     H_    0.334370 0.326007 0.048367 0.173748
H52   H     H_    0.243849 0.320146 0.946472 0.172135
C43   C     C_R   0.642446 0.526141 0.336129 -0.501574
C44   C     C_R   0.386134 0.555333 0.945486 -0.055901
C45   C     C_R   0.335572 0.550849 0.886004 0.528454
O25   O     O_2   0.345467 0.603734 0.862170 -0.580328
N1    N     N_R   0.273425 0.487350 0.854657 -0.165655
C46   C     C_R   0.255601 0.427882 0.882068 0.508945
O26   O     O_2   0.197285 0.372527 0.854568 -0.610567
C47   C     C_R   0.306014 0.430484 0.941486 -0.040183
C48   C     C_R   0.371867 0.494646 0.973236 -0.020385
C49   C     C_R   0.451123 0.619135 0.977773 -0.118584
C50   C     C_R   0.501288 0.622680 0.036546 -0.116525
C51   C     C_R   0.488117 0.562511 0.064818 -0.035944
C52   C     C_R   0.423433 0.498227 0.033045 -0.022314
C53   C     C_R   0.293522 0.370275 0.969731 -0.117334
C54   C     C_R   0.345843 0.373629 0.028346 -0.115868
C55   C     C_R   0.410907 0.437467 0.060706 -0.052830
C56   C     C_R   0.463556 0.441911 0.120084 0.529722
N2    N     N_R   0.521760 0.506050 0.151990 -0.162894
C57   C     C_R   0.536961 0.565583 0.124343 0.505372
C58   C     C_2   0.079436 0.464696 0.772661 -0.208855
C59   C     C_3   0.035328 0.473217 0.709823 0.168902
C60   C     C_1   0.310374 0.506252 0.693462 0.275070
C61   C     C_2   0.353144 0.504734 0.749151 -0.225154
C62   C     C_2   0.230948 0.483551 0.792406 0.129495
C63   C     C_R   0.713399 0.542661 0.235924 -0.232299
C64   C     C_R   0.750403 0.550921 0.296589 0.183730
C65   C     C_R   0.501942 0.488756 0.315066 0.277961
C66   C     C_R   0.459786 0.483963 0.254865 -0.246121
C67   C     C_R   0.564719 0.511299 0.214530 0.138772
O27   O     O_2   0.459391 0.388411 0.143138 -0.593661
O28   O     O_2   0.591849 0.621685 0.151732 -0.619996
C68   C     C_2   0.180748 0.471241 0.670247 -0.483468
H53   H     H_    0.550414 0.672905 0.059834 0.173601
H54   H     H_    0.800553 0.560134 0.205496 0.176934
H55   H     H_    0.463597 0.666667 0.957663 0.173625
H56   H     H_    0.475016 0.519749 0.763919 0.178628
H57   H     H_    0.986463 0.451970 0.803198 0.169458
H58   H     H_    0.346788 0.458204 0.239249 0.175369
H59   H     H_    0.674143 0.531016 0.382682 0.172798
H60   H     H_    0.186497 0.434274 0.628607 0.150517
N3    N     N_R   0.258755 0.238236 0.347378 0.223209
O29   O     O_R   0.304304 0.227708 0.399662 -0.421030
O30   O     O_R   0.230962 0.183383 0.305960 -0.388238
C69   C     C_3   0.022304 0.258562 0.722812 -0.960252
H61   H     H_    0.090365 0.304127 0.748928 0.277404
H62   H     H_    0.939029 0.235621 0.753489 0.271839
H63   H     H_    0.107966 0.217596 0.703599 0.219885
C70   C     C_3   0.457930 0.006516 0.603214 -0.981729
H64   H     H_    0.539667 0.041545 0.581570 0.264111
H65   H     H_    0.421273 0.036441 0.646969 0.258716
H66   H     H_    0.524862 0.959526 0.610976 0.247576
C71   C     C_3   0.807635 0.739303 0.272383 -0.970177
H67   H     H_    0.894417 0.757590 0.240407 0.273336
H68   H     H_    0.739963 0.691777 0.249359 0.269193
H69   H     H_    0.721254 0.781834 0.286805 0.228249

loop_
_geom_bond_atom_site_label_1
_geom_bond_atom_site_label_2
_geom_bond_distance
_ccdc_geom_bond_type
C11   O22   1.406184 S    
O14   Ba2   2.730388 S    
O5    C6    1.396744 S    
C26   H42   1.082092 S    
C39   H47   1.067875 S    
C5    H10   1.104697 S    
N3    O30   1.302594 A    
C9    H18   1.107530 S    
O4    P6    1.537654 D    
C2    H4    1.112388 S    
P5    C59   1.858512 S    
C4    C5    1.523538 S    
O7    Ba1   2.830890 S    
C57   O28   1.221292 D    
P1    C24   1.849141 S    
C56   N2    1.388650 Am   
C8    C9    1.537503 S    
N2    C67   1.456507 S    
P4    O12   1.514347 D    
C31   C32   1.385751 A    
C25   C38   1.560793 S    
P5    O19   1.750498 S    
C14   H31   1.107048 S    
P3    O11   1.749734 S    
C3    H28   1.108652 S    
C13   C69   1.526598 S    
C3    H5    1.108462 S    
C66   C67   1.413110 A    
C2    C3    1.528332 S    
C40   H48   1.082993 S    
C4    H8    1.109250 S    
O11   C2    1.409428 S    
C43   C64   1.394436 A    
C32   H46   1.063753 S    
C30   C70   1.504000 S    
P8    C20   1.828296 S    
C54   C55   1.407532 A    
P1    Ba1   3.453127 S    
C39   C40   1.387353 A    
P1    O1    1.514119 D    
O10   C8    1.402167 S    
O14   P8    1.728953 S    
C11   H24   1.111019 S    
C41   C42   1.386498 A    
C35   C36   1.433529 A    
C47   C53   1.407207 A    
C36   C37   1.440496 A    
C33   C34   1.438473 A    
O2    Ba2   2.807817 S    
C70   H66   1.111128 S    
C7    H14   1.110838 S    
C71   H68   1.106739 S    
P7    O21   1.571449 D    
C14   H32   1.109489 S    
O12   Ba2   2.898852 S    
P5    O17   1.759853 S    
C61   C62   1.503538 S    
C49   H55   1.083341 S    
C41   H49   1.081322 S    
P4    O15   1.751158 S    
C19   C25   1.420408 A    
C1    H2    1.107233 S    
C31   H45   1.082487 S    
O16   Ba2   2.952631 S    
C37   C42   1.407881 A    
O17   Ba2   2.726068 S    
O16   P7    1.751816 S    
C36   C39   1.420308 A    
C29   H44   1.064474 S    
P4    O13   1.588026 S    
C24   C28   1.383238 A    
Ba1   O13   2.807377 S    
Ba2   O20   2.757118 S    
O3    P6    1.730330 S    
C5    H11   1.106594 S    
C58   H57   1.085607 S    
C9    H19   1.108746 S    
C11   H23   1.109706 S    
N1    C62   1.452217 S    
O6    P6    1.746253 S    
C51   C57   1.408452 A    
C28   H43   1.082070 S    
C23   C24   1.413541 A    
C69   H62   1.111318 S    
C23   H41   1.080862 S    
C29   C34   1.422770 A    
C16   H37   1.107560 S    
C51   C52   1.407917 A    
C65   C66   1.404205 A    
P5    O18   1.539165 D    
C14   H30   1.108932 S    
C43   H59   1.081874 S    
P1    O5    1.748752 S    
C6    C7    1.523118 S    
C50   H53   1.083334 S    
C7    H16   1.110651 S    
C4    H7    1.105834 S    
C13   C14   1.529192 S    
C52   C55   1.408775 A    
C20   C26   1.380687 A    
C19   H39   1.078341 S    
C43   C65   1.393759 A    
C47   C48   1.409420 A    
C46   C47   1.411195 A    
C16   H36   1.108053 S    
O8    Ba1   2.725342 S    
C15   H33   1.109640 S    
C27   C35   1.557761 S    
P1    O2    1.588061 S    
C6    H13   1.109820 S    
Ba1   O20   2.953561 S    
P2    O10   1.761131 S    
C11   C12   1.520149 S    
C21   C22   1.400103 A    
C12   H27   1.110885 S    
C18   C26   1.383010 A    
H1    C10   1.110657 S    
C19   C20   1.397475 A    
C71   H69   1.110795 S    
P8    O24   1.746365 S    
P3    O8    1.750188 S    
C66   H58   1.080301 S    
C30   C31   1.383724 A    
N3    O29   1.300367 A    
H51   C54   1.083265 S    
H35   C16   1.109453 S    
O2    Ba1   2.938060 S    
P4    C18   1.851486 S    
C1    H3    1.107685 S    
C23   C27   1.434232 A    
C60   C68   1.315286 D    
P2    O20   1.546804 S    
C70   H64   1.107477 S    
C17   C18   1.416707 A    
C21   C27   1.421394 A    
C3    H6    1.109954 S    
P2    Ba1   3.418802 S    
N1    C46   1.386048 Am   
C9    H20   1.110908 S    
P2    C65   1.846325 S    
C45   O25   1.222657 D    
C17   C25   1.437567 A    
C15   C16   1.521181 S    
C71   H67   1.111157 S    
O13   Ba2   2.938961 S    
N2    C57   1.388845 Am   
C4    O15   1.398161 S    
P6    C22   1.829798 S    
C48   C52   1.420194 A    
C7    H15   1.105914 S    
C53   C54   1.396836 A    
C58   C62   1.358183 D    
Ba1   O16   2.757754 S    
C13   H29   1.111852 S    
C45   N1    1.385303 Am   
C15   O24   1.403910 S    
C50   C51   1.407131 A    
C69   H63   1.110648 S    
C37   C38   1.435046 A    
C46   O26   1.221452 D    
C63   H54   1.082518 S    
C55   C56   1.411764 A    
Ba1   Ba2   4.577690 S    
C6    H12   1.105694 S    
Ba2   O21   2.830993 S    
C22   C28   1.381909 A    
C44   C45   1.408577 A    
P2    O7    1.523739 D    
C8    N3    1.467156 S    
C40   C41   1.376611 A    
C12   H25   1.110513 S    
C15   H34   1.106867 S    
C56   O27   1.222258 D    
P8    O23   1.537243 D    
C10   H21   1.112028 S    
C70   H65   1.109905 S    
C1    C10   1.521830 S    
C58   C59   1.515041 S    
C68   H60   1.085738 S    
C63   C67   1.409561 A    
C21   H40   1.079745 S    
C59   C68   1.503170 S    
C33   C35   1.432003 A    
P3    C64   1.829900 S    
O3    Ba1   2.730866 S    
P7    C60   1.817765 S    
C49   C50   1.394253 A    
C69   H61   1.108486 S    
C8    H17   1.101519 S    
C42   H50   1.063798 S    
O19   C13   1.405356 S    
C17   H38   1.080912 S    
P4    Ba2   3.453719 S    
P7    O22   1.751336 S    
C61   H56   1.084812 S    
C29   C30   1.395671 A    
P3    O9    1.543568 D    
C5    H9    1.110156 S    
C60   C61   1.324095 D    
O1    Ba1   2.898118 S    
C34   C38   1.439559 A    
C1    H22   1.109225 S    
C63   C64   1.398814 A    
C32   C33   1.405380 A    
C44   C48   1.409408 A    
H52   C53   1.083266 S    
C2    C71   1.527552 S    
O6    C10   1.404833 S    
C12   H26   1.110499 S    
C44   C49   1.406162 A    
