data_mof_unit_51836.cif
_audit_creation_date              2012-12-10T18:23:55-0500
_audit_creation_method            fapswitch 2.2
_symmetry_space_group_name_H-M    P1
_symmetry_Int_Tables_number       1
_space_group_crystal_system       triclinic
_cell_length_a                    15.715645
_cell_length_b                    14.903363
_cell_length_c                    14.020776
_cell_angle_alpha                 90.11189
_cell_angle_beta                  90.451864
_cell_angle_gamma                 89.503067
_cell_volume                      3283.65807961

loop_
_atom_site_label
_atom_site_type_symbol
_atom_type_description
_atom_site_fract_x
_atom_site_fract_y
_atom_site_fract_z
_atom_type_partial_charge
C1    C     C_R   0.501701 0.327019 0.499854 0.949811
C2    C     C_R   0.497810 0.672929 0.500049 0.934822
C3    C     C_R   0.496511 0.768070 0.500214 -0.171476
C4    C     C_R   0.502411 0.231812 0.499424 -0.169584
C5    C     C_R   0.574170 0.811523 0.498979 -0.307022
C6    C     C_R   0.425205 0.188528 0.509383 -0.309496
C7    C     C_R   0.576533 0.904414 0.501292 0.024721
C8    C     C_R   0.422879 0.095567 0.510754 0.029210
C9    C     C_R   0.498962 0.953138 0.505252 -0.045028
C10   C     C_R   0.500293 0.046748 0.504895 -0.042308
C11   C     C_R   0.419988 0.908206 0.507696 -0.026653
C12   C     C_R   0.578921 0.091596 0.496399 -0.034498
C13   C     C_R   0.654875 0.949430 0.499459 0.481910
C14   C     C_R   0.344763 0.050639 0.517473 0.479751
C15   C     C_R   0.655401 0.042550 0.494438 -0.285631
C16   C     C_R   0.343749 0.957375 0.513545 -0.277962
C17   C     C_R   0.439393 0.548240 0.797758 -0.047611
C18   C     C_R   0.560944 0.452298 0.202203 -0.052054
C19   C     C_R   0.560683 0.451911 0.798631 -0.056853
C20   C     C_R   0.439134 0.547858 0.201386 -0.053021
C21   C     C_R   0.562252 0.450903 0.899285 0.014630
C22   C     C_R   0.437677 0.549054 0.100732 0.018122
C23   C     C_R   0.337839 0.499688 0.499641 0.912792
C24   C     C_R   0.662190 0.500287 0.500448 0.921290
C25   C     C_R   0.500007 0.500044 0.949405 0.085162
C26   C     C_R   0.499994 0.500032 0.050595 0.085413
C27   C     C_R   0.437794 0.549220 0.898384 0.011371
C28   C     C_R   0.562362 0.451080 0.101607 0.016643
C29   C     C_R   0.624279 0.402196 0.950784 -0.203628
C30   C     C_R   0.375721 0.597863 0.049247 -0.208488
C31   C     C_R   0.624386 0.402351 0.051045 -0.204044
C32   C     C_R   0.375793 0.597969 0.948981 -0.197284
C33   C     C_3   0.973575 0.436440 0.564639 -0.510006
C34   C     C_3   0.026423 0.564891 0.438211 -0.520557
C35   C     C_3   0.027217 0.420079 0.474243 0.444651
C36   C     C_3   0.973021 0.581829 0.529112 0.462303
C37   C     C_1   0.249058 0.499281 0.498898 -0.167896
C38   C     C_1   0.751026 0.501046 0.501857 -0.179629
C39   C     C_3   0.029448 0.518420 0.588727 0.438434
C40   C     C_3   0.970525 0.482745 0.414728 0.434383
C41   C     C_3   0.083092 0.500765 0.499185 -0.043797
C42   C     C_3   0.917113 0.500664 0.504044 -0.042174
C43   C     C_1   0.173831 0.499518 0.498697 0.064807
C44   C     C_1   0.826282 0.501221 0.503353 0.073540
C45   C     C_R   0.418907 0.814676 0.502794 0.425035
C46   C     C_R   0.579241 0.185015 0.489207 0.423478
H1    H     H_    0.672739 0.364037 0.913548 0.142523
H2    H     H_    0.327233 0.635973 0.086502 0.138538
H3    H     H_    0.672927 0.364319 0.089022 0.141326
H4    H     H_    0.327344 0.636144 0.911037 0.148318
H5    H     H_    0.949129 0.385096 0.614411 0.169629
H6    H     H_    0.051188 0.613955 0.386120 0.165613
H7    H     H_    0.632480 0.772132 0.496048 0.186254
H8    H     H_    0.367181 0.228084 0.515061 0.185729
H9    H     H_    0.716063 0.076099 0.489268 0.198075
H10   H     H_    0.282887 0.923867 0.514740 0.199123
H11   H     H_    0.392273 0.585849 0.757271 0.149651
H12   H     H_    0.608595 0.415466 0.242581 0.130209
H13   H     H_    0.607819 0.414338 0.758810 0.140712
H14   H     H_    0.391832 0.585190 0.241195 0.120123
N1    N     N_R   0.500040 0.500070 0.750030 -0.107928
N2    N     N_R   0.499960 0.499930 0.249970 -0.102786
O1    O     O_R   0.500020 0.367860 0.580280 -0.615718
O2    O     O_R   0.499980 0.632140 0.419720 -0.636445
O3    O     O_R   0.500020 0.367840 0.419730 -0.631320
O4    O     O_R   0.499980 0.632160 0.580270 -0.607757
O5    O     O_R   0.376770 0.500000 0.580260 -0.610829
O6    O     O_R   0.623230 0.500000 0.419740 -0.612849
O7    O     O_R   0.376780 0.499980 0.419710 -0.631167
O8    O     O_R   0.623220 0.500020 0.580290 -0.622388
Zn1   Zn    Zn3+2 0.499990 0.500020 0.607200 0.968656
Zn2   Zn    Zn3+2 0.500010 0.499980 0.392800 0.950580
O9    O     O_3   0.062525 0.338205 0.441974 -0.645302
C47   C     C_3   0.000622 0.269926 0.442346 0.117462
H15   H     H_    0.003315 0.234515 0.372625 0.160778
H16   H     H_    0.933948 0.295048 0.449974 0.146876
C48   C     C_3   0.021841 0.202909 0.521630 -0.337911
H17   H     H_    0.084246 0.170702 0.506368 0.251976
H18   H     H_    0.026880 0.238679 0.591017 0.222372
C49   C     C_3   0.954329 0.130452 0.529276 -1.003759
H19   H     H_    0.891617 0.160907 0.546922 0.275339
H20   H     H_    0.972639 0.082900 0.586896 0.272035
H21   H     H_    0.948894 0.092742 0.461119 0.270780
O10   O     O_3   0.934426 0.662028 0.562121 -0.656475
C50   C     C_3   0.987787 0.736891 0.549342 0.081413
H22   H     H_    0.945804 0.797046 0.546258 0.178940
H23   H     H_    0.022438 0.735994 0.480601 0.134200
C51   C     C_3   0.049844 0.747514 0.633365 -0.330931
H24   H     H_    0.015665 0.736831 0.701387 0.234812
H25   H     H_    0.101797 0.696992 0.627365 0.257758
C52   C     C_3   0.089356 0.840583 0.635456 -0.984995
H26   H     H_    0.124520 0.853324 0.568654 0.270321
H27   H     H_    0.134514 0.845108 0.696531 0.276833
H28   H     H_    0.039388 0.893009 0.644174 0.270221
O11   O     O_3   0.931334 0.460712 0.327018 -0.606784
C53   C     C_3   0.992591 0.460526 0.254157 0.125414
H29   H     H_    0.048153 0.416819 0.272518 0.169564
H30   H     H_    0.014812 0.529946 0.240376 0.141628
C54   C     C_3   0.952305 0.424578 0.162983 -0.841800
H31   H     H_    0.897220 0.467457 0.141701 0.262199
H32   H     H_    0.999732 0.424553 0.104680 0.207665
H33   H     H_    0.930113 0.354869 0.174344 0.252008
O12   O     O_3   0.068369 0.537724 0.677339 -0.612306
C55   C     C_3   0.006928 0.535304 0.749985 0.112188
H34   H     H_    0.983824 0.465665 0.760217 0.145152
H35   H     H_    0.951941 0.580478 0.733566 0.166088
C56   C     C_3   0.047365 0.566244 0.843179 -0.847916
H36   H     H_    0.071038 0.635855 0.835781 0.252060
H37   H     H_    0.999582 0.564608 0.901068 0.208944
H38   H     H_    0.101469 0.521253 0.862591 0.264039
O13   O     O_3   0.342521 0.768968 0.505881 -0.625550
C57   C     C_3   0.314624 0.750914 0.411639 0.083560
H39   H     H_    0.345514 0.688470 0.385311 0.164097
H40   H     H_    0.328435 0.806574 0.360974 0.135543
C58   C     C_3   0.218837 0.737050 0.411206 -0.860388
H41   H     H_    0.185762 0.801935 0.424136 0.242800
H42   H     H_    0.198010 0.710525 0.340814 0.204782
H43   H     H_    0.200899 0.688800 0.467585 0.271558
O14   O     O_3   0.654621 0.230990 0.476861 -0.631036
C59   C     C_3   0.671609 0.235797 0.378085 0.067158
H44   H     H_    0.627018 0.283735 0.342849 0.162143
H45   H     H_    0.666041 0.169197 0.342235 0.142199
C60   C     C_3   0.761938 0.268428 0.363699 -0.814675
H46   H     H_    0.807689 0.218688 0.393819 0.242299
H47   H     H_    0.774587 0.276324 0.286360 0.211554
H48   H     H_    0.770979 0.334080 0.399596 0.272025
O15   O     O_3   0.731333 0.902808 0.495770 -0.648235
C61   C     C_3   0.758560 0.880451 0.589389 0.069834
H49   H     H_    0.787375 0.812167 0.586642 0.187303
H50   H     H_    0.705852 0.877028 0.642321 0.129193
C62   C     C_3   0.826300 0.946510 0.623690 -0.364436
H51   H     H_    0.879282 0.947403 0.571741 0.230488
H52   H     H_    0.798365 0.015089 0.628010 0.226928
C63   C     C_3   0.861356 0.920541 0.721684 -0.961963
H53   H     H_    0.809798 0.922400 0.775393 0.270518
H54   H     H_    0.911434 0.968680 0.743552 0.264992
H55   H     H_    0.889704 0.852066 0.719578 0.273167
O16   O     O_3   0.268346 0.097464 0.518365 -0.650464
C64   C     C_3   0.246393 0.119463 0.613374 0.058714
H56   H     H_    0.212911 0.185407 0.611609 0.177225
H57   H     H_    0.302482 0.128126 0.661902 0.129607
C65   C     C_3   0.186264 0.048974 0.653678 -0.371016
H58   H     H_    0.134805 0.035155 0.601026 0.243734
H59   H     H_    0.222298 0.985737 0.666870 0.223233
C66   C     C_3   0.146333 0.080236 0.746940 -0.949125
H60   H     H_    0.196596 0.093871 0.801056 0.268809
H61   H     H_    0.104044 0.027067 0.774494 0.266524
H62   H     H_    0.107727 0.142062 0.735078 0.264569

loop_
_geom_bond_atom_site_label_1
_geom_bond_atom_site_label_2
_ccdc_geom_bond_type
C56   H37   S    
O9    C47   S    
C23   O7    A    
C36   C42   S    
O11   C53   S    
C62   C63   S    
C61   H49   S    
C63   H55   S    
C55   H35   S    
C66   H60   S    
C24   O8    A    
C60   H46   S    
C39   C41   S    
C4    C46   A    
C50   H22   S    
C33   C39   S    
C47   H16   S    
C29   H1    S    
C34   C40   S    
C33   C42   S    
C5    H7    S    
C19   C21   A    
C6    H8    S    
C64   C65   S    
C50   C51   S    
C58   H41   S    
C53   C54   S    
C23   O5    A    
C57   H39   S    
C17   N1    A    
C18   H12   S    
C14   O16   S    
C2    O2    A    
C58   H42   S    
C47   C48   S    
C53   H30   S    
C1    O3    A    
C56   H36   S    
C51   C52   S    
O8    Zn1   S    
C14   C16   A    
C20   H14   S    
C9    C10   A    
O5    Zn1   S    
C59   C60   S    
C48   H17   S    
N1    Zn1   S    
C48   H18   S    
C41   C43   S    
C65   C66   S    
C34   C41   S    
C42   C44   S    
C31   H3    S    
C49   H21   S    
C1    O1    A    
C57   H40   S    
C55   H34   S    
C66   H61   S    
C59   H45   S    
C50   H23   S    
C64   H56   S    
C28   C31   A    
C47   H15   S    
C17   C27   A    
C18   C28   A    
O10   C50   S    
C12   C46   A    
C52   H26   S    
C5    C7    A    
C18   N2    A    
C60   H48   S    
C6    C8    A    
C19   H13   S    
C25   C26   A    
C23   C37   S    
C21   C29   A    
C3    C45   A    
C15   H9    S    
C37   C43   T    
O7    Zn2   S    
C16   H10   S    
C38   C44   T    
C52   H27   S    
C11   C16   A    
C24   C38   S    
O4    Zn1   S    
C12   C15   A    
O6    Zn2   S    
C58   H43   S    
C53   H29   S    
C62   H52   S    
N2    Zn2   S    
C55   C56   S    
C9    C11   A    
C32   H4    S    
C10   C12   A    
C4    C6    A    
C54   H32   S    
O1    Zn1   S    
C13   C15   A    
C56   H38   S    
C65   H59   S    
C11   C45   A    
C33   H5    S    
C20   C22   A    
C40   O11   S    
C62   H51   S    
C61   C62   S    
C3    C5    A    
C66   H62   S    
C59   H44   S    
C48   C49   S    
C30   H2    S    
C7    C9    A    
C21   C25   A    
C35   O9    S    
C8    C14   A    
C22   C30   A    
O13   C57   S    
C27   C32   A    
C34   H6    S    
C36   C39   S    
C36   O10   S    
C51   H25   S    
C49   H19   S    
C2    O4    A    
C61   H50   S    
C63   H54   S    
O14   C59   S    
C45   O13   S    
C39   O12   S    
C63   H53   S    
C25   C27   A    
O3    Zn2   S    
C26   C28   A    
C54   H31   S    
C1    C4    S    
C2    C3    S    
C29   C31   A    
C52   H28   S    
C30   C32   A    
C64   H57   S    
C19   N1    A    
C40   C42   S    
C33   C35   S    
C49   H20   S    
C46   O14   S    
C35   C40   S    
C34   C36   S    
O2    Zn2   S    
C20   N2    A    
C35   C41   S    
C60   H47   S    
O16   C64   S    
C24   O6    A    
C13   O15   S    
C7    C13   A    
C54   H33   S    
C51   H24   S    
C8    C10   A    
C22   C26   A    
O12   C55   S    
C65   H58   S    
C57   C58   S    
O15   C61   S    
C17   H11   S    
