data_mof_unit_51763.cif
_audit_creation_date              2012-12-10T16:54:00-0500
_audit_creation_method            fapswitch 2.2
_symmetry_space_group_name_H-M    P1
_symmetry_Int_Tables_number       1
_space_group_crystal_system       triclinic
_cell_length_a                    7.799408
_cell_length_b                    8.54345
_cell_length_c                    10.637204
_cell_angle_alpha                 91.321415
_cell_angle_beta                  84.385559
_cell_angle_gamma                 93.810798
_cell_volume                      703.740088567

loop_
_atom_site_label
_atom_site_type_symbol
_atom_type_description
_atom_site_fract_x
_atom_site_fract_y
_atom_site_fract_z
_atom_type_partial_charge
C1    C     C_R   0.545811 0.793794 0.486190 0.827357
C2    C     C_3   0.339472 0.588360 0.943128 -0.217176
C3    C     C_3   0.354839 0.608880 0.085180 -0.419919
C4    C     C_3   0.483684 0.327526 0.931689 0.302901
C5    C     C_3   0.663728 0.593203 0.917615 -0.402046
C6    C     C_3   0.497959 0.499531 0.879801 -0.040825
C7    C     C_1   0.172899 0.502090 0.926192 0.198749
C8    C     C_3   0.501162 0.509901 0.122640 0.056932
C9    C     C_3   0.475979 0.337092 0.077037 -0.450740
C10   C     C_3   0.674532 0.582976 0.059820 -0.357194
C11   C     C_2   0.570132 0.953434 0.452513 0.248154
C12   C     C_2   0.434168 0.041430 0.483671 -0.472299
C13   C     C_R   0.499438 0.498591 0.742489 0.881698
C14   C     C_R   0.455177 0.205804 0.492075 1.038708
C15   C     C_R   0.501615 0.509562 0.258463 0.867764
H1    H     H_    0.782095 0.509793 0.077613 0.223355
H2    H     H_    0.348793 0.285119 0.118614 0.164598
H3    H     H_    0.782172 0.551173 0.866329 0.239225
H4    H     H_    0.660277 0.718520 0.891800 0.195373
H5    H     H_    0.703310 0.702379 0.099537 0.232488
H6    H     H_    0.614772 0.990995 0.735015 0.369846
H7    H     H_    0.955998 0.836490 0.326870 0.368331
H8    H     H_    0.575989 0.268772 0.113002 0.256252
H9    H     H_    0.308729 0.992105 0.523050 0.190733
H10   H     H_    0.014539 0.383792 0.402819 0.233522
H11   H     H_    0.985662 0.616951 0.596687 0.194007
H12   H     H_    0.337768 0.706236 0.900817 0.178142
H13   H     H_    0.385904 0.735008 0.107570 0.194824
H14   H     H_    0.229351 0.576646 0.140943 0.200273
H15   H     H_    0.358257 0.270432 0.908484 0.124206
N1    N     N_2   0.950330 0.457950 0.465890 -0.133472
N2    N     N_2   0.049670 0.542050 0.534110 -0.167330
N3    N     N_1   0.045029 0.430062 0.914212 -0.127709
O1    O     O_R   0.389250 0.738570 0.508370 -0.645373
O2    O     O_2   0.694669 0.088485 0.960654 -0.284549
O3    O     O_3   0.535145 0.074599 0.759267 -0.595556
O4    O     O_2   0.746110 0.140404 0.273361 -0.278442
O5    O     O_2   0.895523 0.078131 0.456343 -0.307806
O6    O     O_3   0.854983 0.862420 0.283513 -0.561325
O7    O     O_R   0.678390 0.711620 0.486510 -0.605357
O8    O     O_R   0.355430 0.513500 0.696140 -0.621829
O9    O     O_R   0.644580 0.486550 0.674270 -0.582479
O10   O     O_R   0.321610 0.288380 0.513490 -0.606021
O11   O     O_R   0.610750 0.261430 0.491630 -0.511285
O12   O     O_R   0.355420 0.513450 0.325730 -0.653674
O13   O     O_R   0.644570 0.486500 0.303860 -0.602353
O14   O     O_2   0.793071 0.271632 0.791968 -0.255268
S1    S     S_3+6 0.636850 0.190953 0.861846 0.021737
S2    S     S_3+6 0.770863 0.015013 0.365376 0.041193
Zn1   Zn    Zn3+2 0.306940 0.517990 0.514600 0.984392
Zn2   Zn    Zn3+2 0.693060 0.482010 0.485400 1.065267

loop_
_geom_bond_atom_site_label_1
_geom_bond_atom_site_label_2
_ccdc_geom_bond_type
H10   N1    S    
C11   C12   D    
O10   Zn1   S    
H11   N2    S    
C2    H12   S    
C11   S2    S    
O7    Zn2   S    
O4    S2    D    
C12   H9    S    
O14   S1    D    
C1    O7    A    
O9    Zn2   S    
C13   O8    A    
C2    C3    S    
C8    C9    S    
C5    C10   S    
O5    S2    D    
C10   H1    S    
C6    C13   S    
C7    N3    T    
N2    Zn1   S    
C2    C6    S    
O12   Zn1   S    
C5    H4    S    
O2    S1    D    
O11   Zn2   S    
C9    H2    S    
C13   O9    A    
O6    S2    S    
C12   C14   S    
C1    O1    A    
O3    S1    S    
C8    C15   S    
C5    C6    S    
N1    N2    D    
C4    H15   S    
O1    Zn1   S    
C4    C6    S    
H7    O6    S    
O8    Zn1   S    
C3    H14   S    
C14   O11   A    
C3    C8    S    
C4    S1    S    
C10   H5    S    
H6    O3    S    
C15   O12   A    
C3    H13   S    
C5    H3    S    
C15   O13   A    
C4    C9    S    
O13   Zn2   S    
C8    C10   S    
C9    H8    S    
C2    C7    S    
N1    Zn2   S    
C14   O10   A    
C1    C11   S    
