data_mof_unit_62576.cif
_audit_creation_date              2013-03-05T16:14:37-0500
_audit_creation_method            fapswitch 2.2
_symmetry_space_group_name_H-M    P1
_symmetry_Int_Tables_number       1
_space_group_crystal_system       triclinic
_cell_length_a                    10.811775
_cell_length_b                    14.251627
_cell_length_c                    13.371493
_cell_angle_alpha                 89.994442
_cell_angle_beta                  89.859955
_cell_angle_gamma                 90.024252
_cell_volume                      2060.34529126

loop_
_atom_site_label
_atom_site_type_symbol
_atom_site_description
_atom_site_fract_x
_atom_site_fract_y
_atom_site_fract_z
_atom_type_partial_charge
O1    O     O_R   0.500000 0.373720 0.576470 -0.591493
O2    O     O_R   0.500000 0.373720 0.423530 -0.591942
C1    C     C_R   0.500164 0.326579 0.500005 1.026822
O3    O     O_R   0.314810 0.499990 0.576450 -0.576541
O4    O     O_R   0.314810 0.499990 0.423550 -0.604440
O5    O     O_R   0.685190 0.499990 0.576450 -0.604064
O6    O     O_R   0.685190 0.499990 0.423550 -0.576778
C2    C     C_R   0.254989 0.498996 0.500228 1.092866
C3    C     C_R   0.745024 0.498962 0.499776 1.091905
Zn1   Zn    Zn3+2 0.500000 0.500010 0.602090 1.122435
Zn2   Zn    Zn3+2 0.500000 0.500010 0.397910 1.122173
O7    O     O_R   0.500000 0.626290 0.576440 -0.589187
O8    O     O_R   0.500000 0.626290 0.423560 -0.589306
C4    C     C_R   0.499909 0.673433 0.499994 1.006844
C5    C     C_3   0.069724 0.449404 0.598226 0.044851
C6    C     C_3   0.073648 0.444612 0.403821 0.035950
C7    C     C_3   0.926344 0.446810 0.597609 0.035829
C8    C     C_3   0.930233 0.447137 0.403163 0.044730
H1    H     H_    0.094415 0.495024 0.662268 0.197597
H2    H     H_    0.104594 0.484698 0.337779 0.172400
H3    H     H_    0.895413 0.488376 0.662594 0.172383
H4    H     H_    0.905581 0.491213 0.337913 0.197728
C9    C     C_3   0.074483 0.606609 0.493564 0.241667
C10   C     C_3   0.925741 0.606724 0.503744 0.242041
C11   C     C_3   0.120750 0.498716 0.500241 -0.420617
C12   C     C_3   0.879285 0.498708 0.499792 -0.420542
C13   C     C_1   0.500125 0.225934 0.500013 -0.051373
C14   C     C_1   0.500086 0.141359 0.500010 0.087378
C15   C     C_1   0.500035 0.042290 0.500000 0.096897
C16   C     C_1   0.499992 0.957707 0.499991 0.097826
C17   C     C_1   0.499949 0.858639 0.499984 0.091342
C18   C     C_1   0.499923 0.774065 0.499983 -0.055290
N1    N     N_1   0.500000 0.499980 0.261870 -0.038851
N2    N     N_1   0.500000 0.499980 0.738130 -0.038894
C19   C     C_1   0.500004 0.499968 0.169431 0.197242
C20   C     C_1   0.499996 0.499968 0.830569 0.197430
C21   C     C_1   0.500002 0.499960 0.049526 0.022932
C22   C     C_1   0.499997 0.499960 0.950474 0.023005
N3    N     N_R   0.127931 0.357845 0.619727 0.266210
O9    O     O_R   0.091021 0.280757 0.577028 -0.212944
O10   O     O_R   0.206970 0.351567 0.692697 -0.335887
N4    N     N_R   0.127329 0.351158 0.382273 0.286616
O11   O     O_R   0.226742 0.321571 0.426743 -0.366115
O12   O     O_R   0.098872 0.311346 0.297719 -0.274485
N5    N     N_R   0.872684 0.353815 0.621594 0.286761
O13   O     O_R   0.773558 0.322911 0.577673 -0.363812
O14   O     O_R   0.900973 0.316052 0.707246 -0.275085
N6    N     N_R   0.871851 0.355125 0.384148 0.265286
O15   O     O_R   0.909069 0.278945 0.428461 -0.212932
O16   O     O_R   0.792003 0.347349 0.311919 -0.337028
N7    N     N_R   0.127448 0.669271 0.571650 0.240467
O17   O     O_R   0.105966 0.759068 0.566179 -0.230821
O18   O     O_R   0.195796 0.639645 0.644994 -0.367549
N8    N     N_R   0.118669 0.647041 0.396394 0.217401
O19   O     O_R   0.058440 0.638437 0.312625 -0.332515
O20   O     O_R   0.225879 0.688653 0.392661 -0.346853
N9    N     N_R   0.881561 0.649191 0.599891 0.217095
O21   O     O_R   0.773973 0.690212 0.602741 -0.349665
O22   O     O_R   0.941999 0.642713 0.683779 -0.331974
N10   N     N_R   0.872941 0.667766 0.424156 0.241144
O23   O     O_R   0.805647 0.636549 0.350912 -0.365415
O24   O     O_R   0.894203 0.757690 0.427723 -0.230848

loop_
_geom_bond_atom_site_label_1
_geom_bond_atom_site_label_2
_geom_bond_distance
_ccdc_geom_bond_type
O5    Zn1   2.030547 S    
O4    C2    1.210995 A    
O6    Zn2   2.032200 S    
C9    C10   1.613593 S    
C21   C22   1.324468 T    
C6    C11   1.587198 S    
C9    N7    1.489405 S    
C17   C18   1.205316 T    
C8    C12   1.584325 S    
O3    C2    1.208510 A    
C10   N10   1.489442 S    
O6    C3    1.208643 A    
O5    C3    1.211034 A    
C1    C13   1.434349 S    
O2    C1    1.223490 A    
Zn1   N2    1.819058 S    
C6    C8    1.551047 S    
C8    H4    1.108163 S    
O8    C4    1.223148 A    
C20   C22   1.603310 S    
C5    H1    1.108316 S    
C2    C11   1.451367 S    
Zn2   O8    1.832117 S    
C5    N3    1.477449 S    
N9    O21   1.302572 A    
C15   C16   1.205441 T    
N4    O12   1.302516 A    
N10   O23   1.299915 A    
N6    O15   1.301211 A    
C7    C12   1.587476 S    
Zn1   O7    1.832052 S    
N6    O16   1.301688 A    
C6    H2    1.102923 S    
C19   C21   1.603310 S    
O7    C4    1.223181 A    
C3    C12   1.451603 S    
O4    Zn2   2.030549 S    
N2    C20   1.236047 T    
N5    O14   1.302540 A    
C16   C17   1.411873 S    
N8    O20   1.302646 A    
N9    O22   1.302823 A    
C5    C11   1.584567 S    
N4    O11   1.300038 A    
O2    Zn2   1.832120 S    
N7    O18   1.299945 A    
O3    Zn1   2.032200 S    
N7    O17   1.302833 A    
N3    O9    1.301180 A    
C6    N4    1.481105 S    
Zn2   N1    1.819058 S    
C9    C11   1.619701 S    
N3    O10   1.301698 A    
C9    N8    1.498344 S    
N10   O24   1.302812 A    
C4    C18   1.434174 S    
C13   C14   1.205338 T    
C5    C7    1.550662 S    
N8    O19   1.302780 A    
C14   C15   1.411897 S    
N1    C19   1.236049 T    
N5    O13   1.300086 A    
C7    H3    1.103026 S    
O1    Zn1   1.832185 S    
C7    N5    1.481309 S    
C10   C12   1.619979 S    
C10   N9    1.498235 S    
O1    C1    1.223477 A    
C8    N6    1.477415 S    
