data_mof_unit_21157.cif
_audit_creation_date              2013-03-05T16:47:36-0500
_audit_creation_method            fapswitch 2.2
_symmetry_space_group_name_H-M    P1
_symmetry_Int_Tables_number       1
_space_group_crystal_system       triclinic
_cell_length_a                    18.109455
_cell_length_b                    18.14756
_cell_length_c                    18.371461
_cell_angle_alpha                 119.917837
_cell_angle_beta                  89.906651
_cell_angle_gamma                 119.854142
_cell_volume                      4287.35725691

loop_
_atom_site_label
_atom_site_type_symbol
_atom_site_description
_atom_site_fract_x
_atom_site_fract_y
_atom_site_fract_z
_atom_type_partial_charge
Zn1   Zn    Zn3+2 0.207400 0.586780 0.791530 0.979942
Zn2   Zn    Zn3+2 0.792600 0.413220 0.208470 0.979939
Zn3   Zn    Zn3+2 0.208510 0.413230 0.792630 0.963861
Zn4   Zn    Zn3+2 0.791490 0.586770 0.207370 0.963865
Zn5   Zn    Zn3+2 0.383150 0.586740 0.791530 0.952530
Zn6   Zn    Zn3+2 0.616850 0.413260 0.208470 0.952531
Zn7   Zn    Zn3+2 0.207400 0.413250 0.618010 0.961036
Zn8   Zn    Zn3+2 0.792600 0.586750 0.381990 0.961040
O1    O     O_3   0.251620 0.500000 0.748430 -0.484952
O2    O     O_3   0.748380 0.500000 0.251570 -0.484952
O3    O     O_R   0.134680 0.268390 0.572240 -0.650553
O4    O     O_R   0.865320 0.731610 0.427760 -0.650549
O5    O     O_R   0.306670 0.731630 0.863510 -0.639668
O6    O     O_R   0.693330 0.268370 0.136490 -0.639682
O7    O     O_R   0.135450 0.439270 0.865360 -0.645048
O8    O     O_R   0.864550 0.560730 0.134640 -0.645044
O9    O     O_R   0.429670 0.560710 0.692610 -0.640330
O10   O     O_R   0.570330 0.439290 0.307390 -0.640330
O11   O     O_R   0.308540 0.439240 0.865360 -0.647751
O12   O     O_R   0.691460 0.560760 0.134640 -0.647750
O13   O     O_R   0.133580 0.439310 0.571150 -0.631606
O14   O     O_R   0.866420 0.560690 0.428850 -0.631607
O15   O     O_R   0.430770 0.560690 0.864590 -0.647578
O16   O     O_R   0.569230 0.439310 0.135410 -0.647576
O17   O     O_R   0.133580 0.560760 0.692610 -0.612154
O18   O     O_R   0.866420 0.439240 0.307390 -0.612147
O19   O     O_R   0.134680 0.560740 0.864590 -0.637628
O20   O     O_R   0.865320 0.439260 0.135410 -0.637642
O21   O     O_R   0.306670 0.439270 0.571150 -0.644192
O22   O     O_R   0.693330 0.560730 0.428850 -0.644191
O23   O     O_R   0.135450 0.268370 0.694460 -0.636874
O24   O     O_R   0.864550 0.731630 0.305540 -0.636877
O25   O     O_R   0.429670 0.731610 0.863510 -0.648030
O26   O     O_R   0.570330 0.268390 0.136490 -0.648029
C1    C     C_R   0.111249 0.220103 0.610028 0.785149
C2    C     C_R   0.888750 0.779897 0.389972 0.785148
C3    C     C_R   0.392806 0.781241 0.888293 0.756484
C4    C     C_R   0.607194 0.218759 0.111707 0.756487
C5    C     C_R   0.110732 0.500735 0.889608 0.799988
C6    C     C_R   0.889270 0.499267 0.110394 0.799994
C7    C     C_R   0.392386 0.500180 0.607829 0.765309
C8    C     C_R   0.607613 0.499820 0.392171 0.765306
C9    C     C_R   0.393919 0.499406 0.888076 0.796229
C10   C     C_R   0.606081 0.500594 0.111924 0.796231
C11   C     C_R   0.109575 0.500976 0.608253 0.865943
C12   C     C_R   0.890423 0.499022 0.391747 0.865937
C13   C     C_3   0.062177 0.491981 0.465434 0.528259
C14   C     C_3   0.937817 0.508015 0.534569 0.528204
C15   C     C_3   0.051309 0.580717 0.492289 -0.551256
C16   C     C_3   0.948685 0.419280 0.507715 -0.551300
H1    H     H_    0.091754 0.645376 0.485016 0.171065
H2    H     H_    0.908241 0.354623 0.514989 0.171068
C17   C     C_3   0.948050 0.498428 0.447602 -0.245052
C18   C     C_3   0.051944 0.501569 0.552400 -0.245066
C19   C     C_3   0.960024 0.410825 0.420636 0.523622
C20   C     C_3   0.039970 0.589171 0.579367 0.523575
C21   C     C_3   0.448443 0.967119 0.923810 -0.184031
C22   C     C_3   0.551557 0.032881 0.076190 -0.184035
C23   C     C_3   0.552847 0.037907 0.959351 -0.170754
C24   C     C_3   0.447154 0.962093 0.040649 -0.170756
H3    H     H_    0.597080 0.070172 0.926505 0.123280
H4    H     H_    0.402921 0.929828 0.073495 0.123270
H5    H     H_    0.405508 0.939116 0.860599 0.124449
H6    H     H_    0.594492 0.060884 0.139401 0.124451
C25   C     C_3   0.549865 0.102431 0.052559 0.063837
C26   C     C_3   0.450135 0.897569 0.947442 0.063841
C27   C     C_3   0.446210 0.033083 0.017761 -0.150782
C28   C     C_3   0.553791 0.966917 0.982240 -0.150781
H7    H     H_    0.403139 0.062224 0.033689 0.124677
H8    H     H_    0.596864 0.937778 0.966313 0.124680
C29   C     C_3   0.413388 0.438491 0.448940 -0.136607
C30   C     C_3   0.586611 0.561509 0.551060 -0.136607
C31   C     C_3   0.476314 0.402719 0.442328 -0.179986
C32   C     C_3   0.523686 0.597281 0.557671 -0.179989
H9    H     H_    0.457876 0.322975 0.393988 0.128179
H10   H     H_    0.542123 0.677024 0.606011 0.128179
H11   H     H_    0.341458 0.388104 0.407761 0.142899
H12   H     H_    0.658542 0.611896 0.592239 0.142907
C33   C     C_3   0.550747 0.499899 0.449335 0.070494
C34   C     C_3   0.449253 0.500101 0.550664 0.070493
C35   C     C_3   0.488782 0.535744 0.455186 -0.190979
C36   C     C_3   0.511218 0.464256 0.544814 -0.190981
H13   H     H_    0.481077 0.565559 0.417785 0.124018
H14   H     H_    0.518923 0.434440 0.582215 0.124018
C37   C     C_R   0.155111 0.181671 0.830559 -0.207164
C38   C     C_R   0.844861 0.818307 0.169439 -0.207155
H15   H     H_    0.222100 0.214982 0.868313 0.158322
H16   H     H_    0.777866 0.784981 0.131686 0.158309
C39   C     C_R   0.134291 0.139171 0.739649 -0.162500
C40   C     C_R   0.865688 0.860811 0.260350 -0.162480
H17   H     H_    0.185361 0.140525 0.708492 0.125942
H18   H     H_    0.814618 0.859446 0.291509 0.125937
C41   C     C_R   0.048141 0.096187 0.689396 0.166062
C42   C     C_R   0.951846 0.903813 0.310602 0.166047
C43   C     C_R   0.982401 0.093618 0.730465 -0.224772
C44   C     C_R   0.017586 0.906397 0.269530 -0.224772
H19   H     H_    0.915393 0.059801 0.692265 0.143430
H20   H     H_    0.084600 0.940229 0.307729 0.143437
C45   C     C_R   0.002726 0.134534 0.820983 -0.225664
C46   C     C_R   0.997253 0.865479 0.179011 -0.225659
H21   H     H_    0.951067 0.132087 0.851473 0.174501
H22   H     H_    0.048911 0.867937 0.148519 0.174488
C47   C     C_R   0.089267 0.179039 0.871841 0.403855
C48   C     C_R   0.910704 0.820953 0.128155 0.403821
C49   C     C_R   0.969633 0.943038 0.536448 -0.266228
C50   C     C_R   0.030361 0.056962 0.463551 -0.266231
H23   H     H_    0.946731 0.899424 0.565498 0.180399
H24   H     H_    0.053263 0.100576 0.434501 0.180395
C51   C     C_R   0.944468 0.892278 0.444286 -0.058526
C52   C     C_R   0.055527 0.107722 0.555713 -0.058525
C53   C     C_R   0.974817 0.950052 0.407107 0.002633
C54   C     C_R   0.025175 0.049948 0.592891 0.002627
H25   H     H_    0.708688 0.690688 0.768542 0.116664
H26   H     H_    0.291312 0.309317 0.231461 0.116651
C55   C     C_R   0.637485 0.557164 0.773190 -0.151325
C56   C     C_R   0.362511 0.442838 0.226809 -0.151306
H27   H     H_    0.642905 0.507687 0.711556 0.104689
H28   H     H_    0.357087 0.492314 0.288441 0.104698
C57   C     C_R   0.593336 0.517755 0.820547 -0.140777
C58   C     C_R   0.406660 0.482245 0.179452 -0.140793
H29   H     H_    0.564381 0.437524 0.794863 0.111319
H30   H     H_    0.435611 0.562475 0.205133 0.111324
C59   C     C_R   0.586886 0.581970 0.900889 0.166453
C60   C     C_R   0.413113 0.418030 0.099112 0.166422
C61   C     C_R   0.625840 0.686221 0.933803 -0.042808
C62   C     C_R   0.374162 0.313781 0.066201 -0.042807
H31   H     H_    0.622085 0.736896 0.996136 0.095872
H32   H     H_    0.377920 0.263107 0.003870 0.095876
C63   C     C_R   0.668980 0.724957 0.885686 -0.049449
C64   C     C_R   0.331023 0.275047 0.114320 -0.049437
H33   H     H_    0.698299 0.805057 0.910823 0.109907
H34   H     H_    0.301707 0.194949 0.089185 0.109912
C65   C     C_R   0.674833 0.660482 0.805461 -0.052691
C66   C     C_R   0.325166 0.339522 0.194541 -0.052728
C67   C     C_R   0.590269 0.539203 0.007097 -0.247209
C68   C     C_R   0.409730 0.460796 0.992902 -0.247204
H35   H     H_    0.660188 0.568603 0.011713 0.198693
H36   H     H_    0.339811 0.431395 0.988286 0.198671
C69   C     C_R   0.550349 0.499388 0.055527 -0.061765
C70   C     C_R   0.449650 0.500612 0.944473 -0.061762
C71   C     C_R   0.459025 0.459377 0.048504 -0.030530
C72   C     C_R   0.540975 0.540623 0.951496 -0.030540
C73   C     C_R   0.157194 0.820180 0.992460 -0.348134
C74   C     C_R   0.842860 0.179803 0.007506 -0.347963
H37   H     H_    0.218093 0.897061 0.037803 0.154814
H38   H     H_    0.781993 0.102893 0.962125 0.154799
C75   C     C_R   0.132862 0.747196 0.011265 -0.219960
C76   C     C_R   0.867190 0.252782 0.988694 -0.220084
H39   H     H_    0.175541 0.768600 0.069230 0.149372
H40   H     H_    0.824542 0.231346 0.930684 0.149377
C77   C     C_R   0.053850 0.647334 0.955950 0.116968
C78   C     C_R   0.946164 0.352681 0.044061 0.116987
C79   C     C_R   0.998281 0.621011 0.882161 -0.347802
C80   C     C_R   0.001699 0.379045 0.117905 -0.347622
H41   H     H_    0.937961 0.542825 0.839755 0.142292
H42   H     H_    0.061989 0.457259 0.160358 0.142310
C81   C     C_R   0.020704 0.695126 0.863599 0.583404
C82   C     C_R   0.979279 0.304933 0.136468 0.583176
C83   C     C_R   0.102381 0.794353 0.917330 0.623789
C84   C     C_R   0.897634 0.205674 0.082693 0.623827
C85   C     C_R   0.973569 0.567624 0.030320 -0.258317
C86   C     C_R   0.026439 0.432386 0.969687 -0.258319
H43   H     H_    0.953592 0.620725 0.053670 0.187175
H44   H     H_    0.046415 0.379284 0.946337 0.187178
C87   C     C_R   0.945644 0.497837 0.053843 -0.075064
C88   C     C_R   0.054364 0.502172 0.946164 -0.075064
C89   C     C_R   0.972474 0.429204 0.023019 0.039252
C90   C     C_R   0.027537 0.570808 0.976991 0.039259
N1    N     N_R   0.109676 0.220010 0.964598 0.187223
O27   O     O_R   0.192743 0.286676 0.017457 -0.453724
O28   O     O_R   0.045357 0.189062 0.996521 -0.416905
N2    N     N_R   0.890285 0.779973 0.035396 0.187221
O29   O     O_R   0.807220 0.713262 0.982534 -0.453744
O30   O     O_R   0.954591 0.810952 0.003473 -0.416787
O31   O     O_3   0.123920 0.475135 0.425727 -0.569612
C91   C     C_3   0.210503 0.568958 0.470325 -0.320989
H45   H     H_    0.231375 0.607002 0.543374 0.149143
H46   H     H_    0.213806 0.622702 0.455539 0.154793
H47   H     H_    0.259689 0.551800 0.445547 0.172790
O32   O     O_3   0.876075 0.524861 0.574279 -0.569639
C92   C     C_3   0.789489 0.431041 0.529672 -0.321001
H48   H     H_    0.786178 0.377283 0.544441 0.154776
H49   H     H_    0.768619 0.393013 0.456626 0.149153
H50   H     H_    0.740305 0.448200 0.554457 0.172799
O33   O     O_3   0.120541 0.865757 0.898201 -0.563414
C93   C     C_3   0.213642 0.935508 0.918431 -0.330477
H51   H     H_    0.248423 0.895730 0.896968 0.171412
H52   H     H_    0.245204 0.999430 0.990372 0.156875
H53   H     H_    0.222466 0.971395 0.881955 0.182400
O34   O     O_3   0.879472 0.134281 0.101836 -0.563448
C94   C     C_3   0.786368 0.064523 0.081586 -0.330446
H54   H     H_    0.754823 0.000589 0.009649 0.156879
H55   H     H_    0.751575 0.104289 0.103013 0.171400
H56   H     H_    0.777532 0.028653 0.118080 0.182385
O35   O     O_3   0.968091 0.673241 0.791051 -0.544736
C95   C     C_3   0.874807 0.607135 0.773707 -0.173998
H57   H     H_    0.856543 0.626598 0.835545 0.196310
H58   H     H_    0.851733 0.524688 0.732644 0.142028
H59   H     H_    0.837961 0.616650 0.734620 0.199764
O36   O     O_3   0.031864 0.326877 0.209075 -0.544707
C96   C     C_3   0.125148 0.392835 0.226324 -0.174041
H60   H     H_    0.148323 0.475313 0.267331 0.141978
H61   H     H_    0.143348 0.373239 0.164449 0.196363
H62   H     H_    0.161960 0.383309 0.265430 0.199793
O37   O     O_3   0.918142 0.319068 0.333758 -0.562155
C97   C     C_3   0.926497 0.246093 0.334190 -0.157409
H63   H     H_    0.882680 0.215472 0.368203 0.103837
H64   H     H_    0.997596 0.278726 0.365067 0.196976
H65   H     H_    0.903545 0.179609 0.264709 0.219417
O38   O     O_3   0.081851 0.680925 0.666247 -0.562229
C98   C     C_3   0.073492 0.753901 0.665821 -0.157467
H66   H     H_    0.002392 0.721267 0.634948 0.197006
H67   H     H_    0.117306 0.784524 0.631808 0.103863
H68   H     H_    0.096445 0.820382 0.735304 0.219435

loop_
_geom_bond_atom_site_label_1
_geom_bond_atom_site_label_2
_geom_bond_distance
_ccdc_geom_bond_type
C45   C47   1.404730 A    
Zn7   O1    1.961887 S    
O34   C94   1.411039 S    
Zn7   O21   1.936809 S    
C29   H11   1.110219 S    
C31   H9    1.110106 S    
N1    O27   1.300200 A    
C26   C28   1.538045 S    
C30   C36   1.546494 S    
C14   C20   1.533627 S    
C21   C26   1.538713 S    
C74   C76   1.393804 A    
C38   C48   1.405616 A    
C7    C34   1.469658 S    
C13   C15   1.548563 S    
O37   C97   1.409534 S    
N2    O29   1.300180 A    
Zn2   O20   1.940750 S    
C73   C75   1.393806 A    
C49   H23   1.084941 S    
C16   C18   1.550063 S    
C32   H10   1.110105 S    
O24   C2    1.276742 A    
C60   C62   1.405020 A    
C75   H39   1.083249 S    
C76   H40   1.083332 S    
C80   C82   1.415440 A    
C30   C33   1.536598 S    
C51   C53   1.416790 A    
C43   C45   1.396564 A    
C21   C23   1.549363 S    
Zn5   O9    1.941742 S    
C74   C84   1.416428 A    
O20   C6    1.270267 A    
C22   C24   1.549363 S    
C77   C90   1.476883 S    
C73   H37   1.080985 S    
C42   C53   1.480323 S    
C46   C48   1.404725 A    
O15   C9    1.267765 A    
C86   C89   1.384016 A    
C59   C72   1.480200 S    
C24   H4    1.110192 S    
C96   H60   1.111220 S    
C30   H12   1.110219 S    
O10   C8    1.283291 A    
C85   H43   1.085236 S    
C86   C88   1.397857 A    
C40   H18   1.083176 S    
C82   C84   1.408851 A    
C91   H47   1.109502 S    
C25   C27   1.538040 S    
C24   C27   1.548910 S    
C58   H30   1.083023 S    
O36   C96   1.413220 S    
C15   H1    1.109774 S    
C44   H20   1.083237 S    
C16   H2    1.109772 S    
Zn3   O11   1.953736 S    
C64   H34   1.082102 S    
O4    C2    1.290565 A    
C80   H42   1.081964 S    
C37   C47   1.405627 A    
C68   C70   1.398379 A    
C48   N2    1.434546 S    
O21   C7    1.279697 A    
C86   H44   1.085237 S    
C91   H46   1.111182 S    
C24   C26   1.539079 S    
C8    C33   1.469658 S    
C87   C89   1.416380 A    
H25   C65   1.082276 S    
Zn1   O17   1.958613 S    
C96   H61   1.113312 S    
C64   C66   1.398306 A    
C21   C27   1.549412 S    
C95   H59   1.109365 S    
Zn6   O10   1.941739 S    
C33   C35   1.533145 S    
C29   C34   1.536598 S    
C35   H13   1.109363 S    
O11   C9    1.274280 A    
C40   C42   1.403403 A    
O13   C11   1.276102 A    
C50   C53   1.380162 A    
C17   C19   1.541782 S    
C22   H6    1.110067 S    
C14   C17   1.539846 S    
C19   O37   1.411000 S    
C18   C20   1.541780 S    
C23   H3    1.110193 S    
O9    C7    1.283290 A    
C37   H15   1.082861 S    
C94   H54   1.110018 S    
C85   C90   1.384024 A    
C88   C90   1.416386 A    
Zn1   O1    1.938557 S    
C30   C32   1.546650 S    
C38   C40   1.397851 A    
C92   H49   1.112712 S    
O19   C5    1.270263 A    
C29   C31   1.546650 S    
C37   C39   1.397852 A    
C97   H63   1.111144 S    
C55   C65   1.397982 A    
C55   H27   1.082217 S    
C92   H48   1.111177 S    
Zn8   O14   1.947109 S    
C39   C41   1.403402 A    
O25   C3    1.285597 A    
Zn6   O26   1.923764 S    
Zn5   O25   1.923763 S    
C27   H7    1.108730 S    
Zn4   O8    1.935466 S    
C75   C77   1.396550 A    
C94   H55   1.114125 S    
Zn5   O1    1.951504 S    
C68   C71   1.375897 A    
Zn3   O1    1.948831 S    
C61   H31   1.083151 S    
C61   C63   1.398842 A    
C23   C28   1.548910 S    
O6    C4    1.283092 A    
C74   H38   1.081057 S    
C22   C25   1.538714 S    
Zn7   O3    1.924601 S    
C98   H66   1.112846 S    
Zn5   O15   1.952263 S    
C4    C25   1.499536 S    
Zn8   O4    1.924600 S    
Zn6   O16   1.952263 S    
C3    C26   1.499536 S    
C46   H22   1.082885 S    
H26   C66   1.082277 S    
C9    C70   1.432259 S    
Zn2   O18   1.958611 S    
C56   C66   1.397982 A    
C42   C44   1.402023 A    
C1    C52   1.448335 S    
O7    C5    1.282109 A    
C79   H41   1.081867 S    
Zn4   O24   1.931227 S    
C57   H29   1.083022 S    
O8    C6    1.282109 A    
C13   C18   1.539835 S    
C63   C65   1.398305 A    
C68   H36   1.085229 S    
C91   H45   1.112715 S    
O14   C12   1.276100 A    
C49   C54   1.380158 A    
C78   C80   1.399532 A    
C11   C18   1.472373 S    
O12   C10   1.274281 A    
C10   C69   1.432259 S    
C55   C57   1.398834 A    
C85   C87   1.397860 A    
O16   C10   1.267763 A    
C96   H62   1.109358 S    
O23   C1    1.276748 A    
C60   C71   1.480200 S    
C39   H17   1.083180 S    
C32   C35   1.547694 S    
C93   H52   1.110017 S    
Zn2   O2    1.938559 S    
O17   C11   1.274061 A    
C31   C36   1.547694 S    
C14   O32   1.411047 S    
C78   C89   1.476866 S    
Zn3   O7    1.935468 S    
O32   C92   1.408392 S    
C67   C72   1.375896 A    
C47   N1    1.434550 S    
C13   C19   1.533627 S    
C50   C52   1.397056 A    
C92   H50   1.109504 S    
C22   C28   1.549412 S    
C82   O36   1.393348 S    
C67   H35   1.085227 S    
C49   C51   1.397054 A    
C62   H32   1.083152 S    
C98   H67   1.111142 S    
O26   C4    1.285598 A    
O5    C3    1.283094 A    
C6    C87   1.455439 S    
Zn8   O2    1.961887 S    
C76   C78   1.396649 A    
C21   H5    1.110067 S    
C70   C72   1.410933 A    
C95   H57   1.113360 S    
C31   C33   1.533330 S    
Zn6   O2    1.951503 S    
C81   C83   1.408794 A    
C43   H19   1.083239 S    
C73   C83   1.416338 A    
C57   C59   1.403357 A    
C15   C20   1.552541 S    
C81   O35   1.393305 S    
C67   C69   1.398379 A    
C36   H14   1.109362 S    
C16   C19   1.552541 S    
Zn8   O22   1.936810 S    
C83   O33   1.392989 S    
C5    C88   1.455433 S    
O3    C1    1.290561 A    
C94   H56   1.109111 S    
C84   O34   1.392970 S    
O31   C91   1.408390 S    
Zn7   O13   1.947110 S    
C23   C25   1.539078 S    
Zn3   O23   1.931227 S    
C69   C71   1.410935 A    
C97   H65   1.106364 S    
O33   C93   1.411040 S    
C50   H24   1.084942 S    
C93   H53   1.109103 S    
C15   C17   1.550070 S    
C44   C46   1.396567 A    
C12   C17   1.472374 S    
C14   C16   1.548563 S    
N2    O30   1.300387 A    
C34   C36   1.533144 S    
C56   H28   1.082218 S    
C20   O38   1.410999 S    
C38   H16   1.082859 S    
C77   C79   1.399434 A    
C79   C81   1.415485 A    
Zn2   O6    1.930267 S    
C52   C54   1.416783 A    
C95   H58   1.111307 S    
C59   C61   1.405019 A    
O18   C12   1.274070 A    
C41   C54   1.480315 S    
O35   C95   1.413264 S    
Zn4   O12   1.953737 S    
C56   C58   1.398834 A    
C98   H68   1.106363 S    
Zn1   O5    1.930267 S    
C41   C43   1.402027 A    
O38   C98   1.409533 S    
C2    C51   1.448335 S    
Zn1   O19   1.940748 S    
C28   H8    1.108735 S    
C62   C64   1.398840 A    
O22   C8    1.279697 A    
C32   C34   1.533331 S    
C63   H33   1.082101 S    
C93   H51   1.114113 S    
C97   H64   1.112850 S    
Zn4   O2    1.948828 S    
C45   H21   1.082892 S    
C13   O31   1.411042 S    
C58   C60   1.403357 A    
C29   C35   1.546495 S    
N1    O28   1.300432 A    
