data_mof_unit_41756.cif
_audit_creation_date              2013-03-05T15:41:46-0500
_audit_creation_method            fapswitch 2.2
_symmetry_space_group_name_H-M    P1
_symmetry_Int_Tables_number       1
_space_group_crystal_system       triclinic
_cell_length_a                    19.382507
_cell_length_b                    8.691384
_cell_length_c                    7.455216
_cell_angle_alpha                 103.180818
_cell_angle_beta                  93.158202
_cell_angle_gamma                 92.455222
_cell_volume                      1218.98375957

loop_
_atom_site_label
_atom_site_type_symbol
_atom_site_description
_atom_site_fract_x
_atom_site_fract_y
_atom_site_fract_z
_atom_type_partial_charge
O1    O     O_R   0.505010 0.286130 0.619770 -0.593074
O2    O     O_R   0.494990 0.713870 0.380230 -0.593073
O3    O     O_R   0.491990 0.256780 0.308370 -0.572936
O4    O     O_R   0.508010 0.743220 0.691630 -0.572936
C1    C     C_R   0.497919 0.199739 0.453158 0.890510
C2    C     C_R   0.502081 0.800261 0.546842 0.890508
O5    O     O_R   0.406650 0.514660 0.655750 -0.573335
O6    O     O_R   0.593350 0.485340 0.344250 -0.573336
O7    O     O_R   0.393640 0.485310 0.344340 -0.578210
O8    O     O_R   0.606360 0.514690 0.655660 -0.578211
C3    C     C_R   0.367359 0.498722 0.504585 0.814480
C4    C     C_R   0.632641 0.501278 0.495414 0.814481
Cu1   Cu    Cu3+1 0.507710 0.517380 0.684380 1.002120
Cu2   Cu    Cu3+1 0.492290 0.482620 0.315620 1.002121
C5    C     C_R   0.258318 0.515411 0.684387 -0.086878
C6    C     C_R   0.741682 0.484592 0.315612 -0.086875
C7    C     C_R   0.185480 0.513655 0.684397 0.305069
C8    C     C_R   0.814520 0.486349 0.315601 0.305070
C9    C     C_R   0.145444 0.490368 0.515618 -0.078607
C10   C     C_R   0.854556 0.509635 0.484379 -0.078609
C11   C     C_R   0.178034 0.466201 0.349941 -0.116423
C12   C     C_R   0.821966 0.533799 0.650057 -0.116422
H1    H     H_    0.147886 0.446695 0.219630 0.239195
H2    H     H_    0.852115 0.553305 0.780367 0.239197
C13   C     C_R   0.249565 0.470413 0.349719 -0.139436
C14   C     C_R   0.750435 0.529586 0.650279 -0.139433
H3    H     H_    0.272389 0.452586 0.218527 0.218268
H4    H     H_    0.727612 0.547410 0.781472 0.218270
C15   C     C_R   0.291002 0.495896 0.514952 -0.172876
C16   C     C_R   0.708998 0.504104 0.485048 -0.172879
N1    N     N_R   0.030374 0.398680 0.367546 -0.176543
N2    N     N_R   0.969626 0.601324 0.632450 -0.176543
N3    N     N_R   0.961853 0.403555 0.359574 -0.127931
N4    N     N_R   0.038147 0.596448 0.640423 -0.127931
C17   C     C_R   0.930290 0.505496 0.491350 0.469894
C18   C     C_R   0.069710 0.494507 0.508646 0.469894
C19   C     C_2   0.496874 0.031662 0.427029 -0.337375
C20   C     C_2   0.503126 0.968338 0.572971 -0.337375
H5    H     H_    0.490939 0.959690 0.286557 0.185397
H6    H     H_    0.509060 0.040310 0.713443 0.185398
N5    N     N_2   0.480680 0.456420 0.038530 -0.215429
N6    N     N_2   0.519320 0.543580 0.961470 -0.215432
H7    H     H_    0.448826 0.372488 0.948355 0.261398
H8    H     H_    0.551174 0.627511 0.051645 0.261395
C21   C     C_2   0.298466 0.525205 0.860705 0.913888
O9    O     O_2   0.315772 0.403547 0.901996 -0.616889
O10   O     O_R   0.317288 0.672874 0.977340 -0.712403
H9    H     H_    0.345592 0.664224 0.092709 0.336483
C22   C     C_2   0.701533 0.474800 0.139295 0.913893
O11   O     O_2   0.684231 0.596459 0.098001 -0.616889
O12   O     O_R   0.682706 0.327133 0.022667 -0.712407
H10   H     H_    0.654402 0.335784 0.907298 0.336484
N7    N     N_R   0.152337 0.525926 0.854347 0.107891
O13   O     O_R   0.107197 0.415852 0.871504 -0.327302
O14   O     O_R   0.165791 0.649022 0.990312 -0.318945
N8    N     N_R   0.847663 0.474078 0.145650 0.107892
O15   O     O_R   0.892803 0.584151 0.128493 -0.327300
O16   O     O_R   0.834207 0.350985 0.009684 -0.318955

loop_
_geom_bond_atom_site_label_1
_geom_bond_atom_site_label_2
_geom_bond_distance
_ccdc_geom_bond_type
C20   H6    1.087690 S    
O7    Cu2   1.936263 S    
N1    N3    1.329091 A    
C5    C15   1.423154 A    
C19   C20   1.328789 D    
C1    C19   1.428151 S    
C13   H3    1.077387 S    
N5    H7    1.028256 S    
N5    N6    1.289227 D    
C14   H4    1.077384 S    
O10   H9    1.013619 S    
C8    N8    1.436419 S    
O6    C4    1.301696 A    
C4    C16   1.485703 S    
C22   O12   1.397275 S    
C11   H1    1.080669 S    
C19   H5    1.087690 S    
C21   O9    1.221788 D    
C6    C22   1.473522 S    
O5    C3    1.301696 A    
O7    C3    1.307259 A    
O2    C2    1.293275 A    
O3    Cu2   1.950996 S    
N6    H8    1.028255 S    
Cu2   N5    2.024782 S    
O1    C1    1.293274 A    
O8    C4    1.307260 A    
C6    C8    1.411216 A    
Cu1   N6    2.024782 S    
C9    C11   1.395620 A    
C10   C12   1.395620 A    
C14   C16   1.401019 A    
N4    C18   1.356509 A    
C9    C18   1.468253 S    
N7    O14   1.300966 A    
C13   C15   1.401021 A    
O2    Cu2   1.954760 S    
C12   H2    1.080669 S    
O1    Cu1   1.954760 S    
C5    C21   1.473522 S    
C6    C16   1.423154 A    
O12   H10   1.013618 S    
N2    C17   1.356172 A    
C7    N7    1.436419 S    
O5    Cu1   1.957208 S    
N8    O15   1.301360 A    
C3    C15   1.485703 S    
C8    C10   1.410397 A    
O4    C2    1.288183 A    
C22   O11   1.221784 D    
C12   C14   1.385473 A    
C21   O10   1.397280 S    
O4    Cu1   1.950996 S    
C5    C7    1.411216 A    
C11   C13   1.385473 A    
N1    C18   1.356172 A    
C7    C9    1.410398 A    
O6    Cu2   1.957208 S    
N3    C17   1.356510 A    
C2    C20   1.428151 S    
Cu1   Cu2   2.694730 S    
C10   C17   1.468253 S    
N7    O13   1.301361 A    
N8    O16   1.300962 A    
O3    C1    1.288182 A    
O8    Cu1   1.936261 S    
N2    N4    1.329091 A    
