data_mof_unit_67595.cif
_audit_creation_date              2012-10-26T20:20:48-0400
_audit_creation_method            fapswitch 2.2
_symmetry_space_group_name_H-M    P1
_symmetry_Int_Tables_number       1
_space_group_crystal_system       triclinic
_cell_length_a                    8.849773
_cell_length_b                    10.940955
_cell_length_c                    9.699177
_cell_angle_alpha                 91.722484
_cell_angle_beta                  98.304354
_cell_angle_gamma                 96.902605
_cell_volume                      921.46479888

loop_
_atom_site_label
_atom_site_type_symbol
_atom_type_description
_atom_site_fract_x
_atom_site_fract_y
_atom_site_fract_z
_atom_type_partial_charge
C1    C     C_R   0.503789 0.262481 0.497737 0.573368
C2    C     C_R   0.582527 0.073902 0.609258 0.100213
C3    C     C_R   0.487534 0.870067 0.502207 0.005718
C4    C     C_R   0.509818 0.127690 0.492585 -0.004425
C5    C     C_R   0.404201 0.412423 0.059530 0.207615
C6    C     C_R   0.611502 0.571969 0.943068 0.237417
C7    C     C_R   0.402596 0.412024 0.909497 0.354589
C8    C     C_R   0.597214 0.586356 0.089339 0.345849
C9    C     C_3   0.940931 0.414046 0.223460 -0.001158
C10   C     C_3   0.830123 0.317042 0.133707 -0.373190
C11   C     C_3   0.097722 0.723785 0.595432 -0.012960
C12   C     C_R   0.492167 0.736336 0.500514 0.564053
C13   C     C_3   0.197645 0.809343 0.708668 -0.354151
C14   C     C_3   0.398628 0.017962 0.115284 -0.307747
C15   C     C_3   0.819229 0.881971 0.703087 -0.309489
C16   C     C_3   0.241260 0.770457 0.217613 -0.283725
C17   C     C_3   0.621803 0.161910 0.845293 -0.258305
C18   C     C_3   0.177517 0.246225 0.050528 -0.301038
C19   C     C_3   0.876218 0.690001 0.954167 -0.303857
C20   C     C_3   0.211277 0.296593 0.741430 0.033762
C21   C     C_3   0.119820 0.167764 0.724232 -0.443293
C22   C     C_3   0.761274 0.734634 0.243905 0.023556
C23   C     C_R   0.203760 0.492328 0.464048 0.516278
C24   C     C_3   0.802941 0.874093 0.261507 -0.401681
C25   C     C_R   0.796580 0.505995 0.535657 0.580082
C26   C     C_2   0.035634 0.476448 0.449467 0.192851
C27   C     C_2   0.964734 0.529052 0.548000 0.222472
C28   C     C_R   0.442160 0.051460 0.373452 0.087779
C29   C     C_R   0.575916 0.945524 0.611806 0.080626
C30   C     C_R   0.404851 0.924167 0.389671 0.119894
Cu1   Cu    Cu3+1 0.500000 0.500020 0.640660 0.992059
Cu2   Cu    Cu3+1 0.500000 0.499980 0.359340 0.920242
H1    H     H_    0.053140 0.421738 0.185167 0.150798
H2    H     H_    0.245714 0.893674 0.661475 0.099121
H3    H     H_    0.529944 0.161901 0.228855 0.279596
H4    H     H_    0.472379 0.942578 0.122738 0.168498
H5    H     H_    0.421741 0.069297 0.023593 0.127194
H6    H     H_    0.274363 0.984553 0.096524 0.157563
H7    H     H_    0.649470 0.920152 0.822051 0.256643
H8    H     H_    0.852097 0.931554 0.611151 0.127988
H9    H     H_    0.828290 0.783224 0.685479 0.199931
H10   H     H_    0.899618 0.921073 0.796846 0.104413
H11   H     H_    0.172606 0.923980 0.312644 0.250255
H12   H     H_    0.894366 0.502792 0.210596 0.124668
H13   H     H_    0.166206 0.795771 0.124056 0.086754
H14   H     H_    0.184048 0.683862 0.252102 0.160356
H15   H     H_    0.352893 0.756431 0.185359 0.228181
H16   H     H_    0.793664 0.134805 0.726544 0.249152
H17   H     H_    0.690950 0.116378 0.928835 0.083707
H18   H     H_    0.499891 0.120635 0.833912 0.183016
H19   H     H_    0.628882 0.260827 0.875097 0.198672
H20   H     H_    0.299615 0.337481 0.221499 0.320866
H21   H     H_    0.111093 0.199876 0.127235 0.127727
H22   H     H_    0.209983 0.170598 0.988852 0.198907
H23   H     H_    0.840677 0.331971 0.023024 0.063906
H24   H     H_    0.103599 0.305999 0.988941 0.133402
H25   H     H_    0.804400 0.509519 0.889074 0.254715
H26   H     H_    0.950754 0.711405 0.874498 0.179262
H27   H     H_    0.954890 0.657250 0.040035 0.088968
H28   H     H_    0.825973 0.773965 0.980183 0.175395
H29   H     H_    0.240116 0.305181 0.636214 0.203079
H30   H     H_    0.137637 0.367195 0.767204 0.147777
H31   H     H_    0.041962 0.153013 0.802863 0.102825
H32   H     H_    0.045874 0.155433 0.620593 0.121347
H33   H     H_    0.199246 0.096333 0.731223 0.153400
H34   H     H_    0.857311 0.223097 0.158958 0.151592
H35   H     H_    0.859926 0.694052 0.216139 0.084153
H36   H     H_    0.748371 0.703305 0.347997 0.180914
H37   H     H_    0.706993 0.916868 0.297112 0.164388
H38   H     H_    0.906577 0.897146 0.341221 0.081673
H39   H     H_    0.826622 0.913826 0.161820 0.130545
H40   H     H_    0.710379 0.324601 0.151006 0.169432
H41   H     H_    0.000621 0.769754 0.545245 0.085844
H42   H     H_    0.169892 0.709926 0.513929 0.157376
H43   H     H_    0.130662 0.837425 0.789233 0.105835
H44   H     H_    0.293950 0.762615 0.759820 0.196580
N1    N     N_R   0.500040 0.500030 0.852080 -0.259945
N2    N     N_R   0.499960 0.499970 0.147920 -0.280428
N3    N     N_2   0.434397 0.100578 0.237733 -0.481720
N4    N     N_2   0.662888 0.891800 0.722859 -0.487356
N5    N     N_2   0.256231 0.865664 0.327548 -0.549939
N6    N     N_2   0.680497 0.149959 0.715189 -0.492138
N7    N     N_2   0.314823 0.317461 0.122329 -0.478282
N8    N     N_2   0.759092 0.591220 0.899666 -0.461219
O1    O     O_R   0.499990 0.319660 0.618740 -0.458310
O2    O     O_3   0.044493 0.611779 0.653244 -0.593311
O3    O     O_3   0.349840 0.299092 0.836246 -0.577925
O4    O     O_3   0.624171 0.706983 0.146639 -0.567417
O5    O     O_R   0.500010 0.680340 0.381260 -0.492632
O6    O     O_R   0.499990 0.319630 0.381170 -0.519807
O7    O     O_R   0.500010 0.680370 0.618830 -0.469089
O8    O     O_R   0.274840 0.500010 0.591370 -0.506524
O9    O     O_R   0.725160 0.499990 0.408630 -0.521279
O10   O     O_R   0.274830 0.499980 0.353800 -0.561734
O11   O     O_R   0.725170 0.500020 0.646200 -0.476208
O12   O     O_3   0.954846 0.379906 0.362908 -0.584555

loop_
_geom_bond_atom_site_label_1
_geom_bond_atom_site_label_2
_ccdc_geom_bond_type
Cu2   O10   S    
C25   O9    A    
C1    O6    A    
Cu1   O1    S    
H20   N7    S    
C12   O7    A    
C17   H19   S    
C24   H38   S    
C26   C27   D    
C2    C29   A    
C14   H4    S    
C5    N7    S    
C11   O2    S    
C20   O3    S    
C17   N6    S    
C23   C26   S    
C20   H29   S    
C3    C29   A    
C28   N3    S    
C21   H32   S    
C3    C12   S    
C18   H21   S    
C7    O3    S    
Cu2   O5    S    
C22   O4    S    
C9    C10   S    
C18   H24   S    
C7    N1    A    
Cu2   O9    S    
C8    N2    A    
C16   H15   S    
C4    C28   A    
C24   H37   S    
Cu1   N1    S    
C10   H34   S    
C19   H26   S    
C26   O12   S    
C15   H8    S    
Cu2   O6    S    
C6    N8    S    
C13   H43   S    
C12   O5    A    
C15   H9    S    
C11   H41   S    
C16   H14   S    
C5    C7    A    
C6    N1    A    
C6    C8    A    
C19   H27   S    
C8    O4    S    
C17   H18   S    
C3    C30   A    
C2    C4    A    
C14   H6    S    
C15   N4    S    
C13   H44   S    
C18   N7    S    
H25   N8    S    
C14   N3    S    
C10   H23   S    
C9    O12   S    
C22   H36   S    
C9    H1    S    
C25   O11   A    
Cu1   O7    S    
H11   N5    S    
C27   O2    S    
C22   C24   S    
C2    N6    S    
C1    O1    A    
C17   H17   S    
C19   N8    S    
C9    H12   S    
C21   H33   S    
Cu1   Cu2   S    
C15   H10   S    
C11   H42   S    
C16   H13   S    
C19   H28   S    
C25   C27   S    
C23   O10   A    
C1    C4    S    
H7    N4    S    
C30   N5    S    
C28   C30   A    
C13   H2    S    
C14   H5    S    
C11   C13   S    
C29   N4    S    
Cu1   O11   S    
H3    N3    S    
C16   N5    S    
H16   N6    S    
C20   H30   S    
C22   H35   S    
C21   H31   S    
C18   H22   S    
Cu2   N2    S    
C20   C21   S    
Cu1   O8    S    
C23   O8    A    
C5    N2    A    
C24   H39   S    
C10   H40   S    
