data_mof_unit_16367.cif
_audit_creation_date              2012-12-11T15:22:47-0500
_audit_creation_method            fapswitch 2.2
_symmetry_space_group_name_H-M    P1
_symmetry_Int_Tables_number       1
_space_group_crystal_system       triclinic
_cell_length_a                    22.437513
_cell_length_b                    13.02902
_cell_length_c                    27.025119
_cell_angle_alpha                 89.990615
_cell_angle_beta                  90.434385
_cell_angle_gamma                 89.907596
_cell_volume                      7900.25356125

loop_
_atom_site_label
_atom_site_type_symbol
_atom_type_description
_atom_site_fract_x
_atom_site_fract_y
_atom_site_fract_z
_atom_type_partial_charge
C1    C     C_R   0.720110 0.343751 0.177654 0.537673
C2    C     C_R   0.479103 0.257449 0.896784 -0.142208
C3    C     C_R   0.009845 0.582226 0.556153 -0.120526
C4    C     C_R   0.567540 0.097421 0.406781 -0.117856
C5    C     C_R   0.480124 0.073223 0.601795 -0.119683
C6    C     C_R   0.074324 0.609974 0.407263 -0.119747
C7    C     C_R   0.995266 0.579297 0.606009 -0.128743
C8    C     C_R   0.739866 0.975720 0.376741 0.018092
C9    C     C_R   0.264651 0.974187 0.623383 0.024115
C10   C     C_R   0.234876 0.479125 0.377556 0.015463
C11   C     C_R   0.757341 0.448697 0.630254 0.022027
C12   C     C_R   0.701801 0.902645 0.397979 -0.156314
C13   C     C_R   0.020916 0.757689 0.103188 -0.141980
C14   C     C_R   0.302530 0.894906 0.606873 -0.135603
C15   C     C_R   0.196598 0.402737 0.396179 -0.149181
C16   C     C_R   0.806263 0.400867 0.607222 -0.145969
C17   C     C_R   0.699971 0.890613 0.449375 -0.131293
C18   C     C_R   0.308582 0.874821 0.556535 -0.127829
C19   C     C_R   0.189657 0.390189 0.447142 -0.134253
C20   C     C_R   0.803321 0.372032 0.557846 -0.133777
C21   C     C_R   0.730952 0.959529 0.480266 0.013509
C22   C     C_R   0.280184 0.938658 0.522382 0.010554
C23   C     C_R   0.216411 0.460148 0.479497 0.000604
C24   C     C_R   0.979065 0.757470 0.896784 -0.141707
C25   C     C_R   0.752552 0.395450 0.530075 0.020029
C26   C     C_R   0.764239 0.037610 0.458406 -0.094315
C27   C     C_R   0.246136 0.021790 0.538388 -0.092664
C28   C     C_R   0.248658 0.542756 0.460600 -0.102564
C29   C     C_R   0.703959 0.443729 0.553145 -0.089932
C30   C     C_R   0.777324 0.035758 0.408363 0.013363
C31   C     C_R   0.232591 0.034724 0.588168 -0.001039
C32   C     C_R   0.265994 0.544148 0.411297 0.003466
C33   C     C_R   0.703212 0.461748 0.603779 0.015116
C34   C     C_R   0.784532 0.986128 0.560451 -0.105994
C35   C     C_R   0.509141 0.260816 0.051917 -0.015337
C36   C     C_R   0.209912 0.893058 0.458390 -0.109014
C37   C     C_R   0.287542 0.437593 0.546627 -0.104178
C38   C     C_R   0.692492 0.361469 0.456131 -0.108817
C39   C     C_R   0.719992 0.346301 0.322573 0.556474
C40   C     C_R   0.279085 0.347895 0.677961 0.548618
C41   C     C_R   0.220280 0.845929 0.322533 0.551681
C42   C     C_R   0.777280 0.851537 0.680002 0.552361
C43   C     C_R   0.789891 0.977885 0.611414 -0.008111
C44   C     C_R   0.191937 0.891092 0.409239 -0.021895
C45   C     C_R   0.304056 0.427541 0.595813 -0.013774
C46   C     C_R   0.490769 0.260655 0.948076 -0.015395
C47   C     C_R   0.682413 0.384386 0.406955 -0.007900
C48   C     C_R   0.700902 0.870203 0.611628 0.091104
C49   C     C_R   0.297907 0.890663 0.385897 0.070856
C50   C     C_R   0.199239 0.389894 0.614919 0.074152
C51   C     C_R   0.790242 0.377003 0.393733 0.067769
C52   C     C_R   0.691264 0.894161 0.561533 -0.102923
C53   C     C_R   0.313622 0.906286 0.435720 -0.111831
C54   C     C_R   0.183644 0.412367 0.565516 -0.111898
C55   C     C_R   0.798371 0.382648 0.445295 -0.108452
C56   C     C_R   0.734895 0.946599 0.534773 -0.002901
C57   C     C_R   0.009128 0.760798 0.051912 -0.015379
C58   C     C_R   0.269435 0.906079 0.471602 -0.019899
C59   C     C_R   0.228158 0.434101 0.531416 -0.012038
C60   C     C_R   0.748979 0.374420 0.476661 -0.009913
C61   C     C_R   0.753681 0.905003 0.635647 0.043194
C62   C     C_R   0.236876 0.881313 0.372462 0.042624
C63   C     C_R   0.260137 0.392684 0.629900 0.039052
C64   C     C_R   0.731671 0.376367 0.374170 0.048382
C65   C     C_R   0.555131 0.158349 0.321906 0.532697
C66   C     C_R   0.445829 0.158244 0.678432 0.540187
C67   C     C_R   0.054564 0.658391 0.321601 0.528416
C68   C     C_R   0.990750 0.760668 0.948072 -0.015401
C69   C     C_R   0.945651 0.658753 0.678388 0.545352
C70   C     C_R   0.731456 0.005783 0.324449 0.530931
C71   C     C_R   0.269367 0.006489 0.675384 0.534453
C72   C     C_R   0.230655 0.506825 0.324781 0.528909
C73   C     C_R   0.767881 0.500832 0.677512 0.538976
C74   C     C_R   0.515823 0.071759 0.102304 -0.126873
C75   C     C_R   0.483327 0.071407 0.897994 -0.127301
C76   C     C_R   0.015974 0.571720 0.102263 -0.126830
C77   C     C_R   0.983475 0.571439 0.897953 -0.127050
C78   C     C_R   0.506370 0.072645 0.051514 0.018755
C79   C     C_R   0.503584 0.167124 0.025910 0.032031
C80   C     C_R   0.492627 0.072442 0.948800 0.018786
C81   C     C_R   0.006547 0.572620 0.051470 0.018712
C82   C     C_R   0.992802 0.572459 0.948756 0.018771
C83   C     C_R   0.496123 0.979567 0.974681 -0.133216
C84   C     C_R   0.502336 0.979675 0.025797 -0.133142
C85   C     C_R   0.996410 0.479574 0.974618 -0.133179
C86   C     C_R   0.002624 0.479658 0.025734 -0.133123
C87   C     C_3   0.720687 0.784685 0.147728 -0.270573
C88   C     C_3   0.718335 0.676325 0.126023 -0.449501
C89   C     C_3   0.280034 0.784745 0.852455 -0.270789
C90   C     C_R   0.495848 0.167030 0.974245 0.032074
C91   C     C_3   0.282661 0.676427 0.874226 -0.450073
C92   C     C_3   0.219540 0.284937 0.147554 -0.270297
C93   C     C_3   0.216904 0.176637 0.125797 -0.449841
C94   C     C_3   0.779249 0.284533 0.852242 -0.271440
C95   C     C_3   0.781673 0.176141 0.873934 -0.450218
C96   C     C_3   0.836567 0.043161 0.637895 -0.264368
C97   C     C_3   0.835439 0.155167 0.621395 -0.461745
C98   C     C_3   0.125600 0.899798 0.396511 -0.253062
C99   C     C_3   0.083334 0.926186 0.438965 -0.469324
C100  C     C_3   0.368265 0.452135 0.610983 -0.256356
C101  C     C_R   0.003668 0.667111 0.025886 0.032035
C102  C     C_3   0.407841 0.503891 0.572285 -0.482517
C103  C     C_3   0.620153 0.419761 0.390983 -0.250000
C104  C     C_3   0.581611 0.466595 0.431896 -0.475623
C105  C     C_3   0.830168 0.098827 0.389890 -0.246727
C106  C     C_3   0.877988 0.124947 0.428751 -0.472464
C107  C     C_3   0.184374 0.111374 0.603118 -0.246252
C108  C     C_3   0.143981 0.152057 0.561528 -0.468134
C109  C     C_3   0.318013 0.612068 0.395686 -0.246742
C110  C     C_3   0.361059 0.644831 0.437059 -0.471242
C111  C     C_3   0.646250 0.500972 0.627886 -0.258608
C112  C     C_R   0.279888 0.343724 0.822333 0.536075
C113  C     C_R   0.995930 0.667036 0.974221 0.032075
C114  C     C_3   0.588707 0.462904 0.603649 -0.483095
C115  C     C_R   0.504882 0.354723 0.025665 0.141237
C116  C     C_R   0.495383 0.354647 0.974181 0.141173
C117  C     C_R   0.004786 0.854714 0.025677 0.141226
C118  C     C_R   0.995279 0.854652 0.974194 0.141213
C119  C     C_R   0.735721 0.972976 0.127673 0.004560
C120  C     C_R   0.264398 0.973032 0.872373 0.004549
C121  C     C_R   0.235704 0.473043 0.127638 0.004162
C122  C     C_R   0.764352 0.472900 0.872320 0.005833
C123  C     C_R   0.740490 0.054521 0.094203 -0.070743
C124  C     C_R   0.220120 0.843780 0.177667 0.538031
C125  C     C_R   0.259404 0.054643 0.905790 -0.070728
C126  C     C_R   0.240991 0.554581 0.094215 -0.071010
C127  C     C_R   0.759677 0.554473 0.905787 -0.070233
C128  C     C_R   0.739533 0.037575 0.043719 0.097940
C129  C     C_R   0.260406 0.037819 0.956289 0.097940
C130  C     C_R   0.239983 0.537779 0.043721 0.098031
C131  C     C_R   0.760622 0.537494 0.956271 0.097597
C132  C     C_R   0.734736 0.936670 0.025733 0.013985
C133  C     C_R   0.265462 0.936959 0.974344 0.013952
C134  C     C_R   0.234626 0.436994 0.025672 0.014098
C135  C     C_R   0.779892 0.843711 0.822340 0.530727
C136  C     C_R   0.765305 0.436533 0.974258 0.013800
C137  C     C_R   0.727635 0.854902 0.058959 -0.111874
C138  C     C_R   0.272828 0.855138 0.941174 -0.112172
C139  C     C_R   0.226988 0.355272 0.058842 -0.111851
C140  C     C_R   0.772339 0.354723 0.941028 -0.112243
C141  C     C_R   0.553965 0.157286 0.177438 0.547844
C142  C     C_R   0.445982 0.157178 0.822590 0.546831
C143  C     C_R   0.053972 0.657282 0.177434 0.547564
C144  C     C_R   0.945987 0.657181 0.822586 0.546921
C145  C     C_R   0.727719 0.871550 0.110526 -0.006883
C146  C     C_R   0.473419 0.163045 0.872092 -0.004802
C147  C     C_R   0.272710 0.871671 0.889594 -0.006819
C148  C     C_R   0.227128 0.371791 0.110421 -0.006771
C149  C     C_R   0.772277 0.371406 0.889459 -0.006521
C150  C     C_R   0.698027 0.873530 0.943422 -0.106988
C151  C     C_R   0.302161 0.873811 0.056705 -0.106635
C152  C     C_R   0.197851 0.374257 0.943299 -0.106844
C153  C     C_R   0.801970 0.373086 0.056569 -0.106705
C154  C     C_R   0.708272 0.854179 0.893230 -0.131137
C155  C     C_R   0.291854 0.854372 0.106878 -0.130612
C156  C     C_R   0.208147 0.354775 0.893124 -0.130987
C157  C     C_R   0.526310 0.163358 0.128017 -0.004862
C158  C     C_R   0.791722 0.353807 0.106764 -0.130579
C159  C     C_R   0.808668 0.920687 0.902475 -0.129269
C160  C     C_R   0.191364 0.920960 0.097529 -0.130160
C161  C     C_R   0.308754 0.420247 0.902531 -0.129604
C162  C     C_R   0.691384 0.421142 0.097544 -0.130205
C163  C     C_R   0.798883 0.937651 0.952314 -0.121796
C164  C     C_R   0.201212 0.938013 0.047707 -0.121747
C165  C     C_R   0.298918 0.437307 0.952349 -0.121509
C166  C     C_R   0.701171 0.438044 0.047698 -0.121747
C167  C     C_R   0.743489 0.915483 0.972976 0.038158
C168  C     C_R   0.973456 0.663070 0.872076 -0.004351
C169  C     C_R   0.256681 0.915839 0.027103 0.038166
C170  C     C_R   0.243393 0.415762 0.972922 0.038218
C171  C     C_R   0.756536 0.415402 0.027019 0.038293
C172  C     C_R   0.763870 0.877655 0.872413 0.018530
C173  C     C_R   0.236175 0.877830 0.127628 0.016851
C174  C     C_R   0.263869 0.377700 0.872398 0.017101
C175  C     C_R   0.736147 0.377708 0.127592 0.017037
C176  C     C_R   0.537703 0.163384 0.373843 0.022195
C177  C     C_R   0.474157 0.163871 0.629542 0.023486
C178  C     C_R   0.037926 0.663436 0.373641 0.022029
C179  C     C_R   0.026351 0.663330 0.127999 -0.004836
C180  C     C_R   0.974307 0.667803 0.629807 0.024264
C181  C     C_R   0.497771 0.236766 0.392091 -0.148918
C182  C     C_R   0.486735 0.258339 0.607103 -0.143167
C183  C     C_R   0.991239 0.724596 0.391015 -0.145053
C184  C     C_R   0.971875 0.760968 0.603537 -0.124973
C185  C     C_R   0.486780 0.241612 0.443021 -0.122683
C186  C     C_R   0.500081 0.262778 0.556667 -0.129439
C187  C     C_R   0.979962 0.728751 0.441920 -0.122305
C188  C     C_R   0.986722 0.763939 0.553498 -0.124772
C189  C     C_R   0.731319 0.002108 0.179575 0.524773
C190  C     C_R   0.520944 0.257713 0.103191 -0.141849
C191  C     C_R   0.268711 0.002058 0.820443 0.525166
C192  C     C_R   0.231305 0.502153 0.179553 0.525377
C193  C     C_R   0.768693 0.502005 0.820416 0.521193
C194  C     C_R   0.516524 0.174285 0.475666 0.025819
C195  C     C_R   0.503157 0.172272 0.528791 0.035761
C196  C     C_R   0.016411 0.673962 0.475542 0.022904
C197  C     C_R   0.004375 0.673948 0.529124 0.034655
C198  C     C_R   0.557513 0.103374 0.457082 -0.129054
C199  C     C_R   0.494244 0.077478 0.552026 -0.120412
C200  C     C_R   0.064137 0.615877 0.457608 -0.128518
Cr1   Cr    Cr6+3 0.756570 0.170940 0.251190 1.019411
Cr2   Cr    Cr6+3 0.374010 0.036240 0.749520 1.006782
Cr3   Cr    Cr6+3 0.125990 0.536240 0.250480 1.009465
Cr4   Cr    Cr6+3 0.874010 0.536240 0.749520 1.005521
Cr5   Cr    Cr6+3 0.243430 0.170940 0.748810 1.021583
Cr6   Cr    Cr6+3 0.256570 0.670940 0.251190 1.020734
Cr7   Cr    Cr6+3 0.743430 0.670940 0.748810 1.021957
Cr8   Cr    Cr6+3 0.623740 0.299110 0.249580 0.997069
Cr9   Cr    Cr6+3 0.376260 0.299110 0.750420 0.995123
Cr10  Cr    Cr6+3 0.123740 0.799110 0.249580 0.997988
Cr11  Cr    Cr6+3 0.876260 0.799110 0.750420 0.999550
Cr12  Cr    Cr6+3 0.625990 0.036240 0.250480 1.009228
H1    H     H_    0.479362 0.998054 0.879300 0.131857
H2    H     H_    0.277481 0.779107 0.956105 0.136521
H3    H     H_    0.037547 0.937284 0.423989 0.141867
H4    H     H_    0.119647 0.962564 0.369091 0.172486
H5    H     H_    0.110795 0.826557 0.380091 0.191477
H6    H     H_    0.417678 0.450474 0.541396 0.141179
H7    H     H_    0.386287 0.574848 0.557932 0.146229
H8    H     H_    0.450965 0.525614 0.589703 0.132900
H9    H     H_    0.367113 0.506026 0.642835 0.169125
H10   H     H_    0.390139 0.379809 0.622248 0.184746
H11   H     H_    0.566426 0.407124 0.458272 0.146727
H12   H     H_    0.606671 0.527211 0.452069 0.147943
H13   H     H_    0.222093 0.279315 0.043912 0.136085
H14   H     H_    0.541185 0.501930 0.415073 0.135377
H15   H     H_    0.624865 0.482146 0.363262 0.169088
H16   H     H_    0.595864 0.354973 0.374070 0.193220
H17   H     H_    0.623458 0.786190 0.614055 0.205433
H18   H     H_    0.638876 0.856001 0.664646 0.221066
H19   H     H_    0.385681 0.889092 0.364999 0.222164
H20   H     H_    0.338814 0.950745 0.326461 0.226925
H21   H     H_    0.111775 0.363775 0.632810 0.211748
H22   H     H_    0.152464 0.424278 0.676066 0.227022
H23   H     H_    0.880339 0.372377 0.381649 0.223497
H24   H     H_    0.776688 0.278604 0.955898 0.136400
H25   H     H_    0.840817 0.445447 0.342077 0.227979
H26   H     H_    0.862014 0.185141 0.454509 0.141404
H27   H     H_    0.891247 0.055220 0.449827 0.145355
H28   H     H_    0.918039 0.155648 0.409954 0.142073
H29   H     H_    0.853829 0.053252 0.361335 0.166804
H30   H     H_    0.813742 0.171235 0.373209 0.215440
H31   H     H_    0.169355 0.202276 0.536113 0.148943
H32   H     H_    0.123547 0.087472 0.540660 0.138706
H33   H     H_    0.107538 0.198688 0.577704 0.144414
H34   H     H_    0.154037 0.073053 0.629636 0.171667
H35   H     H_    0.475453 0.289655 0.367178 0.107561
H36   H     H_    0.205885 0.177755 0.621382 0.212618
H37   H     H_    0.339845 0.701108 0.462171 0.147592
H38   H     H_    0.376580 0.576910 0.458430 0.139562
H39   H     H_    0.400533 0.682648 0.420553 0.144054
H40   H     H_    0.345947 0.568306 0.369240 0.169499
H41   H     H_    0.300477 0.681529 0.377134 0.208624
H42   H     H_    0.579601 0.503622 0.568305 0.133827
H43   H     H_    0.591933 0.379077 0.597082 0.168333
H44   H     H_    0.550721 0.478280 0.628678 0.132857
H45   H     H_    0.644500 0.472564 0.666616 0.167271
H46   H     H_    0.484706 0.328584 0.628256 0.111443
H47   H     H_    0.646161 0.586214 0.628006 0.188923
H48   H     H_    0.449127 0.457201 0.932398 0.210785
H49   H     H_    0.523917 0.454890 0.922054 0.222578
H50   H     H_    0.551552 0.456772 0.067251 0.210985
H51   H     H_    0.476774 0.455731 0.077665 0.223097
H52   H     H_    0.948913 0.957106 0.932438 0.210828
H53   H     H_    0.023702 0.955019 0.922080 0.223001
H54   H     H_    0.051370 0.956849 0.067281 0.210960
H55   H     H_    0.976592 0.955615 0.077693 0.223089
H56   H     H_    0.707080 0.120720 0.986216 0.238365
H57   H     H_    0.963595 0.767882 0.365447 0.105823
H58   H     H_    0.782568 0.121162 0.992233 0.219182
H59   H     H_    0.292664 0.121155 0.013734 0.238643
H60   H     H_    0.217178 0.121497 0.007722 0.219194
H61   H     H_    0.207977 0.621557 0.986257 0.238403
H62   H     H_    0.283466 0.620998 0.992317 0.219269
H63   H     H_    0.793168 0.620333 0.013770 0.238629
H64   H     H_    0.717682 0.621420 0.007762 0.219156
H65   H     H_    0.955628 0.830420 0.620886 0.124409
H66   H     H_    0.496139 0.006476 0.531228 0.099111
H67   H     H_    0.581903 0.052237 0.481576 0.110934
H68   H     H_    0.022978 0.511408 0.538281 0.095189
H69   H     H_    0.519477 0.998461 0.121122 0.132620
H70   H     H_    0.093958 0.575334 0.482558 0.114439
H71   H     H_    0.470908 0.998705 0.617745 0.130770
H72   H     H_    0.600096 0.042539 0.393655 0.140040
H73   H     H_    0.997498 0.506378 0.625203 0.120479
H74   H     H_    0.111908 0.565394 0.394468 0.140845
H75   H     H_    0.454843 0.296825 0.456846 0.106377
H76   H     H_    0.508156 0.336398 0.539423 0.096175
H77   H     H_    0.942715 0.773970 0.454935 0.111158
H78   H     H_    0.983353 0.835999 0.533678 0.096166
H79   H     H_    0.673588 0.854998 0.374821 0.118332
H80   H     H_    0.979575 0.498093 0.879242 0.132176
H81   H     H_    0.327054 0.847871 0.633106 0.117223
H82   H     H_    0.172658 0.352174 0.371219 0.121956
H83   H     H_    0.847990 0.389075 0.626817 0.133184
H84   H     H_    0.820752 0.022691 0.541293 0.106669
H85   H     H_    0.177373 0.892243 0.487681 0.130195
H86   H     H_    0.321158 0.450658 0.518969 0.126924
H87   H     H_    0.655085 0.344802 0.479729 0.121939
H88   H     H_    0.493241 0.906751 0.955423 0.107844
H89   H     H_    0.504845 0.906933 0.045178 0.108106
H90   H     H_    0.993608 0.406765 0.955346 0.108001
H91   H     H_    0.019691 0.498414 0.121065 0.132679
H92   H     H_    0.005213 0.406908 0.045101 0.108129
H93   H     H_    0.673684 0.828768 0.464477 0.105204
H94   H     H_    0.333910 0.808751 0.544385 0.100058
H95   H     H_    0.164881 0.325309 0.461186 0.105117
H96   H     H_    0.841411 0.334922 0.541204 0.096214
H97   H     H_    0.650981 0.868063 0.543281 0.091237
H98   H     H_    0.359646 0.918976 0.446452 0.110646
H99   H     H_    0.137428 0.411857 0.553609 0.096147
H100  H     H_    0.842670 0.393439 0.460503 0.103788
H101  H     H_    0.782285 0.098807 0.480726 0.113753
H102  H     H_    0.852449 0.937478 0.888026 0.125118
H103  H     H_    0.225367 0.069621 0.510447 0.122149
H104  H     H_    0.267141 0.597580 0.486520 0.121018
H105  H     H_    0.666497 0.470112 0.531361 0.109402
H106  H     H_    0.471505 0.327547 0.876208 0.122383
H107  H     H_    0.528942 0.327796 0.123630 0.123029
H108  H     H_    0.971387 0.827565 0.876226 0.122797
H109  H     H_    0.028837 0.827776 0.123645 0.122970
H110  H     H_    0.743656 0.132907 0.107490 0.153731
H111  H     H_    0.256024 0.132994 0.892451 0.153968
H112  H     H_    0.244568 0.632891 0.107540 0.153889
H113  H     H_    0.147532 0.937741 0.111936 0.124970
H114  H     H_    0.756576 0.632890 0.892495 0.154444
H115  H     H_    0.655130 0.855266 0.959261 0.112274
H116  H     H_    0.345115 0.855530 0.040915 0.112359
H117  H     H_    0.154853 0.356442 0.959069 0.112340
H118  H     H_    0.844848 0.354477 0.040725 0.112351
H119  H     H_    0.673460 0.819008 0.871082 0.120367
H120  H     H_    0.326683 0.819133 0.129060 0.122124
H121  H     H_    0.173264 0.319972 0.870916 0.121336
H122  H     H_    0.826510 0.318333 0.128903 0.122134
H123  H     H_    0.834930 0.967388 0.975026 0.119637
H124  H     H_    0.352634 0.436551 0.888156 0.125029
H125  H     H_    0.165149 0.967783 0.024956 0.119754
H126  H     H_    0.335035 0.466608 0.975120 0.119686
H127  H     H_    0.665148 0.468102 0.024992 0.119687
H128  H     H_    0.678747 0.667433 0.101480 0.144571
H129  H     H_    0.759699 0.659230 0.105243 0.157383
H130  H     H_    0.714630 0.619711 0.156564 0.152406
H131  H     H_    0.758759 0.787464 0.174256 0.141725
H132  H     H_    0.679113 0.797465 0.168939 0.160103
H133  H     H_    0.322243 0.667672 0.898805 0.144429
H134  H     H_    0.241317 0.659266 0.894978 0.157410
H135  H     H_    0.647633 0.438301 0.112015 0.124916
H136  H     H_    0.286556 0.619768 0.843722 0.151808
H137  H     H_    0.241987 0.787365 0.825892 0.141867
H138  H     H_    0.321598 0.797599 0.831270 0.159181
H139  H     H_    0.177359 0.168153 0.101174 0.144429
H140  H     H_    0.258275 0.159191 0.105095 0.157522
H141  H     H_    0.212928 0.120006 0.156305 0.152635
H142  H     H_    0.257478 0.287213 0.174226 0.141947
H143  H     H_    0.177899 0.298151 0.168613 0.160507
H144  H     H_    0.821278 0.167069 0.898462 0.144832
H145  H     H_    0.740329 0.159187 0.894728 0.157344
H146  H     H_    0.723213 0.778831 0.044081 0.136224
H147  H     H_    0.785391 0.119548 0.843384 0.149792
H148  H     H_    0.741128 0.287531 0.825761 0.139614
H149  H     H_    0.820777 0.297125 0.830972 0.158572
H150  H     H_    0.852903 0.163437 0.583320 0.136935
H151  H     H_    0.789235 0.185702 0.623039 0.172672
H152  H     H_    0.864271 0.201290 0.646463 0.131176
H153  H     H_    0.827834 0.046077 0.678221 0.171822
H154  H     H_    0.881664 0.010551 0.631528 0.151674
H155  H     H_    0.081841 0.862847 0.466365 0.161551
H156  H     H_    0.097271 0.998659 0.457300 0.138550
N1    N     N_3   0.658060 0.809098 0.637703 -0.608613
N2    N     N_3   0.257218 0.124823 0.988451 -0.644417
N3    N     N_3   0.243410 0.624755 0.011559 -0.644890
N4    N     N_3   0.757732 0.624430 0.988493 -0.644460
N5    N     N_3   0.343300 0.885526 0.348726 -0.623952
N6    N     N_3   0.153664 0.364998 0.650025 -0.625205
N7    N     N_3   0.840613 0.375725 0.361223 -0.632839
N8    N     N_3   0.491071 0.451646 0.949240 -0.596229
N9    N     N_3   0.509571 0.451797 0.050454 -0.596023
N10   N     N_3   0.990867 0.951659 0.949272 -0.596079
N11   N     N_3   0.009393 0.951782 0.050482 -0.595995
N12   N     N_3   0.742516 0.124501 0.011497 -0.644672
O1    O     O_R   0.769900 0.064540 0.196060 -0.519061
O2    O     O_R   0.433710 0.069580 0.694600 -0.522586
O3    O     O_R   0.066290 0.569580 0.305400 -0.513045
O4    O     O_R   0.933710 0.569580 0.694600 -0.522657
O5    O     O_R   0.680760 0.993330 0.302620 -0.505097
O6    O     O_R   0.319240 0.993330 0.697380 -0.502673
O7    O     O_R   0.180760 0.493330 0.302620 -0.506172
O8    O     O_R   0.819240 0.493330 0.697380 -0.508562
O9    O     O_3   0.668770 0.168760 0.250420 -0.241685
O10   O     O_3   0.331230 0.168760 0.749580 -0.240057
O11   O     O_3   0.168770 0.668760 0.250420 -0.243658
O12   O     O_R   0.230100 0.064540 0.803940 -0.518122
O13   O     O_3   0.831230 0.668760 0.749580 -0.237400
O14   O     O_R   0.750800 0.274080 0.199250 -0.503707
O15   O     O_R   0.249200 0.274080 0.800750 -0.504135
O16   O     O_R   0.250800 0.774080 0.199250 -0.502552
O17   O     O_R   0.749200 0.774080 0.800750 -0.509651
O18   O     O_R   0.669990 0.371670 0.194150 -0.524733
O19   O     O_R   0.330010 0.371670 0.805850 -0.525502
O20   O     O_R   0.169990 0.871670 0.194150 -0.524196
O21   O     O_R   0.830010 0.871670 0.805850 -0.529802
O22   O     O_R   0.574600 0.238480 0.197800 -0.502676
O23   O     O_R   0.269900 0.564540 0.196060 -0.518181
O24   O     O_R   0.425400 0.238480 0.802200 -0.503121
O25   O     O_R   0.074600 0.738480 0.197800 -0.502579
O26   O     O_R   0.925400 0.738480 0.802200 -0.503405
O27   O     O_R   0.566130 0.068680 0.194240 -0.518739
O28   O     O_R   0.433870 0.068680 0.805760 -0.520954
O29   O     O_R   0.066130 0.568680 0.194240 -0.518876
O30   O     O_R   0.933870 0.568680 0.805760 -0.520992
O31   O     O_R   0.680610 0.992490 0.199570 -0.500372
O32   O     O_R   0.319390 0.992490 0.800430 -0.501448
O33   O     O_R   0.180610 0.492490 0.199570 -0.500245
O34   O     O_R   0.730100 0.564540 0.803940 -0.523330
O35   O     O_R   0.819390 0.492490 0.800430 -0.502714
O36   O     O_R   0.770060 0.065440 0.307230 -0.535667
O37   O     O_R   0.229940 0.065440 0.692770 -0.532925
O38   O     O_R   0.270060 0.565440 0.307230 -0.533039
O39   O     O_R   0.729940 0.565440 0.692770 -0.518252
O40   O     O_R   0.750960 0.274920 0.302300 -0.475120
O41   O     O_R   0.249040 0.274920 0.697700 -0.474483
O42   O     O_R   0.250960 0.774920 0.302300 -0.477020
O43   O     O_R   0.749040 0.774920 0.697700 -0.457493
O44   O     O_R   0.670160 0.372580 0.305320 -0.546819
O45   O     O_R   0.574760 0.239320 0.300850 -0.514257
O46   O     O_R   0.329840 0.372580 0.694680 -0.545864
O47   O     O_R   0.170160 0.872580 0.305320 -0.543829
O48   O     O_R   0.829840 0.872580 0.694680 -0.542194
O49   O     O_R   0.425240 0.239320 0.699150 -0.510001
O50   O     O_R   0.074760 0.739320 0.300850 -0.513443
O51   O     O_R   0.925240 0.739320 0.699150 -0.502174
O52   O     O_R   0.566290 0.069580 0.305400 -0.516967

loop_
_geom_bond_atom_site_label_1
_geom_bond_atom_site_label_2
_ccdc_geom_bond_type
C21   C26   A    
C34   C56   A    
C160  H113  S    
Cr5   O12   S    
C101  C113  A    
Cr6   O11   S    
C142  C146  S    
C136  C140  A    
Cr11  O26   S    
C99   H155  S    
C41   O42   A    
C121  C192  S    
C12   H79   S    
C40   O41   A    
Cr2   O2    S    
C141  O22   A    
Cr5   O37   S    
Cr6   O42   S    
C103  H15   S    
C177  C182  A    
C29   C33   A    
C165  C170  A    
C18   H94   S    
Cr10  O20   S    
C88   H128  S    
C54   H99   S    
C79   C90   A    
C198  H67   S    
C152  C156  A    
C35   C115  A    
C33   C111  S    
C25   C60   S    
C151  C155  A    
H17   N1    S    
C104  H11   S    
C195  C199  A    
C81   C86   A    
C83   H88   S    
C95   H145  S    
C130  C134  A    
Cr6   O23   S    
C80   C83   A    
C105  H29   S    
C131  N4    S    
C110  H37   S    
C89   H137  S    
C114  H42   S    
C200  H70   S    
C32   C109  S    
C16   H83   S    
C27   C31   A    
C122  C149  A    
C135  O17   A    
H54   N11   S    
C47   C64   A    
H64   N4    S    
C72   O38   A    
C120  C125  A    
C132  C137  A    
C17   C21   A    
Cr5   O15   S    
Cr7   O39   S    
C77   C168  A    
Cr6   O16   S    
C19   C23   A    
C55   H100  S    
C114  H43   S    
C152  C170  A    
H56   N12   S    
C136  C171  S    
C11   C33   A    
C16   C20   A    
C156  C174  A    
C91   H134  S    
C40   O46   A    
C43   C96   S    
H59   N2    S    
C92   H142  S    
C135  C172  S    
C34   H84   S    
C112  O19   A    
C141  C157  S    
C35   C190  A    
C86   H92   S    
C106  H27   S    
C69   C180  S    
C143  O29   A    
Cr10  O25   S    
C88   H129  S    
C37   C45   A    
C160  C164  A    
Cr9   O19   S    
C43   C61   A    
C142  O28   A    
C39   O44   A    
C49   C62   A    
C74   C157  A    
Cr12  O52   S    
C31   C107  S    
H55   N11   S    
C51   C64   A    
C196  C197  S    
C135  O21   A    
C22   C58   S    
C53   C58   A    
C181  H35   S    
C119  C123  A    
C82   C85   A    
C3    C7    A    
C164  H125  S    
C184  H65   S    
Cr9   O10   S    
C37   H86   S    
C156  H121  S    
C77   C82   A    
C49   C53   A    
C51   C55   A    
Cr12  O31   S    
C127  C131  A    
C125  C129  A    
Cr12  O5    S    
C48   C52   A    
C98   C99   S    
Cr10  O11   S    
H48   N8    S    
C109  C110  S    
C96   H154  S    
C151  H116  S    
C161  C165  A    
C180  C184  A    
C65   O45   A    
C112  C174  S    
C161  H124  S    
C161  C174  A    
C126  H112  S    
C160  C173  A    
C76   C179  A    
Cr8   O22   S    
C81   C101  A    
C85   C86   A    
C23   C59   S    
C42   O48   A    
C187  H77   S    
C97   H150  S    
C100  H9    S    
C163  H123  S    
Cr3   O7    S    
C93   H140  S    
C65   O52   A    
C199  H66   S    
C13   C57   A    
C115  C116  A    
C141  O27   A    
C72   O7    A    
C153  C158  A    
C87   H131  S    
C68   C118  A    
C44   C98   S    
C124  O16   A    
Cr8   O9    S    
C74   H69   S    
C107  C108  S    
C143  C179  S    
C89   C91   S    
C102  H8    S    
Cr11  O48   S    
C4    C198  A    
C117  N11   S    
C27   H103  S    
C14   H81   S    
C50   C63   A    
C108  H32   S    
C87   H132  S    
Cr7   O13   S    
Cr6   O38   S    
Cr8   O18   S    
C54   C59   A    
C75   C146  A    
C182  H46   S    
C66   C177  S    
C139  C148  A    
C127  H114  S    
C19   H95   S    
C107  H36   S    
Cr11  O13   S    
C131  C136  A    
C120  C191  S    
C134  C139  A    
C162  H135  S    
C162  C175  A    
C75   H1    S    
C1    O14   A    
C2    H106  S    
C48   N1    S    
Cr3   O11   S    
Cr4   O8    S    
C83   C84   A    
C8    C12   A    
C13   H109  S    
C23   C28   A    
C37   C59   A    
C38   C60   A    
C26   C30   A    
C30   C105  S    
C106  H26   S    
C89   C147  S    
C1    C175  S    
Cr7   O43   S    
C18   C22   A    
C97   H152  S    
Cr8   O44   S    
C34   C43   A    
C82   C113  A    
C67   C178  S    
C66   O49   A    
C190  H107  S    
Cr11  O51   S    
C57   C101  A    
C130  N3    S    
C8    C70   S    
C151  C169  A    
C193  O35   A    
Cr7   O34   S    
C154  H119  S    
C94   H148  S    
C117  C118  A    
C78   C79   A    
C112  O15   A    
C194  C198  A    
C108  H31   S    
C35   C79   A    
C4    H72   S    
C7    C180  A    
C85   H90   S    
Cr1   O40   S    
C159  C163  A    
C165  H126  S    
Cr1   O14   S    
C102  H6    S    
C155  H120  S    
C142  O24   A    
C158  C175  A    
C134  C170  S    
C109  H40   S    
C140  C149  A    
C104  H12   S    
C70   O5    A    
C10   C72   S    
C87   C88   S    
C15   H82   S    
C183  H57   S    
C187  C196  A    
C92   C148  S    
C107  H34   S    
C132  C167  S    
C185  C194  A    
Cr3   O33   S    
C77   H80   S    
C5    C199  A    
H18   N1    S    
C110  H38   S    
C15   C19   A    
C39   C64   S    
Cr2   O28   S    
C50   C54   A    
C40   C63   S    
Cr1   O1    S    
C189  O31   A    
C137  C145  A    
Cr3   O3    S    
Cr12  O9    S    
C20   C25   A    
C126  C130  A    
C42   O43   A    
C67   O3    A    
C182  C186  A    
C133  C169  S    
C157  C190  A    
C162  C166  A    
Cr9   O49   S    
C12   C17   A    
C91   H133  S    
C178  C183  A    
C68   C113  A    
C194  C195  S    
C133  C138  A    
C20   H96   S    
C106  H28   S    
C55   C60   A    
C6    C178  A    
C25   C29   A    
C88   H130  S    
C41   C62   S    
H51   N9    S    
C99   H156  S    
C111  H47   S    
Cr1   O9    S    
Cr2   O6    S    
C192  O23   A    
C176  C181  A    
C26   H101  S    
C152  H117  S    
C47   C103  S    
H58   N12   S    
C11   C73   S    
C124  O20   A    
C69   O51   A    
C103  H16   S    
C108  H33   S    
C137  H146  S    
C9    C14   A    
C7    H73   S    
C183  C187  A    
C11   C16   A    
C28   C32   A    
C191  O12   A    
C121  C148  A    
C53   H98   S    
Cr7   O17   S    
H23   N7    S    
C153  H118  S    
C65   C176  S    
C66   O2    A    
C122  C193  S    
C105  H30   S    
C57   C117  A    
C118  N10   S    
C89   H138  S    
C138  H2    S    
C1    O18   A    
C87   C145  S    
C24   C168  A    
C9    C71   S    
C69   O4    A    
C45   C100  S    
H62   N3    S    
C21   C56   S    
C51   N7    S    
C46   C90   A    
C119  C145  A    
C105  C106  S    
C46   C116  A    
C139  H13   S    
C8    C30   A    
C93   H139  S    
Cr4   O13   S    
C6    C200  A    
Cr1   O36   S    
C3    H68   S    
C188  C197  A    
C150  C167  A    
C109  H41   S    
C92   C93   S    
C95   H147  S    
C191  O32   A    
C111  C114  S    
C28   H104  S    
C94   C95   S    
Cr4   O4    S    
C129  N2    S    
C24   C68   A    
Cr5   O41   S    
C84   H89   S    
H25   N7    S    
C120  C147  A    
C4    C176  A    
C98   H5    S    
C17   H93   S    
C103  C104  S    
C140  H24   S    
H50   N9    S    
Cr11  O21   S    
C111  H45   S    
C76   H91   S    
Cr10  O50   S    
C192  O33   A    
C123  H110  S    
C14   C18   A    
C196  C200  A    
C123  C128  A    
C2    C46   A    
C94   C149  S    
Cr8   O45   S    
C144  C168  S    
C6    H74   S    
C36   C58   A    
C10   C15   A    
C158  H122  S    
C93   H141  S    
C122  C127  A    
C52   H97   S    
C189  O1    A    
C71   O37   A    
C50   N6    S    
C100  H10   S    
C166  H127  S    
C75   C80   A    
Cr3   O29   S    
C74   C78   A    
Cr9   O24   S    
C155  C173  A    
Cr2   O32   S    
C38   H87   S    
C73   O39   A    
Cr9   O46   S    
C71   O6    A    
C164  C169  A    
C128  C132  A    
C159  H102  S    
H53   N10   S    
C70   O36   A    
C144  O30   A    
Cr5   O10   S    
C125  H111  S    
H49   N8    S    
C97   H151  S    
C186  C195  A    
C143  O25   A    
C181  C185  A    
Cr10  O47   S    
C124  C173  S    
C44   C62   A    
C39   O40   A    
C13   C179  A    
C45   C63   A    
C184  C188  A    
C92   H143  S    
C193  O34   A    
C163  C167  A    
C94   H149  S    
C115  N9    S    
C10   C32   A    
C138  C147  A    
C96   C97   S    
C153  C171  A    
C100  C102  S    
C154  C172  A    
H22   N6    S    
C41   O47   A    
C42   C61   S    
C5    C177  A    
C38   C47   A    
H19   N5    S    
C116  N8    S    
C102  H7    S    
Cr2   O10   S    
Cr4   O30   S    
C129  C133  A    
Cr12  O27   S    
H61   N3    S    
C96   H153  S    
C98   H4    S    
C144  O26   A    
C159  C172  A    
C5    H71   S    
C49   N5    S    
C119  C189  S    
H60   N2    S    
C76   C81   A    
C188  H78   S    
Cr4   O35   S    
C104  H14   S    
C110  H39   S    
C2    C146  A    
C114  H44   S    
C22   C27   A    
C185  H75   S    
C73   O8    A    
C121  C126  A    
C24   H108  S    
C186  H76   S    
H52   N10   S    
C36   H85   S    
C128  N12   S    
C99   H3    S    
H63   N4    S    
C3    C197  A    
C80   C90   A    
C29   H105  S    
H21   N6    S    
C36   C44   A    
C9    C31   A    
C78   C84   A    
C150  H115  S    
C166  C171  A    
H20   N5    S    
C150  C154  A    
C48   C61   A    
C91   H136  S    
C95   H144  S    
C67   O50   A    
C52   C56   A    
