data_mof_unit_32550.cif
_audit_creation_date              2012-12-11T15:22:28-0500
_audit_creation_method            fapswitch 2.2
_symmetry_space_group_name_H-M    P1
_symmetry_Int_Tables_number       1
_space_group_crystal_system       triclinic
_cell_length_a                    22.440251
_cell_length_b                    12.962887
_cell_length_c                    26.897558
_cell_angle_alpha                 90.133249
_cell_angle_beta                  90.977647
_cell_angle_gamma                 89.873776
_cell_volume                      7823.06396732

loop_
_atom_site_label
_atom_site_type_symbol
_atom_type_description
_atom_site_fract_x
_atom_site_fract_y
_atom_site_fract_z
_atom_type_partial_charge
C1    C     C_R   0.720659 0.345500 0.178378 0.552366
C2    C     C_R   0.279312 0.345707 0.821566 0.551187
C3    C     C_R   0.220660 0.845503 0.178380 0.565718
C4    C     C_R   0.779304 0.845728 0.821557 0.552642
C5    C     C_R   0.480883 0.166811 0.870165 0.012222
C6    C     C_R   0.518961 0.166621 0.129929 0.010940
C7    C     C_R   0.980892 0.666807 0.870158 0.011897
C8    C     C_R   0.018973 0.666620 0.129922 0.011841
C9    C     C_R   0.514136 0.261521 0.104517 0.119416
C10   C     C_R   0.485200 0.261688 0.895848 0.119831
C11   C     C_R   0.014159 0.761520 0.104508 0.120203
C12   C     C_R   0.985221 0.761684 0.895839 0.119511
C13   C     C_R   0.505165 0.261071 0.052567 0.027827
C14   C     C_R   0.494133 0.261167 0.947805 0.028339
C15   C     C_R   0.005192 0.761069 0.052557 0.028267
C16   C     C_R   0.994159 0.761163 0.947795 0.028075
C17   C     C_R   0.501894 0.165942 0.026343 -0.011300
C18   C     C_R   0.497840 0.165997 0.973771 -0.011236
C19   C     C_R   0.001914 0.665940 0.026334 -0.011367
C20   C     C_R   0.997858 0.665993 0.973763 -0.011361
C21   C     C_R   0.502276 0.353881 0.025947 -0.115664
C22   C     C_R   0.496552 0.353927 0.974687 -0.115374
C23   C     C_R   0.002314 0.853879 0.025935 -0.115480
C24   C     C_R   0.996590 0.853924 0.974676 -0.115526
C25   C     C_R   0.738362 0.958216 0.129610 0.017913
C26   C     C_R   0.261447 0.957836 0.870220 0.018798
C27   C     C_R   0.238388 0.458130 0.129635 0.018509
C28   C     C_R   0.761451 0.457850 0.870225 0.019503
C29   C     C_R   0.794260 0.957418 0.107077 -0.111557
C30   C     C_R   0.205577 0.958343 0.892821 -0.111636
C31   C     C_R   0.294293 0.457326 0.107113 -0.111628
C32   C     C_R   0.705581 0.458354 0.892826 -0.111701
C33   C     C_R   0.798253 0.939548 0.056121 -0.110262
C34   C     C_R   0.201498 0.939960 0.943696 -0.110050
C35   C     C_R   0.298302 0.439398 0.056163 -0.110185
C36   C     C_R   0.701503 0.439979 0.943702 -0.110022
C37   C     C_R   0.746279 0.924165 0.027149 0.023993
C38   C     C_R   0.253359 0.922655 0.972574 0.023943
C39   C     C_R   0.246338 0.423960 0.027187 0.023977
C40   C     C_R   0.753365 0.422687 0.972580 0.023865
C41   C     C_R   0.690925 0.920478 0.050208 -0.109594
C42   C     C_R   0.308646 0.917440 0.949404 -0.109675
C43   C     C_R   0.190979 0.420257 0.050239 -0.109847
C44   C     C_R   0.808652 0.417480 0.949411 -0.109700
C45   C     C_R   0.551859 0.157909 0.178117 0.579159
C46   C     C_R   0.448103 0.157944 0.821916 0.576376
C47   C     C_R   0.051862 0.657909 0.178115 0.581598
C48   C     C_R   0.948105 0.657943 0.821914 0.575965
C49   C     C_R   0.687027 0.935885 0.101049 -0.110861
C50   C     C_R   0.312615 0.933482 0.898620 -0.110384
C51   C     C_R   0.187066 0.435722 0.101074 -0.110886
C52   C     C_R   0.812621 0.433512 0.898626 -0.109696
C53   C     C_R   0.712741 0.842509 0.947690 -0.101884
C54   C     C_R   0.286530 0.840049 0.051881 -0.102300
C55   C     C_R   0.212813 0.342313 0.947722 -0.102048
C56   C     C_R   0.786538 0.340077 0.051885 -0.101842
C57   C     C_R   0.718416 0.827554 0.896870 -0.099636
C58   C     C_R   0.280960 0.825398 0.102719 -0.100159
C59   C     C_R   0.218468 0.327416 0.896896 -0.099429
C60   C     C_R   0.780965 0.325417 0.102722 -0.099843
C61   C     C_R   0.794906 0.959407 0.895026 -0.096863
C62   C     C_R   0.205120 0.958884 0.104951 -0.097916
C63   C     C_R   0.294941 0.459300 0.895063 -0.097457
C64   C     C_R   0.705122 0.458898 0.104957 -0.097501
C65   C     C_R   0.788727 0.975174 0.945837 -0.108870
C66   C     C_R   0.211217 0.974375 0.054132 -0.108217
C67   C     C_R   0.288780 0.475012 0.945880 -0.108726
C68   C     C_R   0.711221 0.474398 0.054139 -0.108179
C69   C     C_R   0.749217 0.914074 0.972832 0.027012
C70   C     C_R   0.250382 0.912421 0.026915 0.027212
C71   C     C_R   0.249284 0.413875 0.972870 0.027047
C72   C     C_R   0.750388 0.412450 0.026921 0.027275
C73   C     C_R   0.761420 0.882641 0.870582 0.026280
C74   C     C_R   0.238385 0.881610 0.129239 0.026070
C75   C     C_R   0.261449 0.382557 0.870608 0.026433
C76   C     C_R   0.738387 0.381622 0.129242 0.025714
C77   C     C_R   0.530336 0.169827 0.371903 0.019351
C78   C     C_R   0.475636 0.168105 0.630535 0.020003
C79   C     C_R   0.027079 0.668781 0.370604 0.019219
C80   C     C_R   0.972936 0.669268 0.629446 0.019485
C81   C     C_R   0.544010 0.258607 0.399916 -0.110917
C82   C     C_R   0.471667 0.261235 0.604145 -0.114528
C83   C     C_R   0.033254 0.761438 0.397267 -0.110991
C84   C     C_R   0.963565 0.760331 0.602165 -0.100948
C85   C     C_R   0.534986 0.260397 0.450925 -0.104544
C86   C     C_R   0.485465 0.264138 0.553943 -0.103655
C87   C     C_R   0.022356 0.764170 0.447978 -0.094496
C88   C     C_R   0.975390 0.763096 0.551629 -0.072834
C89   C     C_R   0.731120 0.001683 0.179396 0.556149
C90   C     C_R   0.268882 0.001678 0.820592 0.546488
C91   C     C_R   0.231124 0.501668 0.179402 0.545863
C92   C     C_R   0.768884 0.501683 0.820594 0.545107
C93   C     C_R   0.511055 0.174208 0.474818 0.032505
C94   C     C_R   0.503868 0.174267 0.529305 0.027904
C95   C     C_R   0.004501 0.674760 0.472937 0.040648
C96   C     C_R   0.997753 0.675405 0.527512 0.042838
C97   C     C_R   0.493745 0.087961 0.446250 -0.110022
C98   C     C_R   0.512942 0.083424 0.556818 -0.121121
C99   C     C_R   0.993536 0.584339 0.445362 -0.097398
C100  C     C_R   0.011767 0.587140 0.555742 -0.107781
C101  C     C_R   0.503671 0.085517 0.395239 -0.112774
C102  C     C_R   0.498720 0.080240 0.607008 -0.115041
C103  C     C_R   0.005011 0.581216 0.394663 -0.112805
C104  C     C_R   0.998960 0.583771 0.606233 -0.104549
C105  C     C_R   0.722315 0.028254 0.382055 -0.000662
C106  C     C_R   0.253758 0.944314 0.631047 0.001564
C107  C     C_R   0.239968 0.460594 0.372833 0.008408
C108  C     C_R   0.765815 0.480672 0.624621 0.027963
C109  C     C_R   0.669829 0.008051 0.407811 -0.126863
C110  C     C_R   0.295007 0.875228 0.610626 -0.098215
C111  C     C_R   0.189725 0.427163 0.398521 -0.124984
C112  C     C_R   0.742125 0.389557 0.605248 -0.122772
C113  C     C_R   0.671757 0.993525 0.459067 -0.135259
C114  C     C_R   0.285649 0.836337 0.562740 -0.124329
C115  C     C_R   0.192747 0.415272 0.449467 -0.142574
C116  C     C_R   0.742037 0.374317 0.554018 -0.128899
C117  C     C_R   0.726236 0.998554 0.485220 0.034726
C118  C     C_R   0.235277 0.866674 0.534971 0.025721
C119  C     C_R   0.246214 0.434341 0.475241 0.032658
C120  C     C_R   0.765474 0.450312 0.522667 0.031325
C121  C     C_R   0.779116 0.019579 0.459597 0.101989
C122  C     C_R   0.192308 0.931265 0.556250 0.095965
C123  C     C_R   0.298113 0.459984 0.449310 0.099762
C124  C     C_R   0.790130 0.541140 0.542583 0.085005
C125  C     C_R   0.776620 0.035695 0.408493 -0.097696
C126  C     C_R   0.201318 0.968355 0.604265 -0.100687
C127  C     C_R   0.294537 0.473373 0.398126 -0.082073
C128  C     C_R   0.790200 0.555461 0.593549 -0.092793
C129  C     C_R   0.751908 0.036780 0.573747 -0.065636
C130  C     C_R   0.256655 0.916314 0.449005 -0.068896
C131  C     C_R   0.265635 0.500221 0.560696 -0.064072
C132  C     C_R   0.726900 0.501226 0.440006 -0.059759
C133  C     C_R   0.721684 0.348540 0.321401 0.556338
C134  C     C_R   0.278195 0.348230 0.678806 0.574290
C135  C     C_R   0.204505 0.804694 0.326781 0.567462
C136  C     C_R   0.778016 0.849007 0.678917 0.564882
C137  C     C_R   0.765767 0.000783 0.621439 0.167868
C138  C     C_R   0.248322 0.904512 0.397898 0.183238
C139  C     C_R   0.272673 0.481178 0.611406 0.163779
C140  C     C_R   0.717653 0.480465 0.389763 0.162251
C141  C     C_R   0.725568 0.832844 0.598347 -0.148312
C142  C     C_R   0.192727 0.746646 0.412611 -0.169024
C143  C     C_R   0.234866 0.307031 0.597868 -0.150423
C144  C     C_R   0.780918 0.328182 0.398292 -0.156393
C145  C     C_R   0.712799 0.868807 0.550793 -0.105472
C146  C     C_R   0.200959 0.759165 0.463707 -0.100867
C147  C     C_R   0.229473 0.325651 0.547624 -0.124437
C148  C     C_R   0.790181 0.350061 0.448191 -0.125765
C149  C     C_R   0.728441 0.969324 0.537712 0.013426
C150  C     C_R   0.232347 0.844737 0.481847 0.011727
C151  C     C_R   0.247108 0.420597 0.528716 0.011471
C152  C     C_R   0.761813 0.434800 0.469303 0.013016
C153  C     C_R   0.754781 0.896602 0.633229 0.037720
C154  C     C_R   0.215365 0.819954 0.379687 0.040139
C155  C     C_R   0.259146 0.382506 0.629745 0.040331
C156  C     C_R   0.742403 0.390046 0.369164 0.031029
C157  C     C_R   0.554679 0.159138 0.321811 0.532454
C158  C     C_R   0.446241 0.158739 0.678717 0.544101
C159  C     C_R   0.054152 0.658993 0.321505 0.532880
C160  C     C_R   0.945769 0.658882 0.678462 0.540221
C161  C     C_R   0.719723 0.046943 0.328238 0.551881
C162  C     C_R   0.267747 0.001192 0.677059 0.546368
C163  C     C_R   0.231716 0.502692 0.323167 0.537781
C164  C     C_R   0.768182 0.502115 0.677047 0.544508
C165  C     C_R   0.501831 0.075558 0.105243 0.079388
C166  C     C_R   0.498364 0.075796 0.894631 0.081390
C167  C     C_R   0.001843 0.575558 0.105235 0.080534
C168  C     C_R   0.998368 0.575789 0.894624 0.081068
C169  C     C_R   0.501861 0.071519 0.052746 -0.011921
C170  C     C_R   0.498286 0.071644 0.947114 -0.009897
C171  C     C_R   0.001874 0.571518 0.052738 -0.010501
C172  C     C_R   0.998293 0.571640 0.947107 -0.010398
C173  C     C_R   0.497589 0.977167 0.973621 0.111154
C174  C     C_R   0.502868 0.977102 0.025978 0.109145
C175  C     C_R   0.997591 0.477164 0.973614 0.110940
C176  C     C_R   0.002874 0.477100 0.025971 0.110565
Cr1   Cr    Cr6+3 0.756570 0.170940 0.251190 1.047605
Cr2   Cr    Cr6+3 0.243430 0.170940 0.748810 1.054908
Cr3   Cr    Cr6+3 0.256570 0.670940 0.251190 1.075068
Cr4   Cr    Cr6+3 0.743430 0.670940 0.748810 1.051825
Cr5   Cr    Cr6+3 0.623740 0.299110 0.249580 1.114681
Cr6   Cr    Cr6+3 0.376260 0.299110 0.750420 1.114244
Cr7   Cr    Cr6+3 0.123740 0.799110 0.249580 1.100094
Cr8   Cr    Cr6+3 0.876260 0.799110 0.750420 1.117988
Cr9   Cr    Cr6+3 0.625990 0.036240 0.250480 1.082694
Cr10  Cr    Cr6+3 0.374010 0.036240 0.749520 1.071185
Cr11  Cr    Cr6+3 0.125990 0.536240 0.250480 1.055437
Cr12  Cr    Cr6+3 0.874010 0.536240 0.749520 1.084479
H1    H     H_    0.828114 0.003378 0.875473 0.170698
H2    H     H_    0.172199 0.003639 0.124660 0.167364
H3    H     H_    0.328137 0.503303 0.875512 0.169399
H4    H     H_    0.672199 0.503648 0.124668 0.169234
H5    H     H_    0.650304 0.910831 0.028503 0.149082
H6    H     H_    0.349213 0.906154 0.971001 0.149493
H7    H     H_    0.150365 0.410565 0.028529 0.149196
H8    H     H_    0.849220 0.406204 0.971008 0.149529
H9    H     H_    0.643175 0.938054 0.117226 0.170371
H10   H     H_    0.356444 0.934446 0.882390 0.171237
H11   H     H_    0.143209 0.437884 0.117243 0.170806
H12   H     H_    0.856450 0.434482 0.882395 0.171324
H13   H     H_    0.565489 0.324355 0.383127 0.158735
H14   H     H_    0.453998 0.330297 0.621263 0.159399
H15   H     H_    0.050493 0.830168 0.379820 0.155514
H16   H     H_    0.943039 0.827340 0.618926 0.164210
H17   H     H_    0.529231 0.013918 0.539191 0.105683
H18   H     H_    0.473490 0.021566 0.463453 0.120973
H19   H     H_    0.031070 0.519562 0.538550 0.109546
H20   H     H_    0.977340 0.515239 0.463127 0.129140
H21   H     H_    0.502892 0.007690 0.626671 0.143024
H22   H     H_    0.492833 0.016181 0.374465 0.155278
H23   H     H_    0.006970 0.512904 0.626552 0.147401
H24   H     H_    0.999360 0.508946 0.374865 0.143157
H25   H     H_    0.549151 0.327685 0.471871 0.123055
H26   H     H_    0.478547 0.335476 0.533928 0.155408
H27   H     H_    0.030612 0.835211 0.467896 0.159580
H28   H     H_    0.963715 0.832089 0.531071 0.166990
H29   H     H_    0.627370 0.003210 0.388314 0.146360
H30   H     H_    0.335707 0.855254 0.630604 0.163532
H31   H     H_    0.146919 0.417072 0.379935 0.149848
H32   H     H_    0.723835 0.331372 0.629434 0.143911
H33   H     H_    0.762420 0.115612 0.563933 0.144813
H34   H     H_    0.280658 0.982819 0.463303 0.147269
H35   H     H_    0.276654 0.575406 0.545954 0.151448
H36   H     H_    0.705491 0.567603 0.456619 0.159169
H37   H     H_    0.630916 0.976333 0.478288 0.116458
H38   H     H_    0.319201 0.787306 0.546311 0.143328
H39   H     H_    0.152847 0.393799 0.469075 0.124405
H40   H     H_    0.722887 0.304259 0.538633 0.117611
H41   H     H_    0.694219 0.816198 0.523293 0.146931
H42   H     H_    0.181770 0.703984 0.489012 0.134539
H43   H     H_    0.214162 0.264253 0.523166 0.149649
H44   H     H_    0.817545 0.298816 0.470779 0.149176
H45   H     H_    0.716215 0.752852 0.606731 0.139993
H46   H     H_    0.167867 0.680707 0.398724 0.098766
H47   H     H_    0.224268 0.230393 0.611063 0.146938
H48   H     H_    0.800869 0.258724 0.383476 0.142353
H49   H     H_    0.817673 0.051620 0.389414 0.162445
H50   H     H_    0.168874 0.021465 0.619239 0.162065
H51   H     H_    0.333756 0.498065 0.378507 0.167312
H52   H     H_    0.809489 0.625279 0.609177 0.125993
H53   H     H_    0.493766 0.428305 0.956781 0.178189
H54   H     H_    0.504698 0.428227 0.044064 0.177961
H55   H     H_    0.993813 0.928302 0.956769 0.178080
H56   H     H_    0.004745 0.928225 0.044051 0.178075
H57   H     H_    0.834396 0.974785 0.128398 0.160926
H58   H     H_    0.165542 0.977162 0.871641 0.160076
H59   H     H_    0.334421 0.474743 0.128437 0.160759
H60   H     H_    0.665545 0.477162 0.871645 0.159626
H61   H     H_    0.681911 0.794320 0.967639 0.132892
H62   H     H_    0.317055 0.791108 0.031790 0.131553
H63   H     H_    0.181996 0.294093 0.967668 0.132774
H64   H     H_    0.817064 0.291143 0.031793 0.131578
H65   H     H_    0.692150 0.767531 0.879038 0.155730
H66   H     H_    0.306985 0.764852 0.120402 0.154980
H67   H     H_    0.192202 0.267401 0.879058 0.155840
H68   H     H_    0.806990 0.264870 0.120404 0.154962
H69   H     H_    0.841711 0.940314 0.039210 0.127969
H70   H     H_    0.158062 0.941866 0.960632 0.127989
H71   H     H_    0.341764 0.440176 0.039258 0.127947
H72   H     H_    0.658067 0.441880 0.960637 0.128007
H73   H     H_    0.815936 0.033201 0.964221 0.124041
H74   H     H_    0.184249 0.032998 0.035930 0.124242
H75   H     H_    0.315986 0.533036 0.964269 0.123940
H76   H     H_    0.684252 0.533021 0.035938 0.124418
O1    O     O_R   0.769900 0.064540 0.196060 -0.504622
O2    O     O_R   0.230100 0.064540 0.803940 -0.508676
O3    O     O_R   0.269900 0.564540 0.196060 -0.508641
O4    O     O_R   0.730100 0.564540 0.803940 -0.510436
O5    O     O_R   0.574760 0.239320 0.300850 -0.497266
O6    O     O_R   0.425240 0.239320 0.699150 -0.499331
O7    O     O_R   0.074760 0.739320 0.300850 -0.518897
O8    O     O_R   0.925240 0.739320 0.699150 -0.500818
O9    O     O_R   0.566290 0.069580 0.305400 -0.520369
O10   O     O_R   0.433710 0.069580 0.694600 -0.510996
O11   O     O_R   0.066290 0.569580 0.305400 -0.514308
O12   O     O_R   0.933710 0.569580 0.694600 -0.503315
O13   O     O_R   0.680760 0.993330 0.302620 -0.472449
O14   O     O_R   0.319240 0.993330 0.697380 -0.495235
O15   O     O_R   0.180760 0.493330 0.302620 -0.506103
O16   O     O_R   0.819240 0.493330 0.697380 -0.482063
O17   O     O_3   0.668770 0.168760 0.250420 -0.298103
O18   O     O_3   0.331230 0.168760 0.749580 -0.272558
O19   O     O_3   0.168770 0.668760 0.250420 -0.300450
O20   O     O_3   0.831230 0.668760 0.749580 -0.278283
O21   O     O_R   0.750800 0.274080 0.199250 -0.502334
O22   O     O_R   0.249200 0.274080 0.800750 -0.503054
O23   O     O_R   0.250800 0.774080 0.199250 -0.494493
O24   O     O_R   0.749200 0.774080 0.800750 -0.503324
O25   O     O_R   0.669990 0.371670 0.194150 -0.476980
O26   O     O_R   0.330010 0.371670 0.805850 -0.479397
O27   O     O_R   0.169990 0.871670 0.194150 -0.479566
O28   O     O_R   0.830010 0.871670 0.805850 -0.476347
O29   O     O_R   0.574600 0.238480 0.197800 -0.448518
O30   O     O_R   0.425400 0.238480 0.802200 -0.451694
O31   O     O_R   0.074600 0.738480 0.197800 -0.449834
O32   O     O_R   0.925400 0.738480 0.802200 -0.451185
O33   O     O_R   0.566130 0.068680 0.194240 -0.486827
O34   O     O_R   0.433870 0.068680 0.805760 -0.488976
O35   O     O_R   0.066130 0.568680 0.194240 -0.486026
O36   O     O_R   0.933870 0.568680 0.805760 -0.488699
O37   O     O_R   0.680610 0.992490 0.199570 -0.492040
O38   O     O_R   0.319390 0.992490 0.800430 -0.497917
O39   O     O_R   0.180610 0.492490 0.199570 -0.496593
O40   O     O_R   0.819390 0.492490 0.800430 -0.497509
O41   O     O_R   0.770060 0.065440 0.307230 -0.505666
O42   O     O_R   0.229940 0.065440 0.692770 -0.518416
O43   O     O_R   0.270060 0.565440 0.307230 -0.515910
O44   O     O_R   0.729940 0.565440 0.692770 -0.510441
O45   O     O_R   0.750960 0.274920 0.302300 -0.529863
O46   O     O_R   0.249040 0.274920 0.697700 -0.512778
O47   O     O_R   0.250960 0.774920 0.302300 -0.461303
O48   O     O_R   0.749040 0.774920 0.697700 -0.513136
O49   O     O_R   0.670160 0.372580 0.305320 -0.464563
O50   O     O_R   0.329840 0.372580 0.694680 -0.464112
O51   O     O_R   0.170160 0.872580 0.305320 -0.467193
O52   O     O_R   0.829840 0.872580 0.694680 -0.462056
I1    I     I_    0.553822 0.975661 0.851774 -0.280182
I2    I     I_    0.446723 0.975228 0.147862 -0.252436
I3    I     I_    0.053816 0.475637 0.851768 -0.275989
I4    I     I_    0.946735 0.475224 0.147852 -0.274978
Br1   Br    Br    0.799972 0.096407 0.668396 -0.473203
Br2   Br    Br    0.281725 0.005962 0.354681 -0.437142
Br3   Br    Br    0.301366 0.590642 0.653494 -0.494470
Br4   Br    Br    0.670652 0.577853 0.352127 -0.444505
I5    I     I_    0.472864 0.834289 0.938019 -0.325004
I6    I     I_    0.527953 0.834115 0.061173 -0.322803
I7    I     I_    0.972853 0.334288 0.938016 -0.322673
I8    I     I_    0.027959 0.334111 0.061164 -0.326692
I9    I     I_    0.865306 0.017810 0.493767 -0.370663
I10   I     I_    0.116615 0.986250 0.516032 -0.420415
I11   I     I_    0.383190 0.478228 0.483905 -0.419275
I12   I     I_    0.829613 0.657921 0.498716 -0.384746
Br5   Br    Br    0.483580 0.391618 0.859985 -0.492921
Br6   Br    Br    0.515075 0.391325 0.140775 -0.484631
Br7   Br    Br    0.983607 0.891611 0.859972 -0.488562
Br8   Br    Br    0.015101 0.891327 0.140760 -0.492013

loop_
_geom_bond_atom_site_label_1
_geom_bond_atom_site_label_2
_ccdc_geom_bond_type
C99   C103  A    
C7    C168  A    
C55   C59   A    
C142  C146  A    
C77   C101  A    
C19   C20   A    
C53   C69   A    
C88   C96   A    
C50   H10   S    
C121  I9    S    
C62   H2    S    
C108  C164  S    
C111  H31   S    
C32   H60   S    
Cr9   O37   S    
Cr10  O34   S    
Cr11  O39   S    
C26   C50   A    
C95   C99   A    
C174  I6    S    
C29   C33   A    
C100  C104  A    
C3    C74   S    
C9    C13   A    
C41   H5    S    
C146  C150  A    
C147  H43   S    
C12   C16   A    
C56   C72   A    
C169  C174  A    
Cr7   O31   S    
Cr8   O28   S    
C172  C175  A    
C141  C145  A    
C84   H16   S    
C6    C165  A    
C21   C22   A    
C92   O40   A    
C61   H1    S    
C140  Br4   S    
C91   O3    A    
C41   C49   A    
C64   H4    S    
C9    Br6   S    
C18   C170  A    
C25   C29   A    
C160  O8    A    
C11   Br8   S    
C59   H67   S    
C84   C88   A    
C28   C32   A    
C82   H14   S    
C62   C66   A    
C167  C171  A    
C98   C102  A    
C60   C76   A    
C15   C19   A    
C115  H39   S    
Cr1   O1    S    
C78   C82   A    
C113  H37   S    
C134  C155  S    
C54   C70   A    
C68   C72   A    
C1    O25   A    
C134  O46   A    
C135  O51   A    
C20   C172  A    
C116  H40   S    
C119  C123  A    
C138  Br2   S    
C132  C152  A    
C128  H52   S    
C130  C138  A    
C12   Br7   S    
Cr12  O16   S    
C137  C153  A    
C30   H58   S    
C46   O34   A    
Cr9   O13   S    
Cr6   O18   S    
C67   H75   S    
Cr10  O10   S    
Cr11  O15   S    
C26   C90   S    
C5    C46   S    
C105  C125  A    
C7    C48   S    
C8    C47   S    
Cr7   O27   S    
C175  C176  A    
C157  O9    A    
C136  C153  S    
C175  I7    S    
C66   C70   A    
C163  O15   A    
C124  I12   S    
Cr3   O23   S    
C10   Br5   S    
C58   H66   S    
C107  C127  A    
C92   O4    A    
C61   C65   A    
C129  C137  A    
C159  O7    A    
C141  H45   S    
C33   H69   S    
C39   C71   S    
C117  C149  S    
C129  C149  A    
C48   O36   A    
C22   H53   S    
C55   C71   A    
C2    C75   S    
Cr12  O20   S    
C122  C126  A    
C134  O50   A    
C113  C117  A    
Cr1   O21   S    
C6    C9    A    
C49   H9    S    
Cr7   O19   S    
Cr1   O45   S    
C64   C68   A    
Cr5   O29   S    
Cr2   O42   S    
Cr2   O18   S    
Cr3   O47   S    
C65   C69   A    
C60   H68   S    
C43   H7    S    
C118  C122  A    
C57   C73   A    
C123  C127  A    
C78   C158  S    
C87   C95   A    
C130  C150  A    
C23   C24   A    
C27   C91   S    
C52   H12   S    
C97   H18   S    
C47   O31   A    
C110  C114  A    
Cr9   O33   S    
C48   O32   A    
C89   O37   A    
C44   C52   A    
C165  I2    S    
C91   O39   A    
C79   C103  A    
Cr10  O38   S    
C11   C15   A    
Cr11  O35   S    
Cr4   O4    S    
C27   C51   A    
Cr5   O5    S    
C7    C12   A    
Cr7   O7    S    
C30   C34   A    
C10   C14   A    
C108  C128  A    
C116  C120  A    
C144  C156  A    
C147  C151  A    
C86   H26   S    
C121  C125  A    
C37   C69   S    
C143  C155  A    
C139  C155  A    
C157  O5    A    
C54   C58   A    
C17   C18   A    
C112  H32   S    
C5    C166  A    
C142  C154  A    
C4    C73   S    
C42   C50   A    
C148  H44   S    
C176  I8    S    
C166  C170  A    
C115  C119  A    
C14   C22   A    
C105  C161  S    
C93   C97   A    
C68   H76   S    
C58   C74   A    
C137  Br1   S    
C105  C109  A    
C40   C72   S    
C1    C76   S    
C107  C111  A    
C65   H73   S    
C148  C152  A    
C107  C163  S    
Cr2   O2    S    
C102  H21   S    
C26   C30   A    
C135  O47   A    
C171  C176  A    
C13   C17   A    
C2    O26   A    
C161  O13   A    
C136  O48   A    
C63   C75   A    
C96   C100  A    
C89   O1    A    
C36   H72   S    
C57   H65   S    
C109  H29   S    
Cr12  O36   S    
C40   C44   A    
C131  H35   S    
C46   O30   A    
C138  C154  A    
Cr9   O17   S    
C81   C85   A    
Cr10  O14   S    
Cr11  O11   S    
C83   C87   A    
Cr4   O44   S    
C127  H51   S    
C6    C45   S    
C78   C102  A    
C133  C156  S    
C133  O49   A    
C80   C84   A    
C122  I10   S    
C1    O21   A    
Cr2   O22   S    
C3    O23   A    
Cr3   O19   S    
C135  C154  S    
C80   C104  A    
C79   C159  S    
C80   C160  S    
C112  C116  A    
C94   C98   A    
C34   H70   S    
C118  C150  S    
Cr5   O49   S    
C160  O12   A    
Cr4   O20   S    
C124  C128  A    
C165  C169  A    
C167  I4    S    
Cr5   O25   S    
Cr2   O46   S    
C168  I3    S    
Cr6   O30   S    
Cr3   O43   S    
C133  O45   A    
C100  H19   S    
C44   H8    S    
C144  H48   S    
C161  O41   A    
Cr8   O8    S    
C130  H34   S    
C83   H15   S    
C53   C57   A    
C81   H13   S    
C61   C73   A    
C82   C86   A    
C27   C31   A    
C33   C37   A    
C108  C112  A    
C45   O33   A    
C35   C39   A    
C4    O28   A    
C8    C167  A    
C114  H38   S    
C90   O38   A    
C123  I11   S    
C166  I1    S    
C54   H62   S    
C38   C70   S    
Cr6   O6    S    
C139  Br3   S    
C31   C35   A    
C32   C36   A    
C125  H49   S    
Cr11  O19   S    
C132  H36   S    
C29   H57   S    
Cr8   O52   S    
Cr8   O20   S    
C132  C140  A    
C106  C126  A    
C25   C89   S    
C158  O6    A    
C99   H20   S    
C79   C83   A    
C43   C51   A    
C63   H3    S    
C56   H64   S    
C67   C71   A    
C106  C162  S    
C25   C49   A    
C56   C60   A    
C168  C172  A    
C77   C81   A    
Cr6   O50   S    
C87   H27   S    
C62   C74   A    
C23   H56   S    
C66   H74   S    
C145  C149  A    
C21   H54   S    
C170  C173  A    
Cr3   O3    S    
C93   C94   S    
C14   C18   A    
C47   O35   A    
C95   C96   S    
C3    O27   A    
C144  C148  A    
C141  C153  A    
Cr8   O32   S    
C162  O14   A    
C173  C174  A    
C136  O52   A    
C143  C147  A    
C4    O24   A    
C90   O2    A    
C19   C171  A    
C38   C42   A    
C85   H25   S    
Cr12  O40   S    
C17   C169  A    
C24   H55   S    
C143  H47   S    
C42   H6    S    
C117  C121  A    
Cr10  O18   S    
Cr4   O48   S    
C164  O44   A    
C98   H17   S    
Cr7   O51   S    
C86   C94   A    
C16   C20   A    
C2    O22   A    
C15   C23   A    
C16   C24   A    
C37   C41   A    
C31   H59   S    
C85   C93   A    
C158  O10   A    
C119  C151  S    
C63   C67   A    
C120  C152  S    
C13   C21   A    
C35   H71   S    
C36   C40   A    
C131  C139  A    
C129  H33   S    
C39   C43   A    
Cr12  O12   S    
Cr4   O24   S    
Cr5   O17   S    
Cr9   O9    S    
C64   C76   A    
C28   C92   S    
C53   H61   S    
Cr6   O26   S    
C114  C118  A    
C51   H11   S    
Cr1   O17   S    
C140  C156  A    
C55   H63   S    
C162  O42   A    
C173  I5    S    
C59   C75   A    
C146  H42   S    
C88   H28   S    
C34   C38   A    
C45   O29   A    
C103  H24   S    
C109  C113  A    
C101  H22   S    
C159  O11   A    
C5    C10   A    
C28   C52   A    
C8    C11   A    
C131  C151  A    
Cr1   O41   S    
C163  O43   A    
C110  H30   S    
C142  H46   S    
C106  C110  A    
C164  O16   A    
C111  C115  A    
C104  H23   S    
C145  H41   S    
C97   C101  A    
C120  C124  A    
C77   C157  S    
C126  H50   S    
