data_mof_unit_67170.cif
_audit_creation_date              2013-03-05T15:58:59-0500
_audit_creation_method            fapswitch 2.2
_symmetry_space_group_name_H-M    P1
_symmetry_Int_Tables_number       1
_space_group_crystal_system       triclinic
_cell_length_a                    8.28969
_cell_length_b                    12.73099
_cell_length_c                    14.982188
_cell_angle_alpha                 97.404171
_cell_angle_beta                  97.134681
_cell_angle_gamma                 98.966246
_cell_volume                      1531.92079058

loop_
_atom_site_label
_atom_site_type_symbol
_atom_site_description
_atom_site_fract_x
_atom_site_fract_y
_atom_site_fract_z
_atom_type_partial_charge
P1    P     P_3+3 0.998730 0.403530 0.291970 0.428614
O1    O     O_2   0.827880 0.435260 0.277750 -0.380324
O2    O     O_3   0.100280 0.438960 0.391170 -0.416084
O3    O     O_3   0.625580 0.634130 0.333250 -0.376754
O4    O     O_2   0.696524 0.561343 0.174982 -0.369141
O5    O     O_3   0.945960 0.263066 0.278398 -0.593844
O6    O     O_3   0.681075 0.766011 0.206037 -0.539608
H1    H     H_    0.709066 0.834983 0.341161 0.154998
C1    C     C_3   0.687990 0.953986 0.253174 -0.967056
H2    H     H_    0.822661 0.972766 0.251742 0.295497
H3    H     H_    0.621045 0.962292 0.186323 0.246465
P2    P     P_3+3 0.687380 0.751030 0.571310 0.445567
P3    P     P_3+3 0.108871 0.828471 0.381734 0.447838
O7    O     O_2   0.857130 0.766340 0.543890 -0.386053
O8    O     O_3   0.056550 0.691050 0.379010 -0.385454
O9    O     O_2   0.998492 0.883302 0.442160 -0.382913
O10   O     O_3   0.725554 0.785927 0.689953 -0.572736
O11   O     O_3   0.052034 0.860261 0.273424 -0.527396
C2    C     C_3   0.085693 0.780181 0.208185 0.521513
H4    H     H_    0.006201 0.701702 0.209550 0.143802
H5    H     H_    0.217790 0.771943 0.219968 -0.014106
C3    C     C_3   0.047928 0.811278 0.114143 -0.987663
H6    H     H_    0.066193 0.746320 0.061415 0.227577
H7    H     H_    0.917931 0.823707 0.101447 0.290167
C4    C     C_3   0.266367 0.779323 0.652798 0.404839
H8    H     H_    0.372195 0.748820 0.627155 0.100384
H9    H     H_    0.156083 0.758164 0.599616 0.139782
C5    C     C_3   0.307724 0.901038 0.676178 -0.941124
H10   H     H_    0.422295 0.923966 0.726099 0.257157
H11   H     H_    0.326757 0.937774 0.614448 0.237907
H12   H     H_    0.205105 0.932299 0.705845 0.287575
Ba1   Ba    Ba6+2 0.843750 0.550210 0.455600 1.523035
C6    C     C_3   0.072265 0.214078 0.245777 0.419906
H13   H     H_    0.102905 0.155741 0.291561 0.136367
H14   H     H_    0.188277 0.270657 0.245034 0.066573
C7    C     C_3   0.009955 0.151959 0.150615 -1.042511
H15   H     H_    0.882830 0.106934 0.147291 0.280153
H16   H     H_    0.091618 0.093532 0.132974 0.250619
H17   H     H_    0.009366 0.208110 0.099861 0.248853
C8    C     C_3   0.777849 0.701148 0.729826 0.452152
H18   H     H_    0.891729 0.682569 0.704628 0.095883
H19   H     H_    0.679810 0.628457 0.715084 0.126922
C9    C     C_3   0.814842 0.735610 0.832506 -1.005353
H20   H     H_    0.915958 0.806509 0.849377 0.269911
H21   H     H_    0.853098 0.669462 0.866750 0.227161
H22   H     H_    0.702797 0.756959 0.858744 0.263024
P4    P     P_3+3 0.190990 0.596560 0.708040 0.440821
O12   O     O_2   0.361830 0.564780 0.722310 -0.363310
O13   O     O_3   0.089430 0.561130 0.608830 -0.450505
O14   O     O_3   0.564130 0.365960 0.666760 -0.399120
O15   O     O_3   0.236031 0.737086 0.731847 -0.571442
P5    P     P_3+3 0.089186 0.168488 0.624453 0.450938
O16   O     O_3   0.601940 0.368240 0.453770 -0.420901
O17   O     O_3   0.133170 0.309040 0.621000 -0.403886
O18   O     O_2   0.205155 0.116225 0.566013 -0.371372
O19   O     O_3   0.153978 0.145495 0.734928 -0.520514
Ba2   Ba    Ba6+2 0.346090 0.449880 0.544410 1.509499
P6    P     P_3+3 0.586422 0.636125 0.217019 0.432300
C10   C     C_3   0.640161 0.840326 0.274036 0.488941
H23   H     H_    0.505507 0.826182 0.277510 -0.001772
H24   H     H_    0.655806 0.012959 0.306311 0.232064
O20   O     O_3   0.587780 0.631850 0.546230 -0.399318
C11   C     C_3   0.529336 0.260662 0.260826 0.415614
H25   H     H_    0.490891 0.340281 0.275854 0.101596
H26   H     H_    0.662772 0.266868 0.279503 0.161211
C12   C     C_3   0.487745 0.220987 0.158984 -1.035350
H27   H     H_    0.352563 0.204711 0.137396 0.262490
H28   H     H_    0.541983 0.283384 0.120864 0.237174
H29   H     H_    0.537788 0.146132 0.141507 0.265972
P7    P     P_3+3 0.505768 0.230187 0.425591 0.400959
O21   O     O_2   0.332590 0.233690 0.456160 -0.348640
O22   O     O_3   0.449756 0.185846 0.308428 -0.597070
H30   H     H_    0.131195 0.886844 0.109028 0.256406
C13   C     C_3   0.122500 0.229800 0.797092 0.511531
H31   H     H_    0.204431 0.306245 0.792761 0.148993
H32   H     H_    0.991825 0.240503 0.784311 -0.003732
C14   C     C_3   0.156739 0.204005 0.893309 -0.985148
H33   H     H_    0.287771 0.194965 0.909473 0.292964
H34   H     H_    0.131733 0.270063 0.942856 0.220142
H35   H     H_    0.075969 0.128011 0.899906 0.259145
P8    P     P_3+3 0.606428 0.377920 0.785531 0.439897
C15   C     C_3   0.609554 0.173178 0.763554 0.485547
H36   H     H_    0.717129 0.206772 0.732484 0.012153
O23   O     O_2   0.489336 0.448327 0.825936 -0.382598
O24   O     O_3   0.540532 0.251043 0.814536 -0.520994
H37   H     H_    0.513569 0.127701 0.707777 0.128945
H38   H     H_    0.764569 0.140839 0.880640 0.264586
C16   C     C_3   0.666773 0.096233 0.825402 -1.057347
H39   H     H_    0.717574 0.032567 0.785591 0.250671
H40   H     H_    0.561736 0.058258 0.856342 0.279820
C17   C     C_R   0.825522 0.436186 0.831105 0.179030
C18   C     C_R   0.897400 0.441254 0.923139 -0.000167
C19   C     C_R   0.041870 0.457727 0.109422 -0.011636
C20   C     C_R   0.885324 0.395858 0.075783 -0.132482
C21   C     C_R   0.812626 0.390425 0.985730 -0.176504
C22   C     C_R   0.110625 0.468264 0.203060 0.200434
H41   H     H_    0.816209 0.350803 0.118854 0.170790
H42   H     H_    0.689814 0.344217 0.965795 0.182941
C23   C     C_R   0.269216 0.530089 0.231141 -0.449585
C24   C     C_R   0.082094 0.534173 0.796392 0.276903
C25   C     C_R   0.150308 0.547491 0.890082 -0.087256
C26   C     C_R   0.059591 0.499602 0.953456 0.007344
C27   C     C_R   0.300656 0.615057 0.923211 -0.068732
C28   C     C_R   0.355739 0.643640 0.016593 0.129141
C29   C     C_R   0.285772 0.580498 0.079166 -0.087724
C30   C     C_R   0.130164 0.511815 0.047488 0.017657
C31   C     C_R   0.360704 0.583778 0.171513 0.137970
C32   C     C_R   0.920073 0.480752 0.769763 -0.556437
H43   H     H_    0.367683 0.656936 0.877519 0.182517
H44   H     H_    0.324875 0.533841 0.300963 0.183767
H45   H     H_    0.863149 0.479818 0.700793 0.162307
C33   C     C_R   0.760366 0.176538 0.546827 -0.172516
C34   C     C_R   0.422230 0.805356 0.463126 -0.529236
C35   C     C_R   0.390532 0.983137 0.433490 -0.182249
C36   C     C_R   0.326172 0.875291 0.427671 0.207613
C37   C     C_R   0.579905 0.844862 0.512296 0.288799
C38   C     C_R   0.645278 0.956246 0.522293 -0.065296
C39   C     C_R   0.548347 0.025580 0.481049 -0.108184
C40   C     C_R   0.609087 0.136452 0.491171 0.234645
C41   C     C_R   0.866410 0.109595 0.578616 0.177452
C42   C     C_R   0.805245 0.000223 0.570286 -0.211648
H46   H     H_    0.311840 0.033434 0.403831 0.194385
H47   H     H_    0.885365 0.951824 0.601081 0.197154
H48   H     H_    0.369867 0.720989 0.457382 0.179502
C43   C     C_3   0.460961 0.753969 0.046700 -0.314142
C44   C     C_3   0.417955 0.840909 0.989940 -0.942922
H49   H     H_    0.468090 0.832386 0.924570 0.270251
H50   H     H_    0.282282 0.837031 0.976055 0.277479
H51   H     H_    0.474402 0.921785 0.027687 0.258494
H52   H     H_    0.436509 0.783562 0.115369 0.212070
H53   H     H_    0.592616 0.747835 0.044876 0.238350
C45   C     C_3   0.822489 0.291640 0.564411 -0.410601
C46   C     C_3   0.917582 0.319430 0.488152 -0.411385
H54   H     H_    0.002107 0.262987 0.470256 0.222224
H55   H     H_    0.837951 0.316895 0.423792 0.214773
H56   H     H_    0.988129 0.399540 0.513013 0.290126
H57   H     H_    0.735123 0.342017 0.573842 0.251093
H58   H     H_    0.881201 0.313845 0.635545 0.154012

loop_
_geom_bond_atom_site_label_1
_geom_bond_atom_site_label_2
_geom_bond_distance
_ccdc_geom_bond_type
C12   H28   1.108493 S    
H38   C16   1.110553 S    
C11   H26   1.094655 S    
C19   C20   1.405376 A    
C2    H4    1.111875 S    
C35   C36   1.380795 A    
C21   H42   1.079004 S    
O12   Ba2   2.847811 S    
P4    O13   1.587315 S    
C14   H33   1.110213 S    
C4    C5    1.518558 S    
C29   C31   1.437133 A    
C44   H49   1.109709 S    
C13   H32   1.108996 S    
O4    P6    1.547633 D    
C1    H24   1.108965 S    
C5    H10   1.107931 S    
C2    H5    1.110783 S    
P6    C31   1.894051 S    
H1    C10   1.108755 S    
P2    C37   1.846832 S    
C12   H29   1.111182 S    
C45   H58   1.096916 S    
C22   C23   1.406980 A    
C6    C7    1.524492 S    
O13   Ba2   2.925983 S    
C37   C38   1.418615 A    
O1    Ba1   2.847245 S    
P1    O1    1.529711 D    
C38   C42   1.420184 A    
C39   C40   1.404706 A    
P5    C41   1.888094 S    
C43   H52   1.103269 S    
C8    C9    1.523163 S    
C28   C43   1.514687 S    
C45   C46   1.514229 S    
C13   C14   1.521809 S    
P2    O10   1.752151 S    
C46   H56   1.087643 S    
P7    O21   1.565463 D    
C1    H2    1.108152 S    
O6    P6    1.753525 S    
P5    O18   1.546550 D    
C18   C26   1.419812 A    
C34   C37   1.401612 A    
C8    H19   1.110859 S    
C12   H27   1.106178 S    
C11   C12   1.522667 S    
C10   H23   1.111458 S    
C25   C27   1.393468 A    
P2    Ba1   3.416272 S    
C20   C21   1.396151 A    
Ba1   Ba2   4.536551 S    
O16   P7    1.786390 S    
O6    C10   1.409064 S    
C28   C29   1.430190 A    
P5    O17   1.778380 S    
C14   H34   1.110361 S    
C11   O22   1.395393 S    
C24   C32   1.392078 A    
O19   C13   1.406220 S    
C13   H31   1.110787 S    
P1    O5    1.752393 S    
C25   C26   1.422104 A    
Ba2   O20   2.811614 S    
C2    C3    1.520770 S    
O7    Ba1   2.874615 S    
C17   C18   1.421791 A    
C33   C41   1.400022 A    
O16   Ba2   2.908863 S    
O11   C2    1.404336 S    
P4    O15   1.749722 S    
C44   H51   1.110369 S    
C4    H8    1.104306 S    
C15   H37   1.110493 S    
C23   H44   1.081577 S    
C7    H17   1.108844 S    
P1    Ba1   3.390863 S    
Ba2   O21   2.874931 S    
P4    C24   1.882078 S    
C1    C10   1.522236 S    
O10   C8    1.399083 S    
C35   H46   1.079138 S    
C9    H20   1.110833 S    
C4    O15   1.396778 S    
C19   C30   1.430786 A    
P4    Ba2   3.391415 S    
P2    O20   1.584467 S    
C43   H53   1.109677 S    
P4    O12   1.529949 D    
P7    C40   1.880086 S    
C6    H13   1.110595 S    
O3    Ba1   2.838313 S    
C33   C45   1.453781 S    
C1    H3    1.108967 S    
C35   C39   1.400017 A    
P3    O11   1.748651 S    
C8    H18   1.106696 S    
P2    O7    1.505205 D    
C19   C22   1.428292 A    
P3    O8    1.729518 S    
C43   C44   1.538057 S    
C3    H7    1.110173 S    
C4    H9    1.109135 S    
O2    Ba2   2.847781 S    
Ba1   O16   2.812166 S    
P8    O23   1.545761 D    
C41   C42   1.389569 A    
C14   H35   1.110524 S    
C7    H15   1.110365 S    
C44   H50   1.110214 S    
O14   Ba2   2.837650 S    
C17   C32   1.398423 A    
C5    H12   1.110616 S    
C16   H40   1.110676 S    
O8    Ba1   2.773219 S    
C33   C40   1.399821 A    
C32   H45   1.079136 S    
P3    C36   1.823585 S    
C15   O24   1.408428 S    
C23   C31   1.415820 A    
C29   C30   1.429399 A    
C20   H41   1.076328 S    
O5    C6    1.405771 S    
C27   H43   1.076030 S    
C7    H16   1.110018 S    
C45   H57   1.050081 S    
Ba1   O20   2.909624 S    
C9    H21   1.107773 S    
C38   C39   1.430025 A    
C46   H54   1.110474 S    
C34   H48   1.082148 S    
P1    C22   1.914578 S    
C15   C16   1.520780 S    
C5    H11   1.106198 S    
C24   C25   1.424937 A    
C6    H14   1.110238 S    
C26   C30   1.435834 A    
C18   C21   1.403679 A    
O2    Ba1   2.925127 S    
C9    H22   1.110388 S    
Ba1   O13   2.847019 S    
C42   H47   1.076272 S    
C11   H25   1.113280 S    
P8    C17   1.859195 S    
C16   H39   1.110977 S    
C15   H36   1.109230 S    
P3    O9    1.544708 D    
O3    P6    1.735513 S    
C27   C28   1.398789 A    
C46   H55   1.092619 S    
C3    H6    1.109617 S    
P7    O22   1.753854 S    
C3    H30   1.110390 S    
P1    O2    1.587159 S    
P8    O24   1.749625 S    
P5    O19   1.751218 S    
O14   P8    1.752453 S    
C34   C36   1.395267 A    
O17   Ba2   2.773801 S    
