data_mof_unit_34369.cif
_audit_creation_date              2013-03-05T15:48:49-0500
_audit_creation_method            fapswitch 2.2
_symmetry_space_group_name_H-M    P1
_symmetry_Int_Tables_number       1
_space_group_crystal_system       triclinic
_cell_length_a                    10.239406
_cell_length_b                    10.60016
_cell_length_c                    27.704115
_cell_angle_alpha                 90.967534
_cell_angle_beta                  82.464313
_cell_angle_gamma                 94.353742
_cell_volume                      2972.34101171

loop_
_atom_site_label
_atom_site_type_symbol
_atom_site_description
_atom_site_fract_x
_atom_site_fract_y
_atom_site_fract_z
_atom_type_partial_charge
O1    O     O_R   0.431060 0.692470 0.504020 -0.550239
O2    O     O_R   0.568940 0.307530 0.495980 -0.566825
O3    O     O_R   0.651120 0.659650 0.491200 -0.615308
O4    O     O_R   0.348880 0.340350 0.508800 -0.662879
C1    C     C_R   0.553743 0.733457 0.494316 0.973645
C2    C     C_R   0.445875 0.266329 0.500256 0.974932
O5    O     O_R   0.389980 0.516390 0.577660 -0.562709
O6    O     O_R   0.610020 0.483610 0.422340 -0.544318
O7    O     O_R   0.610040 0.483570 0.564830 -0.653512
O8    O     O_R   0.389960 0.516430 0.435170 -0.607770
C3    C     C_R   0.501515 0.500254 0.593717 0.988205
C4    C     C_R   0.498762 0.499898 0.406094 1.027697
Zn1   Zn    Zn3+2 0.353060 0.521910 0.508560 1.112254
Zn2   Zn    Zn3+2 0.646940 0.478090 0.491440 1.115085
C5    C     C_R   0.547140 0.625270 0.822108 0.670019
C6    C     C_R   0.441825 0.414027 0.177101 0.665560
O9    O     O_2   0.618565 0.718421 0.795672 -0.439094
O10   O     O_2   0.437830 0.301239 0.199341 -0.433175
N1    N     N_R   0.504073 0.518298 0.799106 -0.329189
N2    N     N_R   0.475315 0.522450 0.201422 -0.332044
C7    C     C_R   0.445923 0.415587 0.824685 0.629104
C8    C     C_R   0.496882 0.636274 0.178174 0.640062
C9    C     C_R   0.585570 0.429677 0.718963 0.241796
C10   C     C_R   0.601992 0.555876 0.271116 0.237850
C11   C     C_R   0.580236 0.421007 0.668536 0.151617
C12   C     C_R   0.606323 0.554775 0.321609 0.169446
C13   C     C_R   0.434228 0.595484 0.674754 0.223616
C14   C     C_R   0.381774 0.452775 0.333675 0.257905
C15   C     C_R   0.434118 0.598530 0.725290 0.015734
C16   C     C_R   0.372346 0.469123 0.284136 0.029000
C17   C     C_R   0.510846 0.517361 0.747106 0.103815
C18   C     C_R   0.483510 0.516326 0.252713 0.099654
C19   C     C_R   0.468476 0.528867 0.899922 -0.114108
C20   C     C_R   0.449226 0.533287 0.103282 -0.112871
C21   C     C_R   0.515998 0.637958 0.872853 -0.181040
C22   C     C_R   0.412088 0.420113 0.129262 -0.172838
C23   C     C_R   0.524349 0.756428 0.896636 0.244581
C24   C     C_R   0.343100 0.318736 0.107470 0.258202
C25   C     C_R   0.441774 0.413574 0.875489 -0.124800
C26   C     C_R   0.500093 0.641203 0.127363 -0.119618
C27   C     C_R   0.505471 0.505190 0.646398 -0.325227
C28   C     C_R   0.496035 0.502334 0.353063 -0.269809
C29   C     C_R   0.482732 0.648513 0.026261 0.060472
C30   C     C_R   0.406024 0.423390 0.978194 0.050894
C31   C     C_R   0.386710 0.428678 0.029679 -0.049563
C32   C     C_R   0.474872 0.650725 0.975467 -0.055259
C33   C     C_R   0.438475 0.537286 0.053073 0.075622
C34   C     C_R   0.449111 0.534566 0.951285 0.071616
C35   C     C_R   0.544908 0.750093 0.050138 -0.162779
C36   C     C_R   0.395802 0.307396 0.953009 -0.147235
C37   C     C_R   0.551760 0.749103 0.100023 0.326051
C38   C     C_R   0.410839 0.301408 0.902456 0.318863
O11   O     O_2   0.512798 0.743500 0.204349 -0.426298
O12   O     O_2   0.389465 0.318032 0.800976 -0.450915
C39   C     C_R   0.495617 0.763831 0.947646 0.172551
C40   C     C_R   0.321974 0.327192 0.058602 0.164702
H1    H     H_    0.597503 0.828552 0.029937 0.210427
H2    H     H_    0.384576 0.218581 0.972161 0.226339
C41   C     C_2   0.578455 0.867659 0.483843 -0.324498
C42   C     C_2   0.419828 0.131287 0.492323 -0.351516
C43   C     C_2   0.491030 0.929462 0.462359 0.239017
C44   C     C_2   0.504727 0.066670 0.461531 0.231106
H3    H     H_    0.336307 0.082054 0.514331 0.187211
H4    H     H_    0.663087 0.918766 0.496977 0.180797
N3    N     N_2   0.842700 0.448890 0.480020 -0.042128
N4    N     N_2   0.157300 0.551110 0.519980 -0.033532
C45   C     C_2   0.924324 0.498489 0.509095 0.209286
C46   C     C_2   0.067688 0.476311 0.501890 0.180191
N5    N     N_R   0.367341 0.688283 0.652164 0.236552
O13   O     O_R   0.433298 0.765533 0.620227 -0.344870
O14   O     O_R   0.241367 0.697948 0.664245 -0.305374
N6    N     N_R   0.282925 0.373347 0.362757 0.205916
O15   O     O_R   0.317325 0.273887 0.383402 -0.333063
O16   O     O_R   0.158111 0.387944 0.362692 -0.307170
N7    N     N_3   0.100138 0.356379 0.481324 -0.383888
H5    H     H_    0.116989 0.297495 0.509347 0.220701
H6    H     H_    0.184087 0.369964 0.456013 0.282522
N8    N     N_3   0.876249 0.557714 0.554049 -0.408328
H7    H     H_    0.831174 0.488277 0.578137 0.242984
H8    H     H_    0.812052 0.625703 0.547881 0.246385
N9    N     N_R   0.128481 0.676009 0.530242 0.304354
O17   O     O_R   0.185824 0.738044 0.563475 -0.251579
O18   O     O_R   0.071852 0.739350 0.499933 -0.304164
N10   N     N_R   0.895350 0.435151 0.431480 0.319844
O19   O     O_R   0.848945 0.342327 0.405954 -0.213434
O20   O     O_R   0.965389 0.529355 0.408937 -0.252117
N11   N     N_3   0.356877 0.684499 0.755337 -0.369193
H9    H     H_    0.382531 0.776553 0.742648 0.281000
H10   H     H_    0.257003 0.661402 0.752767 0.255644
N12   N     N_3   0.251480 0.434896 0.264495 -0.356151
H11   H     H_    0.223332 0.339467 0.271624 0.294855
H12   H     H_    0.178238 0.490585 0.281204 0.278089
N13   N     N_R   0.543192 0.870402 0.868826 0.286212
O21   O     O_R   0.655699 0.937501 0.865845 -0.216362
O22   O     O_R   0.458175 0.893851 0.839721 -0.251691
N14   N     N_R   0.280367 0.214509 0.136198 0.276293
O23   O     O_R   0.329876 0.104781 0.132238 -0.208700
O24   O     O_R   0.179814 0.231739 0.168898 -0.270899
N15   N     N_R   0.723616 0.605051 0.340542 0.268538
O25   O     O_R   0.837405 0.562898 0.324405 -0.227505
O26   O     O_R   0.718466 0.700022 0.370941 -0.283854
N16   N     N_R   0.648374 0.325336 0.640199 0.242063
O27   O     O_R   0.771975 0.311004 0.643523 -0.314842
O28   O     O_R   0.584757 0.247146 0.613246 -0.346558
N17   N     N_R   0.716902 0.599339 0.238487 0.254416
O29   O     O_R   0.779110 0.708296 0.245697 -0.201524
O30   O     O_R   0.756702 0.532289 0.200349 -0.308574
N18   N     N_R   0.661937 0.346101 0.742186 0.259852
O31   O     O_R   0.647563 0.224473 0.735027 -0.203866
O32   O     O_R   0.738845 0.390396 0.773326 -0.315083
N19   N     N_R   0.623820 0.853264 0.120839 0.259772
O33   O     O_R   0.606451 0.968652 0.109184 -0.253090
O34   O     O_R   0.724612 0.832609 0.142969 -0.227956
N20   N     N_R   0.409231 0.179364 0.879414 0.264470
O35   O     O_R   0.322868 0.089308 0.896445 -0.259766
O36   O     O_R   0.507944 0.152118 0.847394 -0.205272
N21   N     N_R   0.465541 0.883810 0.969868 0.216262
O37   O     O_R   0.357953 0.892232 0.000105 -0.274669
O38   O     O_R   0.544797 0.984644 0.960304 -0.305855
N22   N     N_R   0.219991 0.244867 0.040808 0.218858
O39   O     O_R   0.134097 0.291776 0.016802 -0.299078
O40   O     O_R   0.212357 0.123488 0.048152 -0.230668
N23   N     N_R   0.606052 0.127298 0.426705 0.254574
O41   O     O_R   0.577817 0.219008 0.400207 -0.302866
O42   O     O_R   0.715353 0.073246 0.413837 -0.263149
N24   N     N_R   0.388630 0.865500 0.438017 0.256752
O43   O     O_R   0.277952 0.917469 0.436932 -0.258989
O44   O     O_R   0.417154 0.773413 0.407815 -0.340592

loop_
_geom_bond_atom_site_label_1
_geom_bond_atom_site_label_2
_geom_bond_distance
_ccdc_geom_bond_type
N4    C46   1.310913 D    
N11   H9    1.045555 S    
N13   O21   1.300937 A    
C13   C15   1.399740 A    
N19   O33   1.301301 A    
O7    Zn2   2.019385 S    
N1    C17   1.433077 S    
N20   O35   1.301353 A    
N23   O41   1.299990 A    
C14   N6    1.436009 S    
N22   O39   1.301561 A    
C46   N7    1.428725 S    
O5    C3    1.302657 A    
N17   O30   1.301250 A    
C41   H4    1.087019 S    
C19   C25   1.412940 A    
C42   H3    1.087061 S    
O1    C1    1.292896 A    
N1    C7    1.363462 A    
C10   C12   1.405621 A    
N5    O13   1.301265 A    
N21   O38   1.301040 A    
N2    C18   1.437248 S    
C7    O12   1.349392 S    
N8    H8    1.042223 S    
C11   N16   1.438206 S    
N23   O42   1.301436 A    
C35   H1    1.078692 S    
N18   O31   1.301332 A    
C42   C44   1.352303 D    
C14   C28   1.412544 A    
O4    Zn1   1.921894 S    
N5    O14   1.300787 A    
C4    C28   1.473806 S    
C31   C40   1.421356 A    
C35   C37   1.393222 A    
N14   O24   1.300947 A    
C32   C39   1.423457 A    
C36   C38   1.389641 A    
C43   N24   1.440815 S    
C37   N19   1.436132 S    
C13   N5    1.436615 S    
C6    N2    1.366420 A    
C12   N15   1.435335 S    
C25   C38   1.408156 A    
N13   O22   1.301338 A    
C40   N22   1.441231 S    
O2    C2    1.292936 A    
C45   N8    1.430795 S    
C5    C21   1.406655 A    
C44   N23   1.441346 S    
N9    O18   1.303060 A    
N22   O40   1.300897 A    
N9    O17   1.299053 A    
C8    O11   1.348822 S    
Zn1   N4    2.034292 S    
C31   C33   1.413735 A    
C32   C34   1.415506 A    
C41   C43   1.351581 D    
C1    C41   1.453243 S    
N16   O27   1.301360 A    
C36   H2    1.079599 S    
C2    C42   1.454413 S    
N10   O19   1.299101 A    
N6    O16   1.299197 A    
C11   C27   1.415581 A    
N8    H7    1.041325 S    
C29   C35   1.408758 A    
N3    N10   1.391180 S    
N3    C45   1.311233 D    
C45   C46   1.491306 S    
C9    C17   1.408628 A    
C5    N1    1.363716 A    
N7    H5    1.043999 S    
C10   C18   1.409008 A    
N7    H6    1.038202 S    
C13   C27   1.412694 A    
N12   H12   1.045043 S    
N15   O25   1.301056 A    
C7    C25   1.403029 A    
O6    C4    1.302748 A    
C8    C26   1.405504 A    
N14   O23   1.300971 A    
C23   N13   1.430895 S    
N19   O34   1.301444 A    
N16   O28   1.301366 A    
O7    C3    1.303223 A    
O3    Zn2   1.921894 S    
O8    C4    1.307752 A    
O4    C2    1.307082 A    
N15   O26   1.301249 A    
N2    C8    1.366685 A    
N11   H10   1.044662 S    
O6    Zn2   2.002011 S    
O1    Zn1   1.919513 S    
C30   C31   1.414822 A    
C12   C28   1.416542 A    
C39   N21   1.440360 S    
C30   C36   1.407212 A    
C5    O9    1.349273 S    
N24   O44   1.299931 A    
C21   C23   1.410324 A    
N10   O20   1.302444 A    
N6    O15   1.300893 A    
O3    C1    1.306638 A    
O8    Zn1   2.019383 S    
N20   O36   1.300951 A    
C10   N17   1.437583 S    
C38   N20   1.432830 S    
C26   C37   1.412113 A    
N17   O29   1.301328 A    
C22   C24   1.411734 A    
C15   C17   1.402692 A    
N21   O37   1.301398 A    
C6    C22   1.401801 A    
N4    N9    1.394762 S    
C16   C18   1.404332 A    
N12   H11   1.045419 S    
N24   O43   1.301142 A    
C9    N18   1.437567 S    
C14   C16   1.402940 A    
C19   C21   1.408750 A    
Zn2   N3    2.034291 S    
N18   O32   1.301229 A    
C3    C27   1.465290 S    
C20   C22   1.410656 A    
C9    C11   1.406437 A    
C43   C44   1.450815 S    
O2    Zn2   1.919512 S    
C29   C32   1.420704 A    
C15   N11   1.435277 S    
C23   C39   1.407309 A    
O5    Zn1   2.002014 S    
C24   C40   1.404116 A    
C6    O10   1.349641 S    
C24   N14   1.433363 S    
C19   C34   1.411634 A    
C20   C26   1.414140 A    
C20   C33   1.411280 A    
C29   C33   1.416818 A    
C16   N12   1.435677 S    
C30   C34   1.415510 A    
