data_mof_unit_53918.cif
_audit_creation_date              2012-12-10T17:08:10-0500
_audit_creation_method            fapswitch 2.2
_symmetry_space_group_name_H-M    P1
_symmetry_Int_Tables_number       1
_space_group_crystal_system       triclinic
_cell_length_a                    23.522345
_cell_length_b                    11.029784
_cell_length_c                    9.817898
_cell_angle_alpha                 111.119425
_cell_angle_beta                  98.012209
_cell_angle_gamma                 90.971253
_cell_volume                      2346.70082931

loop_
_atom_site_label
_atom_site_type_symbol
_atom_type_description
_atom_site_fract_x
_atom_site_fract_y
_atom_site_fract_z
_atom_type_partial_charge
C1    C     C_R   0.495866 0.254098 0.440644 0.870789
C2    C     C_R   0.504134 0.745902 0.559356 0.870794
C3    C     C_R   0.231290 0.496823 0.380946 -0.109534
C4    C     C_R   0.768699 0.503009 0.619037 -0.109652
C5    C     C_R   0.290324 0.495019 0.378332 -0.209649
C6    C     C_R   0.709664 0.504818 0.621633 -0.209603
C7    C     C_R   0.328614 0.501826 0.504790 -0.040418
C8    C     C_R   0.671385 0.498161 0.495217 -0.040410
C9    C     C_R   0.306698 0.510278 0.633798 -0.216951
C10   C     C_R   0.693313 0.489850 0.366265 -0.216966
C11   C     C_R   0.247516 0.511529 0.635881 -0.104348
C12   C     C_R   0.752497 0.488599 0.364201 -0.104213
C13   C     C_R   0.209740 0.504953 0.509504 0.369711
C14   C     C_R   0.790263 0.495029 0.490540 0.369701
C15   C     C_2   0.493610 0.114748 0.407151 -0.346674
C16   C     C_2   0.506390 0.885252 0.592849 -0.346673
C17   C     C_2   0.501060 0.069571 0.516615 -0.146654
C18   C     C_2   0.498940 0.930429 0.483385 -0.146654
C19   C     C_2   0.504761 0.511012 0.081352 -0.075046
C20   C     C_2   0.495239 0.488988 0.918647 -0.075060
C21   C     C_R   0.390991 0.500337 0.501554 0.801664
C22   C     C_R   0.609009 0.499660 0.498446 0.801664
C23   C     C_R   0.880630 0.604931 0.498564 0.538021
C24   C     C_R   0.119381 0.395099 0.501633 0.538030
C25   C     C_R   0.878017 0.383788 0.482481 0.523182
C26   C     C_R   0.121986 0.616195 0.517557 0.523150
C27   C     C_R   0.938595 0.381242 0.486305 -0.039634
C28   C     C_R   0.061417 0.618795 0.513936 -0.039818
C29   C     C_R   0.969735 0.497392 0.497457 -0.049518
C30   C     C_R   0.030278 0.502648 0.502787 -0.049462
C31   C     C_R   0.940349 0.608830 0.503140 -0.036635
C32   C     C_R   0.059664 0.391215 0.497108 -0.036598
C33   C     C_R   0.969500 0.269135 0.479618 0.141776
C34   C     C_R   0.030522 0.730952 0.520814 0.141713
C35   C     C_R   0.029300 0.277111 0.485908 -0.196504
C36   C     C_R   0.970721 0.722967 0.514463 -0.196334
Cu1   Cu    Cu3+1 0.509980 0.521810 0.644910 0.946265
Cu2   Cu    Cu3+1 0.490020 0.478190 0.355090 0.946269
H1    H     H_    0.555722 0.624391 0.934748 0.193594
H2    H     H_    0.444278 0.375609 0.065252 0.193590
H3    H     H_    0.052553 0.192310 0.482506 0.181380
H4    H     H_    0.947477 0.807804 0.517965 0.181373
H5    H     H_    0.202162 0.491511 0.282950 0.134605
H6    H     H_    0.797818 0.508207 0.717003 0.134570
H7    H     H_    0.305920 0.488702 0.277456 0.161490
H8    H     H_    0.694059 0.511020 0.722464 0.161489
H9    H     H_    0.335177 0.515449 0.732735 0.156825
H10   H     H_    0.664843 0.484798 0.267362 0.156798
H11   H     H_    0.230957 0.517810 0.735557 0.135786
H12   H     H_    0.769066 0.482434 0.264572 0.135803
H13   H     H_    0.491202 0.864587 0.368295 0.180710
H14   H     H_    0.508798 0.135413 0.631705 0.180710
H15   H     H_    0.514146 0.951382 0.707740 0.152170
H16   H     H_    0.485854 0.048618 0.292260 0.152168
H17   H     H_    0.462274 0.415527 0.845546 0.158992
H18   H     H_    0.537727 0.584472 0.154454 0.158984
N1    N     N_R   0.851103 0.494204 0.489155 -0.465498
N2    N     N_R   0.148902 0.505792 0.510926 -0.465492
N3    N     N_2   0.475010 0.445410 0.137370 -0.284761
N4    N     N_2   0.524990 0.554590 0.862630 -0.284764
O1    O     O_R   0.505330 0.332340 0.577400 -0.578793
O2    O     O_R   0.494670 0.667660 0.422600 -0.578791
O3    O     O_R   0.488470 0.295500 0.332650 -0.571467
O4    O     O_R   0.511530 0.704500 0.667350 -0.571466
O5    O     O_R   0.426310 0.518390 0.622390 -0.581054
O6    O     O_R   0.573690 0.481610 0.377610 -0.581043
O7    O     O_R   0.409450 0.481550 0.377650 -0.575843
O8    O     O_R   0.590550 0.518450 0.622350 -0.575844
O9    O     O_2   0.852095 0.711614 0.505050 -0.546937
O10   O     O_2   0.147919 0.288432 0.495199 -0.546995
O11   O     O_2   0.845594 0.278204 0.472172 -0.549049
O12   O     O_2   0.154393 0.721696 0.527558 -0.548984
C37   C     C_3   0.942320 0.138578 0.466581 -0.346735
C38   C     C_3   0.931523 0.139441 0.616849 -0.747764
H19   H     H_    0.904235 0.218711 0.669527 0.279513
H20   H     H_    0.909651 0.044728 0.602722 0.247853
H21   H     H_    0.973135 0.153481 0.691662 0.225080
H22   H     H_    0.902921 0.107732 0.382806 0.248118
H23   H     H_    0.971355 0.059796 0.423542 0.171880
C39   C     C_3   0.057731 0.861619 0.534320 -0.346847
C40   C     C_3   0.068459 0.861255 0.384194 -0.747304
H24   H     H_    0.090619 0.955799 0.398744 0.248068
H25   H     H_    0.095457 0.781604 0.330785 0.279449
H26   H     H_    0.026798 0.848153 0.309810 0.224747
H27   H     H_    0.028747 0.940408 0.577808 0.171943
H28   H     H_    0.097172 0.892155 0.617971 0.248020

loop_
_geom_bond_atom_site_label_1
_geom_bond_atom_site_label_2
_ccdc_geom_bond_type
C19   H18   S    
C27   C29   A    
C26   O12   S    
C37   C38   S    
C23   O9    S    
C36   H4    S    
C19   C20   S    
Cu1   O4    S    
C40   H24   S    
C24   O10   S    
C27   C33   A    
C3    H5    S    
C29   C30   A    
C38   H20   S    
Cu1   Cu2   S    
Cu1   O8    S    
C7    C9    A    
C16   H15   S    
C22   O6    A    
C39   H28   S    
C34   C39   S    
Cu2   O6    S    
C38   H21   S    
Cu1   O5    S    
C8    C22   S    
C37   H22   S    
C1    C15   S    
C20   N4    D    
C2    C16   S    
C3    C13   A    
C28   C34   A    
C24   N2    A    
H2    N3    S    
C21   O7    A    
C25   N1    A    
C20   H17   S    
C1    O3    A    
C17   H14   S    
C40   H25   S    
C2    O4    A    
C18   H13   S    
C38   H19   S    
C15   H16   S    
C4    C6    A    
C5    C7    A    
C6    C8    A    
C13   N2    S    
C4    H6    S    
C19   N3    D    
C7    C21   S    
C5    H7    S    
C23   C31   A    
C24   C32   A    
C39   H27   S    
C11   H11   S    
C9    C11   A    
C12   H12   S    
C23   N1    A    
C17   C18   S    
C37   H23   S    
C26   N2    A    
C22   O8    A    
C10   C12   A    
C25   O11   S    
C33   C37   S    
C12   C14   A    
C9    H9    S    
C10   H10   S    
C40   H26   S    
Cu2   O3    S    
C15   C17   D    
C14   N1    S    
C6    H8    S    
C21   O5    A    
C8    C10   A    
C32   C35   A    
C39   C40   S    
C3    C5    A    
C1    O1    A    
Cu1   O1    S    
C25   C27   A    
C26   C28   A    
C28   C30   A    
C29   C31   A    
C30   C32   A    
C11   C13   A    
H1    N4    S    
C33   C35   A    
C34   C36   A    
C4    C14   A    
C35   H3    S    
Cu1   N4    S    
Cu2   N3    S    
Cu2   O7    S    
C16   C18   D    
C31   C36   A    
C2    O2    A    
Cu2   O2    S    
