data_mof_unit_17352.cif
_audit_creation_date              2012-12-10T18:18:28-0500
_audit_creation_method            fapswitch 2.2
_symmetry_space_group_name_H-M    P1
_symmetry_Int_Tables_number       1
_space_group_crystal_system       triclinic
_cell_length_a                    14.182838
_cell_length_b                    15.000417
_cell_length_c                    15.603273
_cell_angle_alpha                 87.457333
_cell_angle_beta                  68.144352
_cell_angle_gamma                 88.796557
_cell_volume                      3077.90801702

loop_
_atom_site_label
_atom_site_type_symbol
_atom_type_description
_atom_site_fract_x
_atom_site_fract_y
_atom_site_fract_z
_atom_type_partial_charge
C1    C     C_R   0.499170 0.673236 0.500234 0.890487
C2    C     C_R   0.498033 0.769169 0.501254 -0.073555
C3    C     C_R   0.424518 0.187441 0.481855 -0.251002
C4    C     C_R   0.575481 0.812559 0.518146 -0.251005
C5    C     C_R   0.423159 0.095327 0.482226 0.114444
C6    C     C_R   0.576839 0.904673 0.517777 0.114448
C7    C     C_R   0.500545 0.046395 0.499555 0.061874
C8    C     C_R   0.499452 0.953604 0.500449 0.061874
C9    C     C_R   0.578963 0.090240 0.516061 0.120477
C10   C     C_R   0.421034 0.909759 0.483943 0.120472
C11   C     C_R   0.345621 0.051539 0.465826 -0.212559
C12   C     C_R   0.500830 0.326764 0.499766 0.890494
C13   C     C_R   0.654377 0.948461 0.534177 -0.212562
C14   C     C_R   0.344558 0.958890 0.466691 -0.210043
C15   C     C_R   0.655438 0.041110 0.533314 -0.210051
C16   C     C_R   0.436280 0.500649 0.675246 0.883834
C17   C     C_R   0.563721 0.499361 0.324754 0.883835
C18   C     C_R   0.174072 0.457675 0.569806 -0.092184
C19   C     C_R   0.825922 0.542327 0.430192 -0.092165
C20   C     C_R   0.228820 0.545134 0.429070 0.259223
C21   C     C_R   0.771174 0.454909 0.570953 0.259218
C22   C     C_R   0.130118 0.540235 0.423020 -0.040399
C23   C     C_R   0.384473 0.465713 0.101039 -0.209441
C24   C     C_R   0.869869 0.459836 0.577004 -0.040380
C25   C     C_R   0.051037 0.499815 0.498638 0.041041
C26   C     C_R   0.948957 0.500223 0.501371 0.041041
C27   C     C_R   0.073656 0.459428 0.572137 0.007426
C28   C     C_R   0.926334 0.540600 0.427871 0.007409
C29   C     C_R   0.105153 0.575949 0.346820 0.016918
C30   C     C_R   0.894814 0.424192 0.653236 0.016876
C31   C     C_R   0.004568 0.577275 0.351676 -0.240377
C32   C     C_R   0.995407 0.422807 0.648360 -0.240390
C33   C     C_R   0.396397 0.498924 0.775674 -0.075838
C34   C     C_R   0.615412 0.535073 0.899033 -0.209425
C35   C     C_R   0.603607 0.501227 0.224325 -0.075819
C36   C     C_R   0.268257 0.457973 0.924089 0.011118
C37   C     C_R   0.731665 0.542537 0.075982 0.011098
C38   C     C_R   0.298320 0.469500 0.828420 -0.229448
C39   C     C_R   0.701639 0.530798 0.171630 -0.229436
C40   C     C_R   0.462265 0.521147 0.818196 -0.263706
C41   C     C_R   0.537754 0.479080 0.181763 -0.263716
C42   C     C_R   0.439285 0.501747 0.911961 0.085340
C43   C     C_R   0.560662 0.498764 0.088057 0.085354
C44   C     C_R   0.339515 0.471597 0.966256 0.113641
C45   C     C_R   0.313527 0.455539 0.060882 -0.204334
C46   C     C_R   0.660399 0.529006 0.033803 0.113694
C47   C     C_R   0.513714 0.510031 0.952084 0.081541
C48   C     C_R   0.486205 0.490609 0.047952 0.081484
C49   C     C_3   0.305841 0.607999 0.362438 -0.810036
C50   C     C_3   0.694158 0.392051 0.637600 -0.810082
C51   C     C_1   0.178395 0.607941 0.259001 0.138599
C52   C     C_1   0.821522 0.392411 0.741124 0.138766
C53   C     C_1   0.165438 0.428879 0.976320 0.146485
C54   C     C_1   0.834449 0.571745 0.023795 0.146503
C55   C     C_R   0.686345 0.545243 0.939206 -0.204411
C56   C     C_R   0.579197 0.182604 0.515382 -0.256560
C57   C     C_R   0.420801 0.817395 0.484622 -0.256552
C58   C     C_R   0.501966 0.230831 0.498748 -0.073570
H1    H     H_    0.237634 0.434890 0.105172 0.159774
H2    H     H_    0.246184 0.453905 0.795088 0.158133
H3    H     H_    0.355244 0.454111 0.174741 0.144120
H4    H     H_    0.644624 0.546860 0.825359 0.144093
H5    H     H_    0.638758 0.216715 0.528685 0.160823
H6    H     H_    0.361239 0.783285 0.471320 0.160831
H7    H     H_    0.365150 0.225210 0.468297 0.165725
H8    H     H_    0.634851 0.774790 0.531702 0.165718
H9    H     H_    0.285961 0.088904 0.452462 0.149614
H10   H     H_    0.714038 0.911096 0.547541 0.149609
H11   H     H_    0.284191 0.925712 0.453888 0.149785
H12   H     H_    0.762206 0.566007 0.894948 0.159749
H13   H     H_    0.715806 0.074288 0.546118 0.149781
H14   H     H_    0.269282 0.672804 0.356093 0.204122
H15   H     H_    0.365756 0.627417 0.384781 0.278379
H16   H     H_    0.342099 0.577573 0.294309 0.231346
H17   H     H_    0.730740 0.327284 0.644039 0.204107
H18   H     H_    0.657829 0.422526 0.705696 0.231480
H19   H     H_    0.634306 0.372556 0.615202 0.278328
H20   H     H_    0.191387 0.424848 0.625477 0.137051
H21   H     H_    0.808604 0.575146 0.374519 0.137049
H22   H     H_    0.987275 0.605729 0.293930 0.150774
H23   H     H_    0.012686 0.394386 0.706125 0.150763
H24   H     H_    0.467587 0.448046 0.224850 0.156933
H25   H     H_    0.532510 0.551988 0.775022 0.156945
H26   H     H_    0.753765 0.546343 0.204989 0.158134
N1    N     N_R   0.249980 0.499930 0.499960 -0.103494
N2    N     N_R   0.750020 0.500070 0.500040 -0.103505
N3    N     N_1   0.235889 0.634168 0.188364 -0.195634
N4    N     N_1   0.763982 0.366366 0.811819 -0.195633
N5    N     N_1   0.083109 0.405679 0.018064 -0.192381
N6    N     N_1   0.916750 0.595037 0.982086 -0.192365
O1    O     O_R   0.419720 0.632140 0.499980 -0.635835
O2    O     O_R   0.580280 0.367860 0.500020 -0.635824
O3    O     O_R   0.580270 0.632160 0.499970 -0.620154
O4    O     O_R   0.419730 0.367840 0.500030 -0.620145
O5    O     O_R   0.373870 0.499980 0.632250 -0.615844
O6    O     O_R   0.626130 0.500020 0.367750 -0.615853
O7    O     O_R   0.534420 0.500000 0.632240 -0.625351
O8    O     O_R   0.465580 0.500000 0.367760 -0.625336
Zn1   Zn    Zn3+2 0.392800 0.499980 0.500010 0.939120
Zn2   Zn    Zn3+2 0.607200 0.500020 0.499990 0.939105

loop_
_geom_bond_atom_site_label_1
_geom_bond_atom_site_label_2
_ccdc_geom_bond_type
C30   C32   A    
C23   C45   A    
C22   C29   A    
C2    C4    A    
C19   N2    A    
C2    C57   A    
C31   H22   S    
C32   H23   S    
C24   C26   A    
C39   H26   S    
C5    C11   A    
C11   C14   A    
O5    Zn1   S    
C16   O7    A    
C34   H4    S    
C1    C2    S    
C36   C53   S    
C22   C25   A    
C46   C55   A    
N2    Zn2   S    
C17   O8    A    
C12   C58   S    
C40   C42   A    
C34   C55   A    
C1    O1    A    
C41   C43   A    
C40   H25   S    
C12   O4    A    
C3    H7    S    
C42   C44   A    
C21   C50   S    
C11   H9    S    
C37   C39   A    
C18   N1    A    
C33   C40   A    
C52   N4    T    
C10   C57   A    
C4    C6    A    
C10   C14   A    
C51   N3    T    
C17   O6    A    
C6    C8    A    
C25   C26   A    
C49   H14   S    
C35   C39   A    
C20   C49   S    
N1    Zn1   S    
C50   H18   S    
C16   C33   S    
C47   C48   A    
C18   H20   S    
C43   C48   A    
C20   N1    A    
C56   H5    S    
C9    C56   A    
C19   H21   S    
C19   C28   A    
O3    Zn2   S    
C38   H2    S    
C37   C54   S    
C8    C10   A    
C20   C22   A    
C13   C15   A    
C53   N5    T    
C14   H11   S    
C49   H15   S    
C36   C44   A    
C50   H19   S    
O7    Zn2   S    
C44   C45   A    
O2    Zn2   S    
C57   H6    S    
C5    C7    A    
C29   C51   S    
C7    C9    A    
C30   C52   S    
C21   N2    A    
C45   H1    S    
C16   O5    A    
C23   C48   A    
C27   C32   A    
C12   O2    A    
C28   C31   A    
C18   C27   A    
C3    C5    A    
C54   N6    T    
C25   C27   A    
C15   H13   S    
C26   C28   A    
C33   C38   A    
C36   C38   A    
C9    C15   A    
C29   C31   A    
C50   H17   S    
C6    C13   A    
C4    H8    S    
O4    Zn1   S    
C41   H24   S    
O6    Zn2   S    
C56   C58   A    
C42   C47   A    
C35   C41   A    
C43   C46   A    
C24   C30   A    
C55   H12   S    
C7    C8    A    
C3    C58   A    
C23   H3    S    
C1    O3    A    
O8    Zn1   S    
C21   C24   A    
C49   H16   S    
C34   C47   A    
C17   C35   S    
O1    Zn1   S    
C37   C46   A    
C13   H10   S    
