data_mof_unit_54942.cif
_audit_creation_date              2012-12-10T17:16:37-0500
_audit_creation_method            fapswitch 2.2
_symmetry_space_group_name_H-M    P1
_symmetry_Int_Tables_number       1
_space_group_crystal_system       triclinic
_cell_length_a                    10.167558
_cell_length_b                    10.840605
_cell_length_c                    10.788898
_cell_angle_alpha                 89.792915
_cell_angle_beta                  94.432396
_cell_angle_gamma                 81.793921
_cell_volume                      1173.35379519

loop_
_atom_site_label
_atom_site_type_symbol
_atom_type_description
_atom_site_fract_x
_atom_site_fract_y
_atom_site_fract_z
_atom_type_partial_charge
C1    C     C_R   0.444815 0.512108 0.267473 0.914994
C2    C     C_R   0.555578 0.496807 0.732351 0.973354
C3    C     C_2   0.414570 0.532661 0.135827 -0.319622
C4    C     C_2   0.587656 0.507072 0.863856 -0.317363
C5    C     C_2   0.514422 0.545488 0.066300 -0.137951
C6    C     C_2   0.490404 0.551324 0.934054 -0.121287
C7    C     C_2   0.072647 0.494465 0.486577 0.013332
C8    C     C_2   0.931548 0.494820 0.518920 0.024335
C9    C     C_R   0.498230 0.260873 0.498535 0.898972
C10   C     C_R   0.498493 0.740671 0.494219 0.889846
C11   C     C_R   0.656013 0.102928 0.326501 -0.149110
C12   C     C_R   0.245408 0.924884 0.512268 -0.132699
C13   C     C_R   0.761331 0.024819 0.279070 -0.166193
C14   C     C_R   0.146503 0.001474 0.569435 -0.181229
C15   C     C_R   0.801284 0.906393 0.332076 0.154345
C16   C     C_R   0.178885 0.103059 0.637782 0.182257
C17   C     C_R   0.726322 0.864062 0.423016 0.173055
C18   C     C_R   0.306855 0.137115 0.633889 0.159491
C19   C     C_R   0.599603 0.928957 0.439662 -0.004945
C20   C     C_R   0.394409 0.075844 0.549652 -0.014398
C21   C     C_R   0.581172 0.056366 0.416960 0.047904
C22   C     C_R   0.376168 0.956031 0.513440 0.049041
C23   C     C_R   0.491859 0.875343 0.481991 -0.163306
C24   C     C_R   0.492645 0.130034 0.490748 -0.148670
H1    H     H_    0.632345 0.197352 0.290437 0.184527
H2    H     H_    0.215392 0.846372 0.462223 0.212728
H3    H     H_    0.817624 0.059548 0.208761 0.199107
H4    H     H_    0.046692 0.977693 0.566449 0.208306
H5    H     H_    0.389317 0.581692 0.894890 0.217114
H6    H     H_    0.616787 0.541242 0.105804 0.212044
H7    H     H_    0.688754 0.476574 0.903548 0.181294
H8    H     H_    0.312604 0.536267 0.095633 0.187061
H9    H     H_    0.898913 0.538937 0.602821 0.181547
H10   H     H_    0.106527 0.448135 0.403866 0.163911
N1    N     N_2   0.157300 0.551390 0.551120 -0.038162
N2    N     N_2   0.842700 0.448610 0.448880 -0.043972
O1    O     O_R   0.568940 0.489660 0.307530 -0.604034
O2    O     O_R   0.431060 0.510340 0.692470 -0.579491
O3    O     O_R   0.348880 0.522640 0.340350 -0.616560
O4    O     O_R   0.651120 0.477360 0.659650 -0.606503
O5    O     O_R   0.610030 0.300280 0.483580 -0.595499
O6    O     O_R   0.389970 0.699720 0.516420 -0.620976
O7    O     O_R   0.389970 0.333270 0.516400 -0.612459
O8    O     O_R   0.610030 0.666730 0.483600 -0.602483
Zn1   Zn    Zn3+2 0.646940 0.477980 0.478080 1.024026
Zn2   Zn    Zn3+2 0.353060 0.522020 0.521920 1.019437
I1    I     I_    0.029841 0.201002 0.741984 -0.250605
I2    I     I_    0.976799 0.797464 0.278891 -0.341973
I3    I     I_    0.832498 0.808534 0.594290 -0.318117
I4    I     I_    0.383760 0.235732 0.787158 -0.263707
I5    I     I_    0.887074 0.358504 0.283478 -0.297600
I6    I     I_    0.126274 0.605805 0.733327 -0.223114

loop_
_geom_bond_atom_site_label_1
_geom_bond_atom_site_label_2
_ccdc_geom_bond_type
C1    C3    S    
C19   C23   A    
C9    C24   S    
C2    O4    A    
C10   C23   S    
C10   O6    A    
C2    O2    A    
C9    O5    A    
C10   O8    A    
C1    O1    A    
C14   H4    S    
N2    Zn1   S    
C11   C13   A    
O4    Zn1   S    
N2    I5    S    
C15   I2    S    
O3    Zn2   S    
C5    C6    S    
C2    C4    S    
C16   I1    S    
C16   C18   A    
C19   C21   A    
C12   H2    S    
C20   C22   A    
C18   C20   A    
C8    H9    S    
C13   C15   A    
O6    Zn2   S    
C3    H8    S    
O7    Zn2   S    
C14   C16   A    
C21   C24   A    
O2    Zn2   S    
C4    H7    S    
C9    O7    A    
C1    O3    A    
O1    Zn1   S    
C12   C22   A    
C7    C8    S    
C6    H5    S    
O8    Zn1   S    
C18   I4    S    
C4    C6    D    
C5    H6    S    
C8    N2    D    
C7    H10   S    
C17   I3    S    
N1    I6    S    
C15   C17   A    
C11   H1    S    
C22   C23   A    
C13   H3    S    
O5    Zn1   S    
C17   C19   A    
N1    Zn2   S    
C7    N1    D    
C11   C21   A    
C20   C24   A    
C12   C14   A    
C3    C5    D    
