data_mof_unit_32869.cif
_audit_creation_date              2013-03-05T15:46:36-0500
_audit_creation_method            fapswitch 2.2
_symmetry_space_group_name_H-M    P1
_symmetry_Int_Tables_number       1
_space_group_crystal_system       triclinic
_cell_length_a                    17.358087
_cell_length_b                    24.287649
_cell_length_c                    14.994139
_cell_angle_alpha                 90.649423
_cell_angle_beta                  125.506243
_cell_angle_gamma                 88.911083
_cell_volume                      5144.96802583

loop_
_atom_site_label
_atom_site_type_symbol
_atom_site_description
_atom_site_fract_x
_atom_site_fract_y
_atom_site_fract_z
_atom_type_partial_charge
C1    C     C_R   0.350479 0.348665 0.909424 -0.102946
C2    C     C_R   0.689905 0.374610 0.092375 -0.072927
C3    C     C_R   0.819507 0.865537 0.909852 -0.082484
C4    C     C_R   0.190327 0.875349 0.092782 -0.092293
H1    H     H_    0.306686 0.334681 0.825336 0.119199
H2    H     H_    0.745232 0.366872 0.177213 0.139542
H3    H     H_    0.768956 0.851725 0.827332 0.112043
H4    H     H_    0.245656 0.868276 0.177946 0.143980
N1    N     N_R   0.394180 0.396910 0.943210 -0.050698
N2    N     N_R   0.605820 0.396910 0.056790 -0.053079
N3    N     N_R   0.894180 0.896910 0.943210 -0.050861
N4    N     N_R   0.105820 0.896910 0.056790 -0.056188
C5    C     C_R   0.443656 0.653042 0.090056 -0.146479
C6    C     C_R   0.558527 0.651927 0.911238 -0.130993
C7    C     C_R   0.944163 0.153477 0.089177 -0.126971
C8    C     C_R   0.094769 0.127991 0.908675 -0.149510
H5    H     H_    0.490153 0.666632 0.174015 0.097576
H6    H     H_    0.513163 0.666193 0.827560 0.097665
H7    H     H_    0.990780 0.167464 0.172849 0.094925
H8    H     H_    0.065706 0.137971 0.824508 0.113229
N5    N     N_R   0.450950 0.603070 0.056740 -0.036298
N6    N     N_R   0.549050 0.603070 0.943260 -0.038512
N7    N     N_R   0.950950 0.103070 0.056740 -0.039875
N8    N     N_R   0.049050 0.103070 0.943260 -0.043987
C9    C     C_R   0.477185 0.454635 0.243266 -0.166618
C10   C     C_R   0.455295 0.453938 0.699264 -0.177213
C11   C     C_R   0.997395 0.956021 0.267733 -0.126661
C12   C     C_R   0.946268 0.954005 0.694945 -0.149829
H9    H     H_    0.468166 0.412218 0.255844 0.104328
H10   H     H_    0.439278 0.411888 0.670113 0.112441
H11   H     H_    0.003689 0.914745 0.295989 0.082269
H12   H     H_    0.925908 0.912039 0.667639 0.092510
N9    N     N_R   0.525650 0.471570 0.206150 -0.044651
N10   N     N_R   0.474350 0.471570 0.793850 -0.040821
N11   N     N_R   0.025650 0.971570 0.206150 -0.042417
N12   N     N_R   0.974350 0.971570 0.793850 -0.037963
C13   C     C_R   0.234236 0.547377 0.759019 -0.153171
C14   C     C_R   0.757513 0.546083 0.298613 -0.146046
C15   C     C_R   0.731594 0.047512 0.745907 -0.160770
C16   C     C_R   0.252602 0.046121 0.302793 -0.118823
H13   H     H_    0.217776 0.589713 0.761461 0.120972
H14   H     H_    0.766766 0.588112 0.326699 0.099340
H15   H     H_    0.713782 0.090221 0.741864 0.115462
H16   H     H_    0.257091 0.087843 0.330572 0.110900
N13   N     N_R   0.319480 0.528420 0.793810 -0.041488
N14   N     N_R   0.680520 0.528420 0.206190 -0.040757
N15   N     N_R   0.819480 0.028420 0.793810 -0.040920
N16   N     N_R   0.180520 0.028420 0.206190 -0.046575
C17   C     C_R   0.481960 0.546792 0.250222 -0.110059
C18   C     C_R   0.457319 0.545889 0.700190 -0.098864
C19   C     C_R   0.988502 0.047708 0.256970 -0.131053
C20   C     C_R   0.948512 0.045321 0.695593 -0.118417
H17   H     H_    0.479540 0.589236 0.270476 0.116970
H18   H     H_    0.445723 0.588366 0.673807 0.105283
H19   H     H_    0.978374 0.090821 0.263315 0.146361
H20   H     H_    0.934013 0.087876 0.670224 0.120537
N17   N     N_R   0.525640 0.528390 0.206120 -0.048631
N18   N     N_R   0.474360 0.528390 0.793880 -0.044108
N19   N     N_R   0.025640 0.028390 0.206120 -0.048739
N20   N     N_R   0.974360 0.028390 0.793880 -0.040986
C21   C     C_R   0.231035 0.455653 0.752147 -0.107722
C22   C     C_R   0.760046 0.454345 0.299593 -0.069373
C23   C     C_R   0.729846 0.955756 0.735074 -0.062587
C24   C     C_R   0.255419 0.954624 0.303107 -0.066015
H21   H     H_    0.208477 0.413458 0.739541 0.099421
H22   H     H_    0.773693 0.412447 0.329135 0.091661
H23   H     H_    0.707495 0.914230 0.709481 0.101530
H24   H     H_    0.265360 0.912684 0.331421 0.087573
N21   N     N_R   0.319490 0.471590 0.793840 -0.043115
N22   N     N_R   0.680510 0.471590 0.206160 -0.047525
N23   N     N_R   0.819490 0.971590 0.793840 -0.048730
N24   N     N_R   0.180510 0.971590 0.206160 -0.045790
C25   C     C_R   0.353451 0.652677 0.908662 -0.160775
C26   C     C_R   0.652366 0.649694 0.093975 -0.137424
C27   C     C_R   0.853630 0.152500 0.907814 -0.163309
C28   C     C_R   0.188046 0.125160 0.093138 -0.083628
H25   H     H_    0.316294 0.664751 0.824342 0.129193
H26   H     H_    0.695182 0.659863 0.179673 0.125696
H27   H     H_    0.816590 0.164011 0.823268 0.133445
H28   H     H_    0.244725 0.132060 0.178156 0.126498
N25   N     N_R   0.394130 0.603080 0.943110 -0.040560
N26   N     N_R   0.605870 0.603080 0.056890 -0.039871
N27   N     N_R   0.894130 0.103080 0.943110 -0.037759
N28   N     N_R   0.105870 0.103080 0.056890 -0.046692
C29   C     C_R   0.444192 0.348922 0.092048 -0.158714
C30   C     C_R   0.600125 0.376577 0.909387 -0.079837
C31   C     C_R   0.910945 0.866498 0.092192 -0.127895
C32   C     C_R   0.100842 0.877369 0.909627 -0.130871
H29   H     H_    0.487755 0.335121 0.176322 0.103114
H30   H     H_    0.574101 0.372298 0.824739 0.090333
H31   H     H_    0.943928 0.854193 0.175526 0.085684
H32   H     H_    0.075277 0.873786 0.824898 0.100400
N29   N     N_R   0.450990 0.396900 0.056840 -0.044394
N30   N     N_R   0.549010 0.396900 0.943160 -0.039496
N31   N     N_R   0.950990 0.896900 0.056840 -0.044278
N32   N     N_R   0.049010 0.896900 0.943160 -0.047606
C33   C     C_R   0.381501 0.318447 0.001754 0.165472
C34   C     C_R   0.690725 0.363773 0.001665 0.083728
C35   C     C_R   0.823750 0.850770 0.001822 0.100548
C36   C     C_R   0.191547 0.864718 0.002308 0.096744
C37   C     C_R   0.384106 0.685919 0.998640 0.096695
C38   C     C_R   0.621338 0.682747 0.004665 0.084696
C39   C     C_R   0.884654 0.186148 0.997186 0.096772
C40   C     C_R   0.181552 0.142552 0.001947 0.093177
C41   C     C_R   0.450374 0.500967 0.273566 0.106779
C42   C     C_R   0.444862 0.499575 0.640205 0.083098
C43   C     C_R   0.966522 0.002803 0.294529 0.091661
C44   C     C_R   0.927179 0.999323 0.630182 0.071486
C45   C     C_R   0.175907 0.503148 0.729899 0.077461
C46   C     C_R   0.810525 0.500487 0.357955 0.074229
C47   C     C_R   0.673092 0.002546 0.710049 0.082875
C48   C     C_R   0.301941 0.000813 0.365377 0.090282
Ni1   Ni    Ni4+2 0.434860 0.434850 0.869700 0.239899
Ni2   Ni    Ni4+2 0.565140 0.434850 0.130300 0.217763
Ni3   Ni    Ni4+2 0.934860 0.934850 0.869700 0.220311
Ni4   Ni    Ni4+2 0.065140 0.934850 0.130300 0.219027
Ni5   Ni    Ni4+2 0.565130 0.565140 0.130240 0.208877
Ni6   Ni    Ni4+2 0.434870 0.565140 0.869760 0.212610
Ni7   Ni    Ni4+2 0.065130 0.065140 0.130240 0.217645
Ni8   Ni    Ni4+2 0.934870 0.065140 0.869760 0.216002
C49   C     C_R   0.023424 0.555920 0.615794 0.110340
C50   C     C_R   0.944270 0.551481 0.510932 0.096722
C51   C     C_R   0.515732 0.051291 0.628391 0.131373
C52   C     C_R   0.424073 0.050656 0.535316 0.035217
C53   C     C_R   0.073220 0.507041 0.670087 0.015335
C54   C     C_R   0.895566 0.502441 0.468630 0.047557
C55   C     C_R   0.571017 0.002875 0.656126 -0.007303
C56   C     C_R   0.381217 0.001595 0.479639 0.005917
C57   C     C_R   0.020730 0.458151 0.638256 -0.174703
C58   C     C_R   0.930961 0.456164 0.538167 -0.164683
C59   C     C_R   0.522849 0.952707 0.615843 -0.026427
C60   C     C_R   0.427426 0.952066 0.531347 -0.166511
H33   H     H_    0.052497 0.420193 0.683181 0.130868
H34   H     H_    0.894068 0.417484 0.512253 0.130892
H35   H     H_    0.559318 0.913703 0.636362 0.193225
H36   H     H_    0.396382 0.912501 0.496730 0.152533
C61   C     C_3   0.960148 0.602639 0.469106 -0.132091
C62   C     C_3   0.044207 0.611186 0.588219 -0.130631
C63   C     C_3   0.428955 0.107522 0.501551 -0.112741
C64   C     C_3   0.527090 0.110612 0.609129 -0.125534
H37   H     H_    0.903586 0.634867 0.436253 0.118154
H38   H     H_    0.112260 0.615138 0.597854 0.123272
H39   H     H_    0.374368 0.136070 0.493758 0.149220
H40   H     H_    0.583403 0.119542 0.597859 0.126328
C65   C     C_R   0.299617 0.775055 0.900541 0.202041
C66   C     C_R   0.715994 0.766436 0.107517 0.207347
C67   C     C_R   0.796911 0.274301 0.897470 0.208830
C68   C     C_R   0.255666 0.231746 0.071507 0.200510
C69   C     C_R   0.748089 0.319232 0.901315 -0.284427
C70   C     C_R   0.309371 0.272712 0.073299 -0.305067
C71   C     C_R   0.250519 0.820160 0.903511 -0.281438
C72   C     C_R   0.771945 0.805580 0.105295 -0.287389
H41   H     H_    0.691052 0.337512 0.824896 0.126975
H42   H     H_    0.320556 0.309346 0.121387 0.144498
H43   H     H_    0.194738 0.839041 0.827025 0.131338
H44   H     H_    0.831361 0.821605 0.182113 0.124801
C73   C     C_R   0.767724 0.337245 0.001411 -0.015868
C74   C     C_R   0.341386 0.269289 0.006998 -0.057904
C75   C     C_R   0.268945 0.838021 0.003115 -0.013005
C76   C     C_R   0.751576 0.822713 0.004814 -0.022762
C77   C     C_R   0.853272 0.319828 0.099031 0.361703
C78   C     C_R   0.324317 0.223140 0.940637 0.357494
C79   C     C_R   0.353083 0.819696 0.101366 0.362846
C80   C     C_R   0.662916 0.810333 0.908355 0.387260
C81   C     C_R   0.395817 0.771133 0.098716 -0.335220
C82   C     C_R   0.614266 0.766135 0.909152 -0.331469
C83   C     C_R   0.897646 0.272106 0.095882 -0.333332
C84   C     C_R   0.271329 0.180903 0.940453 -0.316092
H45   H     H_    0.453246 0.753347 0.175363 0.176848
H46   H     H_    0.552140 0.752149 0.832459 0.177107
H47   H     H_    0.957240 0.255231 0.172141 0.170936
H48   H     H_    0.256565 0.144490 0.890736 0.184712
C85   C     C_R   0.362341 0.745120 0.998534 0.031966
C86   C     C_R   0.647302 0.739946 0.008022 0.029402
C87   C     C_R   0.862567 0.245375 0.995880 0.036978
C88   C     C_R   0.238040 0.185292 0.005633 0.023279
C89   C     C_R   0.365376 0.531584 0.448767 0.100726
C90   C     C_R   0.368217 0.532915 0.356963 0.088868
C91   C     C_R   0.865125 0.046916 0.453016 0.125891
C92   C     C_R   0.890514 0.051035 0.379200 0.086198
C93   C     C_R   0.435127 0.498995 0.357476 0.058357
C94   C     C_R   0.431242 0.497381 0.537237 0.074287
C95   C     C_R   0.922146 0.002661 0.354005 0.068301
C96   C     C_R   0.890210 0.998014 0.514187 0.081214
C97   C     C_R   0.495743 0.463505 0.444580 -0.216377
C98   C     C_R   0.493201 0.462389 0.533190 -0.209636
C99   C     C_R   0.913709 0.951555 0.390300 -0.196869
C100  C     C_R   0.901004 0.949289 0.472398 -0.196498
H49   H     H_    0.548952 0.438118 0.446953 0.136742
H50   H     H_    0.544069 0.436346 0.601879 0.134907
H51   H     H_    0.926365 0.912810 0.364767 0.121512
H52   H     H_    0.910376 0.909772 0.510206 0.124226
N33   N     N_2   0.994585 0.592699 0.401688 -0.098109
H53   H     H_    0.038663 0.623476 0.410302 0.165057
C101  C     C_3   0.925629 0.579560 0.287509 -0.817861
H54   H     H_    0.958524 0.582879 0.242633 0.235004
H55   H     H_    0.864266 0.608648 0.249633 0.228783
H56   H     H_    0.902970 0.536398 0.278890 0.284622
N34   N     N_2   0.024935 0.656727 0.636789 -0.096721
H57   H     H_    0.011923 0.693579 0.596397 0.170320
C102  C     C_3   0.088945 0.662608 0.754396 -0.905963
H58   H     H_    0.059452 0.693593 0.782387 0.250183
H59   H     H_    0.158308 0.677252 0.777494 0.236560
H60   H     H_    0.098103 0.623016 0.796099 0.261728
N35   N     N_2   0.432754 0.107661 0.407099 -0.097577
H61   H     H_    0.479489 0.079525 0.409922 0.202626
C103  C     C_3   0.435854 0.161632 0.369701 -0.948004
H62   H     H_    0.504014 0.181660 0.431605 0.250560
H63   H     H_    0.376191 0.187833 0.354534 0.248386
H64   H     H_    0.429244 0.157648 0.291676 0.259296
N36   N     N_2   0.525023 0.147991 0.684223 -0.083732
H65   H     H_    0.503022 0.187418 0.653755 0.188565
C104  C     C_3   0.607007 0.147526 0.796800 -0.817402
H66   H     H_    0.590093 0.170518 0.847968 0.272988
H67   H     H_    0.666155 0.168359 0.803197 0.217202
H68   H     H_    0.627905 0.104780 0.828653 0.258839
N37   N     N_2   0.283333 0.759972 0.799031 -0.134824
H69   H     H_    0.219774 0.773826 0.730356 0.162608
C105  C     C_3   0.362296 0.770291 0.793615 -0.904122
H70   H     H_    0.346965 0.753638 0.715665 0.246064
H71   H     H_    0.427388 0.749616 0.862567 0.254707
H72   H     H_    0.374400 0.815279 0.797144 0.277747
N38   N     N_2   0.730469 0.753987 0.208848 -0.133243
H73   H     H_    0.794614 0.766154 0.277840 0.157452
C106  C     C_3   0.651681 0.768974 0.213322 -0.900843
H74   H     H_    0.666369 0.754728 0.291990 0.247209
H75   H     H_    0.585792 0.749204 0.145427 0.254976
H76   H     H_    0.641158 0.814419 0.207629 0.274809
N39   N     N_2   0.775701 0.257743 0.794236 -0.129444
H77   H     H_    0.709024 0.269124 0.727603 0.163058
C107  C     C_3   0.848531 0.270338 0.779143 -0.948631
H78   H     H_    0.828235 0.254062 0.698805 0.248016
H79   H     H_    0.916804 0.250679 0.844199 0.260513
H80   H     H_    0.857307 0.315633 0.780755 0.262432
N40   N     N_2   0.216518 0.238773 0.132402 -0.121962
H81   H     H_    0.258845 0.260692 0.204186 0.165928
C108  C     C_3   0.119445 0.258590 0.068826 -0.892726
H82   H     H_    0.093824 0.260533 0.121587 0.252465
H83   H     H_    0.073171 0.230273 0.999789 0.254197
H84   H     H_    0.114334 0.300445 0.036410 0.252875
N41   N     N_R   0.895758 0.349969 0.199843 0.219955
O1    O     O_R   0.892577 0.403569 0.198298 -0.417899
O2    O     O_R   0.948744 0.324759 0.293623 -0.419857
N42   N     N_R   0.360945 0.218317 0.875826 0.230311
O3    O     O_R   0.319182 0.187023 0.789179 -0.400460
O4    O     O_R   0.441347 0.240264 0.909057 -0.416950
N43   N     N_R   0.395853 0.849810 0.202261 0.219884
O5    O     O_R   0.394065 0.903414 0.200918 -0.406591
O6    O     O_R   0.447856 0.824468 0.296002 -0.416998
N44   N     N_R   0.618180 0.845331 0.814503 0.209165
O7    O     O_R   0.621977 0.898342 0.829523 -0.436719
O8    O     O_R   0.556641 0.825407 0.717315 -0.450708
N45   N     N_2   0.299312 0.564578 0.454171 -0.126561
H85   H     H_    0.277632 0.600556 0.409656 0.182820
C109  C     C_3   0.221519 0.534600 0.439661 -0.886193
H86   H     H_    0.177978 0.562841 0.452808 0.247457
H87   H     H_    0.247957 0.500519 0.499927 0.265954
H88   H     H_    0.176319 0.517588 0.355265 0.254204
N46   N     N_2   0.301411 0.564765 0.262602 -0.110112
H89   H     H_    0.231867 0.558719 0.233659 0.178781
C110  C     C_3   0.324041 0.622214 0.265362 -0.936821
H90   H     H_    0.320210 0.631827 0.190680 0.264853
H91   H     H_    0.396073 0.632013 0.338733 0.253632
H92   H     H_    0.271963 0.649137 0.266129 0.244265
N47   N     N_2   0.818977 0.091352 0.469214 -0.127509
H93   H     H_    0.812787 0.128289 0.432616 0.179919
C111  C     C_3   0.732016 0.077393 0.455881 -0.923331
H94   H     H_    0.703804 0.114116 0.473529 0.244358
H95   H     H_    0.744401 0.044317 0.513531 0.261886
H96   H     H_    0.678320 0.063833 0.370382 0.266233
N48   N     N_2   0.885772 0.102827 0.332856 -0.126982
H97   H     H_    0.819376 0.121010 0.288248 0.179247
C112  C     C_3   0.960708 0.140404 0.407254 -0.933642
H98   H     H_    0.956408 0.177201 0.361177 0.267927
H99   H     H_    0.031130 0.120262 0.444679 0.264717
H100  H     H_    0.954601 0.154082 0.473770 0.251810

loop_
_geom_bond_atom_site_label_1
_geom_bond_atom_site_label_2
_geom_bond_distance
_ccdc_geom_bond_type
N13   Ni6   1.870669 S    
C28   C40   1.375854 A    
C74   C78   1.406798 A    
C32   N32   1.338325 A    
N2    N30   1.386973 A    
C98   H50   1.085202 S    
N1    N29   1.386974 A    
C14   N14   1.321962 A    
C31   H31   1.072097 S    
C102  H59   1.106877 S    
C102  H58   1.110110 S    
C6    H6    1.079895 S    
C52   C63   1.497038 S    
C79   N43   1.437254 S    
N38   H73   1.031911 S    
C3    N3    1.336667 A    
C90   C93   1.407525 A    
C4    H4    1.075473 S    
C21   C45   1.397716 A    
C10   C42   1.368912 A    
C72   C76   1.399277 A    
C15   C47   1.381185 A    
C9    C41   1.379617 A    
C51   C52   1.378588 A    
C16   C48   1.370776 A    
C2    H2    1.074842 S    
C104  H66   1.110134 S    
N22   Ni2   1.870683 S    
N10   Ni1   1.873634 S    
C7    H7    1.079692 S    
N21   Ni1   1.846516 S    
N9    Ni2   1.848797 S    
C18   H18   1.081774 S    
C27   H27   1.073799 S    
N7    N27   1.386972 A    
C5    H5    1.079653 S    
C13   H13   1.067873 S    
C1    H1    1.081514 S    
N6    N26   1.386974 A    
C15   N15   1.328923 A    
C79   C81   1.393884 A    
C68   C70   1.365747 A    
C14   H14   1.078465 S    
C3    H3    1.074286 S    
C24   H24   1.079635 S    
N7    Ni7   1.846015 S    
N45   H85   1.029389 S    
C111  H96   1.111217 S    
C67   C87   1.417541 A    
N29   Ni2   1.870857 S    
C6    C38   1.394491 A    
C35   C76   1.460928 S    
C54   C58   1.408582 A    
N44   O8    1.301648 A    
N48   H97   1.030827 S    
C3    C35   1.388505 A    
N18   Ni6   1.849507 S    
C112  H100  1.109161 S    
C17   N17   1.332188 A    
N42   O3    1.302177 A    
C22   N22   1.337455 A    
C9    H9    1.079933 S    
N48   C112  1.451158 S    
N41   O1    1.301835 A    
C94   C98   1.386573 A    
C73   C77   1.411350 A    
N43   O5    1.301810 A    
C69   H41   1.080445 S    
C42   C94   1.420212 S    
N5    Ni5   1.846015 S    
C20   N20   1.334518 A    
C41   C93   1.429669 S    
C106  H75   1.110103 S    
C20   H20   1.078931 S    
C63   H39   1.113762 S    
C8    C40   1.382779 A    
C32   H32   1.078248 S    
N33   C101  1.444771 S    
C31   N31   1.328807 A    
C103  H64   1.110473 S    
N9    N17   1.380026 A    
N40   H81   1.031996 S    
N32   Ni3   1.845889 S    
C71   H43   1.080859 S    
C14   C46   1.377442 A    
C63   N35   1.455565 S    
N47   H93   1.027852 S    
N37   C105  1.445998 S    
C77   N41   1.437080 S    
N2    Ni2   1.849036 S    
C92   C95   1.425105 A    
C8    H8    1.081056 S    
C52   C56   1.399993 A    
C101  H56   1.106283 S    
C62   N34   1.454784 S    
C25   C37   1.383088 A    
C109  H88   1.111229 S    
C70   H42   1.085672 S    
N34   H57   1.031806 S    
C8    N8    1.329831 A    
C108  H82   1.110367 S    
C27   C39   1.381037 A    
N40   C108  1.446863 S    
C28   N28   1.318936 A    
C58   H34   1.081303 S    
C29   N29   1.319845 A    
C26   N26   1.319647 A    
C56   C60   1.397733 A    
C25   N25   1.332125 A    
N30   Ni1   1.845889 S    
C10   N10   1.323213 A    
C112  H98   1.110477 S    
N16   Ni7   1.846528 S    
C23   H23   1.071526 S    
C89   C94   1.408583 A    
N43   O6    1.301535 A    
C81   H45   1.079465 S    
N11   N19   1.380026 A    
C61   N33   1.458878 S    
C82   C86   1.396840 A    
C18   C42   1.371660 A    
N14   N22   1.380263 A    
C37   C85   1.479467 S    
C44   C96   1.463165 S    
N8    Ni8   1.870972 S    
C11   H11   1.071512 S    
C103  H62   1.110841 S    
C18   N18   1.329534 A    
C72   H44   1.080308 S    
C12   H12   1.080532 S    
C22   H22   1.080300 S    
C1    N1    1.333801 A    
C109  H87   1.110458 S    
C40   C88   1.420012 S    
C62   H38   1.109617 S    
C1    C33   1.373772 A    
C105  H70   1.110224 S    
C110  H91   1.112594 S    
C93   C97   1.396652 A    
C15   H15   1.068982 S    
C101  H54   1.111097 S    
C13   C45   1.373658 A    
C11   N11   1.332963 A    
N44   O7    1.300840 A    
N35   H61   1.032747 S    
N13   N21   1.380267 A    
N25   Ni6   1.847835 S    
N46   C110  1.450344 S    
C96   C100  1.392597 A    
N14   Ni5   1.846528 S    
C43   C95   1.478764 S    
N41   O2    1.301517 A    
C71   C75   1.398812 A    
N27   Ni8   1.847835 S    
C50   C54   1.390651 A    
C80   N44   1.427767 S    
C101  H55   1.110869 S    
C49   C53   1.408804 A    
N39   H77   1.032017 S    
C95   C99   1.404665 A    
C105  H71   1.109496 S    
N45   C109  1.446859 S    
N36   H65   1.031935 S    
C22   C46   1.383429 A    
C34   C73   1.474666 S    
C11   C43   1.398664 A    
N31   Ni4   1.870857 S    
C60   H36   1.080131 S    
C106  H76   1.111410 S    
C39   C87   1.479041 S    
C30   N30   1.336743 A    
C61   H37   1.112220 S    
N23   Ni3   1.846516 S    
N11   Ni4   1.848797 S    
C107  H79   1.109148 S    
C68   C88   1.406767 A    
N47   C111  1.449417 S    
N15   N23   1.380267 A    
C49   C50   1.365278 A    
C32   C36   1.397960 A    
C46   C54   1.445873 S    
N12   Ni3   1.873634 S    
C66   C72   1.386213 A    
C91   N47   1.432701 S    
C45   C53   1.459119 S    
N15   Ni8   1.870669 S    
N36   C104  1.443658 S    
N5    N25   1.386972 A    
C57   H33   1.082155 S    
C29   H29   1.082102 S    
C108  H83   1.108493 S    
C30   H30   1.076390 S    
C102  H60   1.110531 S    
C75   C79   1.411493 A    
C19   N19   1.329800 A    
N16   N24   1.380263 A    
C13   N13   1.325325 A    
C109  H86   1.109442 S    
C2    N2    1.334260 A    
C76   C80   1.404594 A    
C51   C55   1.407571 A    
C27   N27   1.328591 A    
C107  H78   1.110398 S    
N3    Ni3   1.874684 S    
N17   Ni5   1.874363 S    
C57   C58   1.402672 A    
C91   C96   1.408063 A    
C104  H68   1.110488 S    
N3    N31   1.386974 A    
C84   C88   1.397028 A    
N6    Ni6   1.870972 S    
C16   N16   1.322714 A    
N19   Ni7   1.874363 S    
C70   C74   1.393609 A    
C106  H74   1.110247 S    
C99   H51   1.077977 S    
C89   C90   1.406482 A    
N4    N32   1.386973 A    
C65   C85   1.417325 A    
C28   H28   1.079661 S    
C50   C61   1.498188 S    
C103  H63   1.110798 S    
N12   N20   1.380022 A    
C49   C62   1.518891 S    
C110  H92   1.110997 S    
C17   C41   1.384492 A    
C63   C64   1.523038 S    
N38   C106  1.447219 S    
C97   H49   1.084052 S    
C65   C71   1.391370 A    
C38   C86   1.459948 S    
C67   C69   1.390145 A    
C61   C62   1.529032 S    
N24   Ni4   1.870683 S    
C59   H35   1.072561 S    
C4    C36   1.390201 A    
C83   H47   1.079834 S    
C26   C38   1.377678 A    
C100  H52   1.080877 S    
C111  H94   1.110822 S    
C21   N21   1.341741 A    
C33   C74   1.419109 S    
C68   N40   1.427364 S    
C55   C59   1.408526 A    
C80   C82   1.382783 A    
N37   H69   1.031913 S    
C104  H67   1.106144 S    
N1    Ni1   1.874684 S    
C99   C100  1.372714 A    
N39   C107  1.446228 S    
N8    N28   1.386974 A    
C5    N5    1.338847 A    
C105  H72   1.111448 S    
C47   C55   1.459007 S    
C66   N38   1.423768 S    
C67   N39   1.422264 S    
C36   C75   1.474345 S    
C6    N6    1.333319 A    
C97   C98   1.355329 A    
C110  H90   1.109822 S    
C69   C73   1.398830 A    
C2    C34   1.390550 A    
C12   C44   1.378717 A    
N28   Ni7   1.873492 S    
C17   H17   1.078306 S    
C92   N48   1.421751 S    
C66   C86   1.415067 A    
C7    N7    1.340455 A    
C81   C85   1.404210 A    
C112  H99   1.111384 S    
C82   H46   1.079488 S    
N42   O4    1.301788 A    
N20   Ni8   1.849507 S    
C83   C87   1.404638 A    
C19   H19   1.070790 S    
C89   N45   1.426633 S    
C24   N24   1.330882 A    
C21   H21   1.078978 S    
C23   C47   1.393007 A    
C59   C60   1.382695 A    
C30   C34   1.395693 A    
N34   C102  1.445337 S    
C78   N42   1.440350 S    
C48   C56   1.446016 S    
C24   C48   1.384652 A    
C29   C33   1.364386 A    
C107  H80   1.111531 S    
C78   C84   1.389655 A    
C91   C92   1.414218 A    
C51   C64   1.511446 S    
C31   C35   1.378685 A    
C53   C57   1.411031 A    
C84   H48   1.084109 S    
C65   N37   1.422072 S    
C12   N12   1.331445 A    
C19   C43   1.389790 A    
N33   H53   1.032267 S    
C26   H26   1.074701 S    
C108  H84   1.111381 S    
C16   H16   1.078035 S    
N10   N18   1.380022 A    
C77   C83   1.395003 A    
C25   H25   1.074460 S    
C111  H95   1.109992 S    
C20   C44   1.384273 A    
N26   Ni5   1.873492 S    
C7    C39   1.392065 A    
C64   H40   1.109885 S    
C4    N4    1.332244 A    
N35   C103  1.445672 S    
C5    C37   1.390169 A    
C23   N23   1.329664 A    
C90   N46   1.424725 S    
N46   H89   1.031442 S    
C64   N36   1.454576 S    
C9    N9    1.322414 A    
N4    Ni4   1.849036 S    
C10   H10   1.082080 S    
