data_mof_unit_36470.cif
_audit_creation_date              2012-12-11T16:57:17-0500
_audit_creation_method            fapswitch 2.2
_symmetry_space_group_name_H-M    P1
_symmetry_Int_Tables_number       1
_space_group_crystal_system       triclinic
_cell_length_a                    14.528504
_cell_length_b                    16.15727
_cell_length_c                    6.942715
_cell_angle_alpha                 89.999984
_cell_angle_beta                  98.865398
_cell_angle_gamma                 90.0
_cell_volume                      1610.26929031

loop_
_atom_site_label
_atom_site_type_symbol
_atom_type_description
_atom_site_fract_x
_atom_site_fract_y
_atom_site_fract_z
_atom_type_partial_charge
O1    O     O_R   0.584990 0.413650 0.534420 -0.538236
O2    O     O_R   0.584990 0.586350 0.534420 -0.538236
O3    O     O_R   0.596190 0.585230 0.208380 -0.544490
O4    O     O_R   0.596190 0.414770 0.208380 -0.544490
O5    O     O_R   0.415010 0.586420 0.976930 -0.539548
O6    O     O_R   0.415010 0.413580 0.976930 -0.539549
C1    C     C_R   0.618654 0.614401 0.384192 0.691034
C2    C     C_R   0.618654 0.385599 0.384192 0.691032
O7    O     O_3   0.440560 0.500000 0.319140 -0.364654
V1    V     V_3+5 0.511030 0.500000 0.068070 1.396284
O8    O     O_R   0.403810 0.414840 0.643540 -0.536675
O9    O     O_R   0.403810 0.585160 0.643540 -0.536675
C3    C     C_R   0.381404 0.386142 0.805670 0.760086
C4    C     C_R   0.381404 0.613858 0.805670 0.760087
V2    V     V_3+5 0.488970 0.500000 0.560620 1.421255
O10   O     O_3   0.559440 0.500000 0.859420 -0.377904
H1    H     H_    0.184600 0.802812 0.808644 0.138382
H2    H     H_    0.184600 0.197188 0.808644 0.138385
H3    H     H_    0.323196 0.695208 0.100938 0.194112
H4    H     H_    0.323193 0.304795 0.100939 0.194109
C5    C     C_2   0.311392 0.680971 0.795907 -0.375865
C6    C     C_2   0.311392 0.319029 0.795907 -0.375861
C7    C     C_2   0.289092 0.716087 0.958985 -0.102368
C8    C     C_2   0.289091 0.283914 0.958986 -0.102376
C9    C     C_2   0.198576 0.820728 0.114422 0.292128
C10   C     C_2   0.198574 0.179273 0.114422 0.292129
C11   C     C_2   0.219272 0.783334 0.951423 -0.223781
C12   C     C_2   0.219271 0.216666 0.951423 -0.223786
H5    H     H_    0.277851 0.702000 0.653696 0.182873
H6    H     H_    0.277852 0.297999 0.653696 0.182872
C13   C     C_R   0.684556 0.741476 0.567315 0.098856
C14   C     C_R   0.684557 0.258524 0.567315 0.098854
C15   C     C_R   0.684793 0.685466 0.413157 -0.113332
C16   C     C_R   0.684793 0.314534 0.413157 -0.113333
C17   C     C_R   0.747746 0.701642 0.282040 -0.175817
C18   C     C_R   0.747746 0.298358 0.282040 -0.175818
H7    H     H_    0.750606 0.660557 0.160402 0.132244
H8    H     H_    0.750606 0.339443 0.160402 0.132244
C19   C     C_R   0.812365 0.767524 0.314480 -0.172431
C20   C     C_R   0.812365 0.232476 0.314480 -0.172431
H9    H     H_    0.862711 0.775228 0.216305 0.127133
H10   H     H_    0.862711 0.224772 0.216305 0.127133
C21   C     C_R   0.816471 0.819109 0.479624 -0.112935
C22   C     C_R   0.816471 0.180891 0.479624 -0.112935
C23   C     C_R   0.748760 0.806177 0.600093 0.098814
C24   C     C_R   0.748760 0.193823 0.600094 0.098814
C25   C     C_3   0.760283 0.794821 0.815366 -0.407193
C26   C     C_3   0.760284 0.205180 0.815367 -0.407194
C27   C     C_3   0.689943 0.724748 0.779642 -0.398975
C28   C     C_3   0.689945 0.275252 0.779642 -0.398975
H11   H     H_    0.734469 0.848914 0.890323 0.172432
H12   H     H_    0.734471 0.151087 0.890325 0.172432
H13   H     H_    0.831579 0.773485 0.875993 0.169986
H14   H     H_    0.831581 0.226515 0.875992 0.169986
H15   H     H_    0.623258 0.738517 0.832979 0.165499
H16   H     H_    0.623259 0.261484 0.832981 0.165498
H17   H     H_    0.720169 0.662830 0.820353 0.171398
H18   H     H_    0.720171 0.337171 0.820352 0.171398
O11   O     O_R   0.921430 0.915960 0.371040 -0.535996
O12   O     O_R   0.921430 0.084040 0.371040 -0.535996
O13   O     O_R   0.910450 0.087500 0.697310 -0.542286
O14   O     O_R   0.910450 0.912500 0.697310 -0.542285
O15   O     O_R   0.091710 0.087460 0.928430 -0.557914
O16   O     O_R   0.091710 0.912540 0.928430 -0.557913
C29   C     C_R   0.887948 0.114335 0.519302 0.697102
C30   C     C_R   0.887948 0.885664 0.519302 0.697102
O17   O     O_3   0.065970 1.000000 0.586140 -0.367350
V3    V     V_3+5 0.995640 1.000000 0.837400 1.393311
O18   O     O_R   0.103020 0.915700 0.261710 -0.523343
O19   O     O_R   0.103020 0.084300 0.261710 -0.523339
C31   C     C_R   0.126263 0.886611 0.100712 0.643909
C32   C     C_R   0.126262 0.113389 0.100712 0.643915
V4    V     V_3+5 0.017940 1.000000 0.344880 1.426896
O20   O     O_3   0.947330 0.000000 0.046180 -0.368912
O21   O     O_3   0.241078 0.794468 0.296648 -0.550362
C33   C     C_3   0.313115 0.850484 0.365568 -0.285850
H19   H     H_    0.285307 0.913248 0.388734 0.131751
H20   H     H_    0.365779 0.853796 0.265016 0.130152
H21   H     H_    0.349304 0.828163 0.508474 0.160047
O22   O     O_3   0.241075 0.205532 0.296649 -0.550362
C34   C     C_3   0.313124 0.149525 0.365552 -0.285834
H22   H     H_    0.365795 0.146238 0.265011 0.130160
H23   H     H_    0.285331 0.086750 0.388672 0.131724
H24   H     H_    0.349301 0.171837 0.508477 0.160046

loop_
_geom_bond_atom_site_label_1
_geom_bond_atom_site_label_2
_ccdc_geom_bond_type
O1    C2    A    
C10   C32   S    
V4    O20   S    
C17   C19   A    
O2    C1    A    
C33   H21   S    
O4    C2    A    
C34   H22   S    
C19   H9    S    
C26   H14   S    
O16   V3    S    
C4    C5    S    
C17   H7    S    
C33   H20   S    
O3    C1    A    
O11   C30   A    
V3    O20   S    
V2    O10   S    
O12   V4    S    
C27   H17   S    
O16   C31   A    
O18   C31   A    
O8    V2    S    
H4    C8    S    
C13   C15   A    
O18   V4    S    
O1    V2    S    
C7    C11   S    
O7    V1    S    
O11   V4    S    
C25   H13   S    
C20   H10   S    
C1    C15   S    
C22   C29   S    
C13   C27   S    
C34   H23   S    
C22   C24   A    
C23   C25   S    
C24   C26   S    
O14   C30   A    
O17   V3    S    
C28   H18   S    
C18   C20   A    
H2    C12   S    
C33   H19   S    
C25   C27   S    
C19   C21   A    
C27   H15   S    
C5    H5    S    
C28   H16   S    
C9    O21   S    
H1    C11   S    
H3    C7    S    
O21   C33   S    
O9    V2    S    
C20   C22   A    
O19   V4    S    
C2    C16   S    
O2    V2    S    
C21   C23   A    
C14   C28   S    
O5    C4    A    
C9    C31   S    
O17   V4    S    
O9    C4    A    
O12   C29   A    
C5    C7    D    
C6    C8    D    
O4    V1    S    
C34   H24   S    
O15   V3    S    
C6    H6    S    
C14   C24   A    
C8    C12   S    
O22   C34   S    
O6    V1    S    
C25   H11   S    
C9    C11   D    
C10   C12   D    
O14   V3    S    
C18   H8    S    
O7    V2    S    
O5    V1    S    
O3    V1    S    
V1    O10   S    
O6    C3    A    
O8    C3    A    
O13   V3    S    
C21   C30   S    
C26   C28   S    
C15   C17   A    
C3    C6    S    
C16   C18   A    
C10   O22   S    
O13   C29   A    
C26   H12   S    
O15   C32   A    
C13   C23   A    
O19   C32   A    
C14   C16   A    
