data_mof_unit_66425.cif
_audit_creation_date              2012-10-26T19:36:08-0400
_audit_creation_method            fapswitch 2.2
_symmetry_space_group_name_H-M    P1
_symmetry_Int_Tables_number       1
_space_group_crystal_system       triclinic
_cell_length_a                    22.668
_cell_length_b                    22.67286
_cell_length_c                    14.769843
_cell_angle_alpha                 90.00403
_cell_angle_beta                  89.992516
_cell_angle_gamma                 90.000993
_cell_volume                      7590.93695282

loop_
_atom_site_label
_atom_site_type_symbol
_atom_type_description
_atom_site_fract_x
_atom_site_fract_y
_atom_site_fract_z
_atom_type_partial_charge
C1    C     C_R   0.079589 0.420558 0.499994 0.552239
C2    C     C_R   0.994645 0.447057 0.047886 -0.088509
C3    C     C_R   0.994645 0.447057 0.952105 -0.088690
C4    C     C_R   0.005356 0.552942 0.047895 -0.088942
C5    C     C_R   0.511450 0.051965 0.952113 -0.088603
C6    C     C_R   0.488549 0.948035 0.047887 -0.088216
C7    C     C_R   0.488549 0.948035 0.952107 -0.088952
C8    C     C_R   0.511449 0.051965 0.047894 -0.088743
C9    C     C_R   0.000001 0.500000 0.902864 0.009550
C10   C     C_R   0.000000 0.500000 0.097136 0.009307
C11   C     C_R   0.499999 0.000000 0.902864 0.008979
C12   C     C_R   0.920410 0.579441 0.500009 0.552272
C13   C     C_R   0.499999 0.000000 0.097136 0.009244
C14   C     C_R   0.228661 0.727330 0.583321 0.033529
C15   C     C_R   0.770234 0.273762 0.416756 0.033470
C16   C     C_R   0.771509 0.272491 0.583322 0.033557
C17   C     C_R   0.229601 0.726413 0.416730 0.033448
C18   C     C_R   0.767453 0.723476 0.417222 0.033083
C19   C     C_R   0.229679 0.273690 0.583257 0.033295
C20   C     C_R   0.228566 0.272554 0.416670 0.033366
C21   C     C_R   0.774289 0.730268 0.583165 0.033525
C22   C     C_R   0.729771 0.226232 0.583246 0.033545
C23   C     C_R   0.920410 0.420558 0.500002 0.552179
C24   C     C_R   0.271337 0.772675 0.416680 0.033617
C25   C     C_R   0.270397 0.773591 0.583272 0.033533
C26   C     C_R   0.728495 0.227503 0.416680 0.033643
C27   C     C_R   0.270307 0.226298 0.416741 0.033231
C28   C     C_R   0.732548 0.776523 0.582768 0.033061
C29   C     C_R   0.725707 0.769726 0.416827 0.033472
C30   C     C_R   0.271419 0.227432 0.583330 0.033294
C31   C     C_R   0.208584 0.704041 0.500050 -0.051820
C32   C     C_R   0.791420 0.295955 0.500077 -0.051835
C33   C     C_R   0.791423 0.704047 0.500393 -0.051774
C34   C     C_R   0.079590 0.579441 0.499999 0.552186
C35   C     C_R   0.208574 0.295951 0.499927 -0.051776
C36   C     C_R   0.708584 0.204039 0.499924 -0.051775
C37   C     C_R   0.291414 0.795962 0.499951 -0.051762
C38   C     C_R   0.291413 0.204037 0.500072 -0.051807
C39   C     C_R   0.708575 0.795950 0.499599 -0.051816
C40   C     C_1   0.000000 0.500000 0.802713 0.166069
C41   C     C_1   0.000000 0.500000 0.197287 0.165186
C42   C     C_1   0.500000 0.000000 0.802713 0.165117
C43   C     C_1   0.500000 0.000000 0.197287 0.166009
C44   C     C_1   0.162760 0.659927 0.500019 0.043755
C45   C     C_R   0.579591 0.920559 0.499990 0.552313
C46   C     C_1   0.837243 0.340070 0.500040 0.043767
C47   C     C_1   0.837244 0.659930 0.500193 0.043758
C48   C     C_1   0.162753 0.340067 0.499955 0.043749
C49   C     C_1   0.662759 0.159926 0.499961 0.043818
C50   C     C_1   0.337239 0.840075 0.499982 0.043771
C51   C     C_1   0.337239 0.159926 0.500045 0.043827
C52   C     C_1   0.662756 0.840069 0.499804 0.043759
C53   C     C_1   0.875382 0.376776 0.500014 0.062069
C54   C     C_1   0.124620 0.623222 0.500001 0.062057
C55   C     C_1   0.124616 0.376774 0.499977 0.062247
C56   C     C_R   0.420410 0.079442 0.500006 0.552280
C57   C     C_1   0.875382 0.623224 0.500061 0.062245
C58   C     C_1   0.375380 0.876779 0.499999 0.061961
C59   C     C_1   0.624619 0.123222 0.499986 0.061996
C60   C     C_1   0.624619 0.876776 0.499939 0.062334
C61   C     C_1   0.375380 0.123222 0.500023 0.062393
C62   C     C_2   0.796470 0.294522 0.670356 0.624733
C63   C     C_2   0.205797 0.703241 0.329625 0.624877
C64   C     C_2   0.203874 0.705117 0.670374 0.624842
C65   C     C_2   0.793864 0.297119 0.329659 0.624980
C66   C     C_2   0.203682 0.294646 0.329618 0.624973
C67   C     C_R   0.420410 0.920559 0.500001 0.552158
C68   C     C_2   0.802150 0.711123 0.669733 0.624548
C69   C     C_2   0.788173 0.697232 0.330303 0.625449
C70   C     C_2   0.205963 0.296973 0.670361 0.625120
C71   C     C_2   0.294200 0.796765 0.670377 0.624754
C72   C     C_2   0.703527 0.205479 0.329645 0.624592
C73   C     C_2   0.706138 0.202877 0.670345 0.624855
C74   C     C_2   0.296123 0.794889 0.329627 0.624708
C75   C     C_2   0.697837 0.788865 0.330264 0.624725
C76   C     C_2   0.296297 0.205337 0.670383 0.625060
C77   C     C_2   0.294026 0.203020 0.329636 0.625212
C78   C     C_R   0.579590 0.079441 0.499998 0.552146
C79   C     C_2   0.711839 0.802777 0.669681 0.625585
C80   C     C_R   0.005356 0.552942 0.952114 -0.088121
Cu1   Cu    Cu3+1 1.000000 0.500000 0.589220 1.074534
Cu2   Cu    Cu3+1 0.000000 0.500000 0.410780 1.073366
Cu3   Cu    Cu3+1 0.500000 0.000000 0.589220 1.073362
Cu4   Cu    Cu3+1 0.500000 0.000000 0.410780 1.074537
H1    H     H_    0.009558 0.594474 0.083564 0.131964
H2    H     H_    0.171775 0.721475 0.206547 0.354587
H3    H     H_    0.168474 0.724697 0.792057 0.354538
H4    H     H_    0.827638 0.279150 0.206325 0.354605
H5    H     H_    0.168153 0.274894 0.208098 0.355318
H6    H     H_    0.841771 0.734917 0.786469 0.355287
H7    H     H_    0.817751 0.711050 0.203215 0.355759
H8    H     H_    0.172057 0.278895 0.793587 0.355388
H9    H     H_    0.328214 0.778535 0.793460 0.354252
H10   H     H_    0.667887 0.225323 0.208258 0.354205
H11   H     H_    0.672376 0.220848 0.793687 0.354270
H12   H     H_    0.990443 0.405525 0.916435 0.132100
H13   H     H_    0.331525 0.775309 0.207943 0.354213
H14   H     H_    0.658198 0.765063 0.213547 0.355623
H15   H     H_    0.331808 0.225085 0.791917 0.355649
H16   H     H_    0.327908 0.221106 0.206398 0.355717
H17   H     H_    0.682234 0.788977 0.796754 0.356074
H18   H     H_    0.990443 0.405525 0.083548 0.132125
H19   H     H_    0.009558 0.594474 0.916451 0.132412
H20   H     H_    0.520433 0.092731 0.083562 0.132524
H21   H     H_    0.479565 0.907270 0.916438 0.132379
H22   H     H_    0.479565 0.907270 0.083551 0.132748
H23   H     H_    0.520433 0.092731 0.916449 0.132491
H24   H     H_    0.832111 0.274689 0.791746 0.354526
N1    N     N_1   0.000000 0.500000 0.276710 -0.174447
N2    N     N_1   0.000000 0.500000 0.723290 -0.174096
N3    N     N_1   0.500000 0.000000 0.276710 -0.174084
N4    N     N_1   0.500000 0.000000 0.723290 -0.174435
O1    O     O_R   0.059850 0.440160 0.575320 -0.484579
O2    O     O_R   0.440150 0.059840 0.424680 -0.484445
O3    O     O_R   0.440150 0.059840 0.575320 -0.483975
O4    O     O_R   0.559850 0.940160 0.424680 -0.483352
O5    O     O_R   0.440150 0.940160 0.424680 -0.484442
O6    O     O_R   0.559850 0.059840 0.575320 -0.484611
O7    O     O_R   0.559850 0.059840 0.424680 -0.484843
O8    O     O_R   0.440150 0.940160 0.575320 -0.484945
O9    O     O_2   0.799803 0.347542 0.684757 -0.476386
O10   O     O_R   0.816227 0.254444 0.735609 -0.647208
O11   O     O_2   0.202644 0.650043 0.316767 -0.475512
O12   O     O_R   0.940150 0.559840 0.424680 -0.485274
O13   O     O_R   0.186917 0.742453 0.262535 -0.647579
O14   O     O_2   0.200566 0.652066 0.684513 -0.475789
O15   O     O_R   0.184250 0.745058 0.735943 -0.647282
O16   O     O_2   0.796989 0.350345 0.317061 -0.474926
O17   O     O_R   0.812608 0.258052 0.262276 -0.647689
O18   O     O_2   0.200356 0.347676 0.315317 -0.475091
O19   O     O_R   0.183990 0.254612 0.264233 -0.646972
O20   O     O_2   0.806028 0.658645 0.687967 -0.476379
O21   O     O_R   0.824007 0.753291 0.730146 -0.646429
O22   O     O_2   0.790954 0.643652 0.321643 -0.473688
O23   O     O_R   0.940150 0.559840 0.575320 -0.483482
O24   O     O_R   0.804580 0.733994 0.258564 -0.647542
O25   O     O_2   0.202833 0.350189 0.683076 -0.474840
O26   O     O_R   0.187143 0.257847 0.737617 -0.647059
O27   O     O_2   0.297359 0.849964 0.683230 -0.475995
O28   O     O_R   0.313072 0.757556 0.737474 -0.647561
O29   O     O_2   0.700172 0.152461 0.315249 -0.476912
O30   O     O_R   0.683786 0.245562 0.264389 -0.647190
O31   O     O_2   0.702986 0.149654 0.682930 -0.475442
O32   O     O_R   0.687415 0.241944 0.737741 -0.647670
O33   O     O_2   0.299429 0.847939 0.315488 -0.476279
O34   O     O_R   0.059850 0.440160 0.424680 -0.484103
O35   O     O_R   0.315749 0.754947 0.264056 -0.647267
O36   O     O_2   0.693964 0.841338 0.312018 -0.476139
O37   O     O_R   0.675967 0.746695 0.269870 -0.646254
O38   O     O_2   0.299636 0.152305 0.684670 -0.474927
O39   O     O_R   0.315972 0.245369 0.735783 -0.646776
O40   O     O_2   0.297186 0.149804 0.316933 -0.474711
O41   O     O_R   0.312817 0.242152 0.262366 -0.646856
O42   O     O_2   0.709112 0.856359 0.678352 -0.473525
O43   O     O_R   0.695385 0.766025 0.741403 -0.647361
O44   O     O_R   0.940150 0.440160 0.424680 -0.484484
O45   O     O_R   0.059850 0.559840 0.575320 -0.484310
O46   O     O_R   0.059850 0.559840 0.424680 -0.484817
O47   O     O_R   0.940150 0.440160 0.575320 -0.484714
O48   O     O_R   0.559850 0.940160 0.575320 -0.485157

loop_
_geom_bond_atom_site_label_1
_geom_bond_atom_site_label_2
_ccdc_geom_bond_type
H16   O41   S    
C48   C55   T    
C45   C60   S    
C8    C13   A    
Cu1   O47   S    
C63   O11   D    
C26   C72   S    
C74   O33   D    
C51   C61   T    
C13   C43   S    
C14   C31   A    
H8    O26   S    
H3    O15   S    
Cu1   Cu2   S    
C15   C32   A    
C59   C78   S    
C7    C11   A    
C69   O22   D    
C16   C62   S    
Cu3   O6    S    
C20   C66   S    
C68   O21   S    
C78   O6    A    
C4    C80   A    
C5    H23   S    
Cu2   O46   S    
C21   C33   A    
H17   O43   S    
C27   C38   A    
C15   C65   S    
C30   C38   A    
C11   C42   S    
C68   O20   D    
C28   C79   S    
C42   N4    T    
C52   C60   T    
C77   O41   S    
C20   C35   A    
H7    O24   S    
Cu4   O5    S    
C12   O23   A    
C23   O47   A    
C16   C22   A    
C7    H21   S    
Cu1   O23   S    
C3    H12   S    
C25   C71   S    
C67   O8    A    
H2    O13   S    
Cu2   O44   S    
C18   C69   S    
C39   C52   S    
H11   O32   S    
Cu4   O4    S    
C41   N1    T    
C23   O44   A    
C10   C41   S    
H13   O35   S    
C1    O34   A    
C45   O48   A    
C1    O1    A    
H4    O17   S    
C67   O5    A    
C35   C48   S    
C77   O40   D    
Cu2   O12   S    
Cu2   O34   S    
C23   C53   S    
Cu4   N3    S    
C72   O29   D    
C17   C24   A    
Cu1   O45   S    
C31   C44   S    
Cu3   O48   S    
C80   H19   S    
H10   O30   S    
Cu2   N1    S    
Cu3   O3    S    
C74   O35   S    
H6    O21   S    
C15   C26   A    
C71   O27   D    
C4    H1    S    
C76   O39   S    
H15   O39   S    
C9    C40   S    
C9    C80   A    
C50   C58   T    
Cu3   O8    S    
C72   O30   S    
C65   O16   D    
C3    C9    A    
C47   C57   T    
C30   C76   S    
C65   O17   S    
Cu3   Cu4   S    
C12   O12   A    
C76   O38   D    
C64   O15   S    
C14   C64   S    
C29   C39   A    
C24   C37   A    
C6    H22   S    
C18   C29   A    
C5    C11   A    
C8    H20   S    
C63   O13   S    
C29   C75   S    
C12   C57   S    
C34   O46   A    
C26   C36   A    
C21   C28   A    
C34   C54   S    
C69   O24   S    
C64   O14   D    
C21   C68   S    
C17   C31   A    
C4    C10   A    
C2    C10   A    
C62   O10   S    
C66   O19   S    
C73   O31   D    
Cu4   O2    S    
Cu3   N4    S    
C32   C46   S    
H24   O10   S    
C27   C77   S    
H5    O19   S    
C5    C8    A    
C40   N2    T    
C70   O26   S    
C6    C7    A    
C38   C51   S    
C20   C27   A    
C75   O36   D    
C16   C32   A    
C22   C36   A    
C28   C39   A    
C49   C59   T    
C56   O2    A    
C78   O7    A    
C1    C55   S    
H9    O28   S    
C19   C35   A    
C17   C63   S    
C79   O42   D    
C37   C50   S    
C45   O4    A    
C24   C74   S    
C71   O28   S    
C75   O37   S    
Cu4   O7    S    
C33   C47   S    
C46   C53   T    
C56   O3    A    
C2    C3    A    
C14   C25   A    
C18   C33   A    
C79   O43   S    
C43   N3    T    
C34   O45   A    
C44   C54   T    
C58   C67   S    
Cu1   N2    S    
C70   O25   D    
Cu1   O1    S    
C2    H18   S    
C56   C61   S    
C19   C70   S    
C22   C73   S    
C66   O18   D    
C19   C30   A    
H14   O37   S    
C62   O9    D    
C36   C49   S    
C25   C37   A    
C6    C13   A    
C73   O32   S    
