data_mof_unit_52410.cif
_audit_creation_date              2012-12-10T18:30:27-0500
_audit_creation_method            fapswitch 2.2
_symmetry_space_group_name_H-M    P1
_symmetry_Int_Tables_number       1
_space_group_crystal_system       triclinic
_cell_length_a                    15.02172
_cell_length_b                    14.167569
_cell_length_c                    15.3297
_cell_angle_alpha                 89.760762
_cell_angle_beta                  81.716354
_cell_angle_gamma                 104.434087
_cell_volume                      3123.80577144

loop_
_atom_site_label
_atom_site_type_symbol
_atom_type_description
_atom_site_fract_x
_atom_site_fract_y
_atom_site_fract_z
_atom_type_partial_charge
C1    C     C_R   0.558919 0.512560 0.336908 0.863252
C2    C     C_R   0.440943 0.486363 0.663029 0.870391
C3    C     C_R   0.551985 0.454217 0.101403 0.051158
C4    C     C_R   0.434448 0.422972 0.902088 0.065023
C5    C     C_R   0.646551 0.479727 0.061707 0.047822
C6    C     C_R   0.340488 0.417279 0.938142 0.024970
C7    C     C_R   0.479250 0.431301 0.049192 0.074743
C8    C     C_R   0.501984 0.422273 0.957981 0.074091
C9    C     C_R   0.593437 0.417942 0.925120 -0.273781
C10   C     C_R   0.386599 0.429959 0.084131 -0.256238
C11   C     C_R   0.665629 0.447636 0.974808 -0.005614
C12   C     C_R   0.317932 0.422340 0.030670 -0.017017
C13   C     C_R   0.164607 0.366283 0.353697 -0.298555
C14   C     C_R   0.834553 0.627345 0.649559 -0.304762
C15   C     C_R   0.251553 0.389722 0.379709 0.025430
C16   C     C_R   0.750443 0.612501 0.618341 0.020845
C17   C     C_R   0.202856 0.487240 0.492831 -0.063535
C18   C     C_R   0.792396 0.502214 0.514236 -0.053152
C19   C     C_R   0.111499 0.462286 0.472970 -0.002252
C20   C     C_R   0.881779 0.519382 0.538057 -0.004934
C21   C     C_R   0.093441 0.403090 0.399507 0.120972
C22   C     C_R   0.901198 0.580215 0.610279 0.120748
C23   C     C_R   0.498449 0.329136 0.499781 0.886339
C24   C     C_R   0.501521 0.670851 0.500289 0.874938
C25   C     C_R   0.039357 0.496715 0.521925 0.064067
C26   C     C_R   0.951476 0.478485 0.492646 0.064519
C27   C     C_R   0.936783 0.422365 0.417507 -0.273746
C28   C     C_R   0.052528 0.548142 0.599702 -0.282106
C29   C     C_R   0.005541 0.383521 0.372562 0.006513
C30   C     C_R   0.985807 0.591132 0.642440 0.014010
C31   C     C_1   0.495799 0.226847 0.499218 -0.204063
C32   C     C_1   0.504061 0.773103 0.501094 -0.207843
C33   C     C_1   0.496237 0.141645 0.499379 -0.005481
C34   C     C_1   0.503534 0.858278 0.501107 -0.004802
C35   C     C_1   0.498607 0.042262 0.499998 0.010765
C36   C     C_1   0.501107 0.957644 0.500599 0.010585
C37   C     C_R   0.594954 0.508988 0.242174 -0.136002
C38   C     C_R   0.402316 0.464399 0.757313 -0.119512
C39   C     C_R   0.714783 0.537309 0.110257 0.142682
C40   C     C_R   0.274973 0.417089 0.879563 0.116797
C41   C     C_R   0.686367 0.556347 0.200686 0.120170
C42   C     C_R   0.308511 0.459235 0.793281 0.180299
C43   C     C_R   0.531715 0.455618 0.192241 -0.290974
C44   C     C_R   0.461440 0.440853 0.811182 -0.304131
H1    H     H_    0.872468 0.407896 0.390863 0.140609
H2    H     H_    0.114175 0.555289 0.629709 0.142405
H3    H     H_    0.532001 0.445892 0.781773 0.178933
H4    H     H_    0.464697 0.414667 0.225261 0.164760
H5    H     H_    0.610402 0.391854 0.860208 0.153994
H6    H     H_    0.367086 0.443325 0.152702 0.153498
H7    H     H_    0.767352 0.449743 0.467456 0.125915
H8    H     H_    0.225334 0.537817 0.542081 0.133753
H9    H     H_    0.698273 0.647814 0.648414 0.138496
H10   H     H_    0.306630 0.361094 0.345349 0.128985
H11   H     H_    0.153934 0.320018 0.298146 0.160537
H12   H     H_    0.846678 0.675180 0.703856 0.158412
N1    N     N_R   0.268300 0.449640 0.447270 -0.093881
N2    N     N_R   0.731700 0.550360 0.552730 -0.094550
O1    O     O_R   0.616880 0.525390 0.394380 -0.600017
O2    O     O_R   0.383120 0.474610 0.605620 -0.605103
O3    O     O_R   0.468100 0.493070 0.360490 -0.610794
O4    O     O_R   0.531900 0.506930 0.639510 -0.613335
O5    O     O_R   0.574410 0.389880 0.516950 -0.593432
O6    O     O_R   0.425590 0.610120 0.483050 -0.586405
O7    O     O_R   0.425630 0.357560 0.483060 -0.595716
O8    O     O_R   0.574370 0.642440 0.516940 -0.597049
Zn1   Zn    Zn3+2 0.599340 0.521580 0.522630 0.929283
Zn2   Zn    Zn3+2 0.400660 0.478420 0.477370 0.933552
C45   C     C_1   0.755097 0.435466 0.935133 0.160236
N3    N     N_1   0.826141 0.424872 0.902273 -0.203539
C46   C     C_1   0.230885 0.439645 0.072386 0.133297
N4    N     N_1   0.161584 0.453701 0.106140 -0.200461
C47   C     C_3   0.246578 0.504946 0.745080 -0.412612
C48   C     C_3   0.286789 0.615109 0.729362 -0.850927
H13   H     H_    0.299165 0.649806 0.792857 0.263381
H14   H     H_    0.353033 0.632177 0.683037 0.252753
H15   H     H_    0.236932 0.647589 0.700692 0.246701
H16   H     H_    0.234153 0.468759 0.682597 0.218514
H17   H     H_    0.176702 0.495768 0.783987 0.216803
C49   C     C_3   0.750046 0.629985 0.251175 -0.390229
C50   C     C_3   0.817316 0.583859 0.291772 -0.810675
H18   H     H_    0.850917 0.633265 0.340234 0.250104
H19   H     H_    0.779553 0.513081 0.325727 0.260485
H20   H     H_    0.872527 0.570075 0.241050 0.240735
H21   H     H_    0.788390 0.695333 0.208941 0.197301
H22   H     H_    0.709190 0.661610 0.303940 0.212414
C51   C     C_3   0.812667 0.587843 0.064071 -0.404590
C52   C     C_3   0.811003 0.666119 0.995729 -0.840547
H23   H     H_    0.770629 0.634843 0.942987 0.263139
H24   H     H_    0.779694 0.722571 0.028342 0.253217
H25   H     H_    0.883171 0.701639 0.964590 0.261822
H26   H     H_    0.859737 0.624364 0.109284 0.214794
H27   H     H_    0.849683 0.534631 0.035180 0.218459
C53   C     C_3   0.172871 0.362376 0.904610 -0.414742
C54   C     C_3   0.140322 0.286133 0.837783 -0.855573
H28   H     H_    0.137935 0.320537 0.773421 0.254012
H29   H     H_    0.187423 0.236579 0.827621 0.264812
H30   H     H_    0.069091 0.241900 0.863275 0.259017
H31   H     H_    0.161869 0.319667 0.967687 0.227135
H32   H     H_    0.127711 0.413887 0.913063 0.216913
C55   C     C_1   0.984260 0.326183 0.296772 0.160045
N5    N     N_1   0.967198 0.280440 0.236176 -0.198058
C56   C     C_1   0.005969 0.644721 0.720481 0.150505
N6    N     N_1   0.022148 0.687409 0.782914 -0.210118

loop_
_geom_bond_atom_site_label_1
_geom_bond_atom_site_label_2
_ccdc_geom_bond_type
C7    C10   A    
C14   H12   S    
C51   C52   S    
C55   N5    T    
C27   C29   A    
C47   C48   S    
C35   C36   T    
C39   C51   S    
C4    C8    A    
C41   C49   S    
C50   H18   S    
C54   H30   S    
C7    C8    A    
C39   C41   A    
C25   C28   A    
C28   H2    S    
C26   C27   A    
C48   H14   S    
O4    Zn1   S    
O6    Zn2   S    
C19   C21   A    
C5    C11   A    
C3    C7    A    
C1    O1    A    
C6    C12   A    
C33   C35   S    
C2    O2    A    
C23   O5    A    
C16   H9    S    
C49   H22   S    
O1    Zn1   S    
C18   N2    A    
C54   H28   S    
C8    C9    A    
C48   H15   S    
C30   C56   S    
C47   H16   S    
C31   C33   T    
C43   H4    S    
C18   C20   A    
C44   H3    S    
C24   O8    A    
C27   H1    S    
C40   C42   A    
O8    Zn1   S    
C24   O6    A    
C51   H26   S    
C15   N1    A    
C53   C54   S    
C17   H8    S    
C50   H19   S    
C18   H7    S    
O5    Zn1   S    
C48   H13   S    
C13   C21   A    
C15   H10   S    
C6    C40   A    
C9    H5    S    
C4    C6    A    
C4    C44   A    
C25   C26   A    
C21   C29   A    
C23   C31   S    
C37   C43   A    
C24   C32   S    
C38   C44   A    
C49   H21   S    
C2    C38   S    
C52   H25   S    
C53   H32   S    
O7    Zn2   S    
C3    C43   A    
C11   C45   S    
C47   H17   S    
C29   C55   S    
C16   N2    A    
C9    C11   A    
C10   C12   A    
C12   C46   S    
C52   H24   S    
C13   C15   A    
C14   C16   A    
C20   C22   A    
N1    Zn2   S    
C10   H6    S    
C50   H20   S    
C42   C47   S    
C22   C30   A    
C40   C53   S    
C49   C50   S    
C3    C5    A    
C1    O3    A    
C54   H29   S    
C38   C42   A    
C1    C37   S    
C23   O7    A    
C5    C39   A    
C46   N4    T    
O3    Zn2   S    
C14   C22   A    
C20   C26   A    
C53   H31   S    
C51   H27   S    
C28   C30   A    
C17   C19   A    
C34   C36   S    
C37   C41   A    
C45   N3    T    
C19   C25   A    
N2    Zn1   S    
C52   H23   S    
O2    Zn2   S    
C17   N1    A    
C56   N6    T    
C2    O4    A    
C32   C34   T    
C13   H11   S    
