data_mof_unit_13904.cif
_audit_creation_date              2012-12-10T17:11:29-0500
_audit_creation_method            fapswitch 2.2
_symmetry_space_group_name_H-M    P1
_symmetry_Int_Tables_number       1
_space_group_crystal_system       triclinic
_cell_length_a                    15.079766
_cell_length_b                    12.946623
_cell_length_c                    11.819358
_cell_angle_alpha                 98.748104
_cell_angle_beta                  92.342601
_cell_angle_gamma                 92.925336
_cell_volume                      2274.93441594

loop_
_atom_site_label
_atom_site_type_symbol
_atom_type_description
_atom_site_fract_x
_atom_site_fract_y
_atom_site_fract_z
_atom_type_partial_charge
C1    C     C_R   0.503623 0.300282 0.479190 0.788940
C2    C     C_R   0.496351 0.699714 0.520809 0.788977
C3    C     C_R   0.042322 0.351233 0.606617 0.184208
C4    C     C_R   0.957659 0.648580 0.393253 0.184152
C5    C     C_R   0.486124 0.811986 0.531787 -0.093304
C6    C     C_R   0.513793 0.187999 0.468196 -0.093287
C7    C     C_R   0.567789 0.023860 0.374716 0.201684
C8    C     C_R   0.431982 0.976097 0.625154 0.201677
C9    C     C_R   0.566679 0.134092 0.384903 0.156793
C10   C     C_R   0.433151 0.865866 0.615004 0.156834
C11   C     C_R   0.469312 0.135340 0.544921 -0.298315
C12   C     C_R   0.530594 0.864655 0.455063 -0.298276
C13   C     C_R   0.475357 0.028086 0.543164 0.070143
C14   C     C_R   0.524486 0.971890 0.456771 0.070186
C15   C     C_R   0.413614 0.401644 0.030082 -0.335728
C16   C     C_R   0.586387 0.598355 0.969917 -0.335709
C17   C     C_R   0.422333 0.411102 0.149374 0.051580
C18   C     C_R   0.577668 0.588897 0.850626 0.051646
C19   C     C_R   0.538377 0.543564 0.152959 0.359459
C20   C     C_R   0.461623 0.456436 0.847041 0.359449
C21   C     C_R   0.531611 0.535910 0.031126 0.033952
C22   C     C_R   0.468390 0.464090 0.968874 0.033964
C23   C     C_R   0.329546 0.500667 0.501260 0.813649
C24   C     C_R   0.670453 0.499323 0.498739 0.813728
C25   C     C_R   0.815392 0.584492 0.465387 0.089659
C26   C     C_R   0.184622 0.415422 0.534599 0.089730
C27   C     C_R   0.766879 0.498208 0.496928 -0.065208
C28   C     C_R   0.233117 0.501730 0.503059 -0.065163
C29   C     C_R   0.810433 0.414842 0.534697 0.081162
C30   C     C_R   0.189544 0.585064 0.465256 0.081163
C31   C     C_R   0.904126 0.420256 0.543478 0.067796
C32   C     C_R   0.095857 0.579605 0.456435 0.067801
C33   C     C_R   0.952950 0.499682 0.498641 -0.046088
C34   C     C_R   0.047043 0.500172 0.501281 -0.046122
C35   C     C_R   0.907943 0.578457 0.451348 0.089864
C36   C     C_R   0.092055 0.421401 0.548583 0.089778
C37   C     C_R   0.949865 0.348900 0.598779 -0.203575
C38   C     C_R   0.050113 0.650920 0.401076 -0.203584
Cu1   Cu    Cu3+1 0.506660 0.507730 0.615930 0.930227
Cu2   Cu    Cu3+1 0.493340 0.492270 0.384070 0.930253
N1    N     N_R   0.516670 0.519360 0.790130 -0.180523
N2    N     N_R   0.483330 0.480640 0.209870 -0.180512
O1    O     O_R   0.504720 0.354460 0.582000 -0.591678
O2    O     O_R   0.495280 0.645540 0.418000 -0.591648
O3    O     O_R   0.493480 0.341410 0.386200 -0.578534
O4    O     O_R   0.506520 0.658590 0.613800 -0.578608
O5    O     O_R   0.375880 0.506510 0.597910 -0.591401
O6    O     O_R   0.624120 0.493490 0.402090 -0.591328
O7    O     O_R   0.364640 0.493450 0.402110 -0.575788
O8    O     O_R   0.635360 0.506550 0.597890 -0.575808
C39   C     C_3   0.771686 0.688258 0.469533 -0.872609
H1    H     H_    0.713148 0.693049 0.523567 0.215736
H2    H     H_    0.818418 0.753507 0.510482 0.240182
H3    H     H_    0.749368 0.701341 0.382880 0.232938
C40   C     C_3   0.228391 0.311706 0.530574 -0.872598
H4    H     H_    0.287066 0.306983 0.476775 0.215673
H5    H     H_    0.250542 0.298624 0.617295 0.232969
H6    H     H_    0.181761 0.246423 0.489442 0.240145
H7    H     H_    0.363368 0.344806 0.987634 0.159987
H8    H     H_    0.636633 0.655192 0.012366 0.159994
C41   C     C_3   0.758008 0.321426 0.568177 -0.850340
H9    H     H_    0.782352 0.247591 0.522660 0.227006
H10   H     H_    0.765633 0.322665 0.662200 0.236103
H11   H     H_    0.686132 0.318969 0.545601 0.232821
C42   C     C_3   0.241950 0.678507 0.431799 -0.850372
H12   H     H_    0.217543 0.752324 0.477253 0.226971
H13   H     H_    0.313809 0.681030 0.454464 0.232848
H14   H     H_    0.234388 0.677240 0.337774 0.236119
H15   H     H_    0.913998 0.292271 0.640829 0.160364
H16   H     H_    0.085972 0.707514 0.358968 0.160390
C43   C     C_3   0.083909 0.287546 0.689830 -0.873016
H17   H     H_    0.035876 0.267572 0.753113 0.223961
H18   H     H_    0.105575 0.212532 0.644193 0.235905
H19   H     H_    0.140032 0.333616 0.740768 0.238910
C44   C     C_3   0.916043 0.712190 0.309992 -0.873230
H20   H     H_    0.964012 0.731954 0.246567 0.224041
H21   H     H_    0.859821 0.666168 0.259247 0.238978
H22   H     H_    0.894504 0.787284 0.355549 0.235929
H23   H     H_    0.571077 0.819960 0.394274 0.172634
H24   H     H_    0.428884 0.180063 0.605752 0.172640
C45   C     C_3   0.374080 0.807081 0.687850 -0.838652
H25   H     H_    0.306324 0.836881 0.687516 0.227306
H26   H     H_    0.363627 0.722538 0.655117 0.244939
H27   H     H_    0.402917 0.816872 0.777030 0.238570
C46   C     C_3   0.625694 0.192869 0.311992 -0.838668
H28   H     H_    0.693318 0.162773 0.311781 0.227362
H29   H     H_    0.596582 0.183510 0.223012 0.238688
H30   H     H_    0.636489 0.277297 0.345040 0.244752
C47   C     C_3   0.614002 0.961129 0.277036 -0.901203
H31   H     H_    0.636385 0.007181 0.210917 0.245029
H32   H     H_    0.672948 0.925822 0.311450 0.228769
H33   H     H_    0.567047 0.898378 0.231010 0.230237
C48   C     C_3   0.385565 0.038806 0.722675 -0.900975
H34   H     H_    0.362883 0.992727 0.788640 0.244953
H35   H     H_    0.432490 0.101474 0.768946 0.230182
H36   H     H_    0.326755 0.074221 0.688032 0.228730
C49   C     C_3   0.392371 0.377357 0.784443 -0.833469
H37   H     H_    0.388644 0.370586 0.692254 0.283121
H38   H     H_    0.406115 0.298016 0.802935 0.193289
H39   H     H_    0.325303 0.397838 0.812826 0.201798
C50   C     C_3   0.607629 0.622643 0.215557 -0.833484
H40   H     H_    0.611355 0.629414 0.307746 0.283100
H41   H     H_    0.674697 0.602161 0.187176 0.201790
H42   H     H_    0.593886 0.701984 0.197065 0.193308
H43   H     H_    0.620131 0.637474 0.806041 0.140588
H44   H     H_    0.379870 0.362524 0.193959 0.140595

loop_
_geom_bond_atom_site_label_1
_geom_bond_atom_site_label_2
_ccdc_geom_bond_type
C40   H4    S    
C38   H16   S    
C50   H40   S    
C37   H15   S    
C27   C29   A    
C19   C50   S    
C24   C27   S    
C26   C40   S    
C45   H27   S    
C6    C9    A    
C49   H37   S    
Cu1   N1    S    
C46   H28   S    
C2    O4    A    
C48   H34   S    
C48   H36   S    
C19   C21   A    
C23   O7    A    
Cu2   O7    S    
C7    C47   S    
C12   H23   S    
C15   C17   A    
C16   H8    S    
C41   H10   S    
Cu2   O6    S    
C17   N2    A    
C4    C44   S    
C9    C46   S    
C1    O1    A    
C15   C22   A    
C20   C49   S    
C2    O2    A    
C42   H13   S    
C31   C33   A    
C32   C38   A    
C47   H32   S    
C19   N2    A    
Cu2   N2    S    
C4    C35   A    
C50   H41   S    
C21   C22   A    
C49   H38   S    
C20   N1    A    
C46   H29   S    
C24   O8    A    
Cu2   O3    S    
C29   C41   S    
C23   O5    A    
C1    C6    S    
C24   O6    A    
C5    C12   A    
C18   N1    A    
C6    C11   A    
C43   H18   S    
Cu1   O1    S    
C45   H25   S    
C7    C14   A    
C39   H1    S    
C39   H2    S    
C32   C34   A    
C41   H11   S    
C3    C43   S    
C44   H20   S    
C25   C39   S    
Cu2   O2    S    
C42   H14   S    
C33   C34   A    
C23   C28   S    
C47   H33   S    
C44   H21   S    
C25   C35   A    
Cu1   O4    S    
C26   C36   A    
C4    C38   A    
C50   H42   S    
C40   H5    S    
C2    C5    S    
Cu1   Cu2   S    
C49   H39   S    
Cu1   O5    S    
C46   H30   S    
C7    C9    A    
C15   H7    S    
C8    C10   A    
C8    C48   S    
C20   C22   A    
C45   H26   S    
C43   H19   S    
C16   C21   A    
C25   C27   A    
C10   C45   S    
C26   C28   A    
C39   H3    S    
C28   C30   A    
C12   C14   A    
C18   H43   S    
C5    C10   A    
C29   C31   A    
C17   H44   S    
C30   C32   A    
C11   C13   A    
C1    O3    A    
C48   H35   S    
C3    C36   A    
C33   C35   A    
C34   C36   A    
C41   H9    S    
C44   H22   S    
C30   C42   S    
C11   H24   S    
C8    C13   A    
C31   C37   A    
C43   H17   S    
Cu1   O8    S    
C3    C37   A    
C16   C18   A    
C42   H12   S    
C40   H6    S    
C47   H31   S    
C13   C14   A    
