data_mof_unit_58336.cif
_audit_creation_date              2012-12-10T17:57:49-0500
_audit_creation_method            fapswitch 2.2
_symmetry_space_group_name_H-M    P1
_symmetry_Int_Tables_number       1
_space_group_crystal_system       triclinic
_cell_length_a                    11.005031
_cell_length_b                    9.71252
_cell_length_c                    14.994283
_cell_angle_alpha                 92.438775
_cell_angle_beta                  92.141317
_cell_angle_gamma                 89.859283
_cell_volume                      1600.11733951

loop_
_atom_site_label
_atom_site_type_symbol
_atom_type_description
_atom_site_fract_x
_atom_site_fract_y
_atom_site_fract_z
_atom_type_partial_charge
C1    C     C_R   0.262435 0.500146 0.498055 0.870015
C2    C     C_R   0.737250 0.499800 0.498036 0.870796
C3    C     C_R   0.281822 0.475729 0.038626 -0.275703
C4    C     C_R   0.704573 0.614191 0.960486 -0.273925
C5    C     C_R   0.062674 0.375452 0.487354 0.342999
C6    C     C_R   0.934788 0.623874 0.485518 0.295867
C7    C     C_R   0.936787 0.375336 0.495419 0.292463
C8    C     C_R   0.062264 0.625421 0.493863 0.270031
C9    C     C_R   0.871119 0.499689 0.493695 -0.356737
C10   C     C_R   0.127874 0.500482 0.493478 -0.345658
C11   C     C_R   0.463336 0.066495 0.426031 0.419127
C12   C     C_R   0.533360 0.930954 0.575968 0.333848
C13   C     C_R   0.543338 0.080896 0.574475 0.338558
C14   C     C_R   0.442583 0.921057 0.432395 0.318285
C15   C     C_R   0.500481 0.498257 0.329038 0.872290
C16   C     C_R   0.500956 0.502932 0.670380 0.904347
C17   C     C_R   0.602058 0.566483 0.815679 0.395856
C18   C     C_R   0.396271 0.465947 0.180719 0.394160
C19   C     C_R   0.500821 0.510998 0.766648 -0.258532
C20   C     C_R   0.502418 0.498492 0.231705 -0.285028
C21   C     C_R   0.395817 0.470750 0.808655 0.340535
C22   C     C_R   0.607079 0.545890 0.190985 0.360905
C23   C     C_R   0.389751 0.491162 0.901813 -0.084932
C24   C     C_R   0.605412 0.561610 0.097601 -0.075678
C25   C     C_R   0.496601 0.529738 0.952487 -0.081615
C26   C     C_R   0.497919 0.527745 0.046463 -0.090778
C27   C     C_R   0.601779 0.570166 0.909336 -0.039313
C28   C     C_R   0.391592 0.489563 0.088816 -0.041468
C29   C     C_R   0.279705 0.476983 0.945932 0.491394
C30   C     C_R   0.707289 0.611796 0.053820 0.511726
Cu1   Cu    Cu3+1 0.500000 0.640660 0.500000 1.028280
Cu2   Cu    Cu3+1 0.500000 0.359340 0.500000 1.035416
H1    H     H_    0.196554 0.461434 0.070705 0.198205
H2    H     H_    0.785379 0.647175 0.928331 0.183116
N1    N     N_R   0.500000 0.852070 0.500000 -0.264664
N2    N     N_R   0.500000 0.147930 0.500000 -0.247641
O1    O     O_R   0.319640 0.618740 0.499990 -0.535174
O2    O     O_R   0.680360 0.381260 0.500010 -0.544420
O3    O     O_R   0.680360 0.618740 0.500010 -0.510167
O4    O     O_R   0.319640 0.381260 0.499990 -0.549193
O5    O     O_R   0.499970 0.618800 0.370260 -0.623899
O6    O     O_R   0.500030 0.381200 0.629740 -0.544557
O7    O     O_R   0.500030 0.618800 0.629740 -0.524779
O8    O     O_R   0.499970 0.381200 0.370260 -0.520944
O9    O     O_3   0.694009 0.631345 0.772483 -0.547154
C31   C     C_3   0.781759 0.533503 0.746094 -0.358247
H3    H     H_    0.857649 0.588318 0.716299 0.182691
H4    H     H_    0.743768 0.459580 0.693990 0.167555
H5    H     H_    0.820314 0.477936 0.804024 0.162407
O10   O     O_3   0.296160 0.415938 0.222332 -0.598921
C32   C     C_3   0.268953 0.280133 0.189145 -0.349633
H6    H     H_    0.322016 0.241455 0.131261 0.153989
H7    H     H_    0.286621 0.208649 0.242655 0.212228
H8    H     H_    0.170815 0.273672 0.169802 0.173862
O11   O     O_3   0.295712 0.425677 0.756727 -0.556235
C33   C     C_3   0.291940 0.280399 0.755836 -0.225434
H9    H     H_    0.374446 0.233982 0.726581 0.162234
H10   H     H_    0.212444 0.244923 0.713426 0.175492
H11   H     H_    0.280726 0.241814 0.823820 0.159208
O12   O     O_3   0.709925 0.579968 0.243176 -0.551371
C34   C     C_3   0.780960 0.460257 0.254638 -0.260333
H12   H     H_    0.781565 0.389919 0.193867 0.157195
H13   H     H_    0.749797 0.404943 0.312603 0.151444
H14   H     H_    0.876671 0.490836 0.269666 0.176574
O13   O     O_3   0.169646 0.459195 0.899434 -0.553415
C35   C     C_3   0.114839 0.589616 0.891015 -0.276741
H15   H     H_    0.028118 0.576362 0.851617 0.177247
H16   H     H_    0.173137 0.660080 0.854469 0.154350
H17   H     H_    0.092994 0.636904 0.957450 0.153085
O14   O     O_3   0.813336 0.648982 0.101185 -0.545465
C36   C     C_3   0.826373 0.793448 0.101532 -0.308868
H18   H     H_    0.904057 0.823625 0.147457 0.181973
H19   H     H_    0.743903 0.847346 0.126297 0.154975
H20   H     H_    0.847490 0.828228 0.034146 0.143254
O15   O     O_3   0.120329 0.249525 0.477899 -0.576076
C37   C     C_3   0.140412 0.219974 0.386559 0.128352
H21   H     H_    0.209488 0.137012 0.382970 0.216073
H22   H     H_    0.177581 0.310557 0.353913 0.175097
C38   C     C_3   0.025940 0.167792 0.335116 -0.858285
H23   H     H_    0.962108 0.254107 0.323082 0.239006
H24   H     H_    0.050248 0.120896 0.269402 0.194571
H25   H     H_    0.980310 0.089313 0.373308 0.283800
O16   O     O_3   0.872110 0.745540 0.472750 -0.553470
C39   C     C_3   0.891592 0.790626 0.385984 0.131512
H26   H     H_    0.905404 0.704762 0.335881 0.162462
H27   H     H_    0.972857 0.857730 0.387565 0.166579
C40   C     C_3   0.781836 0.872472 0.354333 -0.774562
H28   H     H_    0.767821 0.964263 0.399204 0.235270
H29   H     H_    0.796088 0.907589 0.286166 0.195779
H30   H     H_    0.699486 0.806653 0.353265 0.283714
O17   O     O_3   0.878021 0.250054 0.495696 -0.546370
C41   C     C_3   0.891763 0.198382 0.581858 0.101050
H31   H     H_    0.826888 0.252198 0.625559 0.180307
H32   H     H_    0.985265 0.211858 0.612296 0.140499
C42   C     C_3   0.864751 0.045457 0.576456 -0.699123
H33   H     H_    0.922152 0.994419 0.526367 0.266672
H34   H     H_    0.882502 0.000699 0.642532 0.184530
H35   H     H_    0.769953 0.026021 0.553746 0.252187
O18   O     O_3   0.121815 0.750402 0.496362 -0.521202
C43   C     C_3   0.116962 0.810103 0.583538 0.108128
H36   H     H_    0.169928 0.747424 0.631606 0.121532
H37   H     H_    0.022344 0.817677 0.606755 0.150692
C44   C     C_3   0.169534 0.954503 0.583718 -0.765183
H38   H     H_    0.119689 0.015610 0.534078 0.295402
H39   H     H_    0.163711 0.005736 0.650989 0.166240
H40   H     H_    0.264853 0.950674 0.563424 0.245860
O19   O     O_3   0.442544 0.126849 0.345021 -0.567637
C45   C     C_3   0.516554 0.064906 0.278233 0.052614
H41   H     H_    0.460801 0.049090 0.215448 0.147028
H42   H     H_    0.555612 0.963340 0.294280 0.107312
C46   C     C_3   0.623583 0.155925 0.259649 -0.807867
H43   H     H_    0.590874 0.249241 0.226880 0.243571
H44   H     H_    0.675138 0.183062 0.322961 0.266683
H45   H     H_    0.685124 0.100460 0.213322 0.184994
O20   O     O_3   0.540195 0.867153 0.656608 -0.540658
C47   C     C_3   0.425719 0.880291 0.697341 0.100788
H46   H     H_    0.361366 0.803934 0.666084 0.186014
H47   H     H_    0.384830 0.984428 0.690261 0.072607
C48   C     C_3   0.438060 0.855750 0.797425 -0.830892
H48   H     H_    0.394365 0.941123 0.836202 0.187199
H49   H     H_    0.391341 0.759314 0.812901 0.219716
H50   H     H_    0.534967 0.850251 0.820350 0.283637
O21   O     O_3   0.608433 0.162240 0.640202 -0.550722
C49   C     C_3   0.635492 0.102240 0.723183 0.095047
H51   H     H_    0.693732 0.009509 0.715203 0.208610
H52   H     H_    0.550641 0.083036 0.757041 0.176510
C50   C     C_3   0.704699 0.200657 0.787998 -0.902407
H53   H     H_    0.653065 0.297289 0.796821 0.254101
H54   H     H_    0.714456 0.153775 0.854190 0.218371
H55   H     H_    0.797304 0.221377 0.765821 0.229940
O22   O     O_3   0.328868 0.873225 0.401515 -0.543066
C51   C     C_3   0.327698 0.808479 0.315325 0.228828
H56   H     H_    0.300425 0.699475 0.321436 0.192029
H57   H     H_    0.415575 0.809002 0.281718 0.094405
C52   C     C_3   0.229943 0.872154 0.255777 -0.902241
H58   H     H_    0.251560 0.981028 0.245410 0.233183
H59   H     H_    0.224709 0.815507 0.189819 0.212924
H60   H     H_    0.140268 0.866238 0.286828 0.256976

loop_
_geom_bond_atom_site_label_1
_geom_bond_atom_site_label_2
_ccdc_geom_bond_type
C52   H60   S    
C35   H16   S    
C40   H28   S    
C42   H33   S    
C39   C40   S    
O11   C33   S    
C6    C9    A    
C42   H35   S    
C21   O11   S    
O21   C49   S    
O9    C31   S    
C33   H9    S    
C31   H5    S    
Cu1   O7    S    
C23   C29   A    
C11   N2    A    
C19   C21   A    
C8    O18   S    
C17   O9    S    
C15   O8    A    
C16   C19   S    
C22   O12   S    
C13   O21   S    
C11   C14   A    
C35   H17   S    
C3    H1    S    
O20   C47   S    
C45   H41   S    
C34   H13   S    
C3    C29   A    
C43   H36   S    
C1    O4    A    
C2    O3    A    
Cu1   Cu2   S    
C47   H47   S    
C51   H56   S    
O19   C45   S    
C37   C38   S    
O14   C36   S    
Cu2   O2    S    
C44   H40   S    
C18   C20   A    
C1    O1    A    
C12   O20   S    
C23   C25   A    
C35   H15   S    
Cu2   N2    S    
C43   H37   S    
C30   O14   S    
C31   H4    S    
C14   O22   S    
C48   H49   S    
C15   C20   S    
C4    H2    S    
C37   H22   S    
C32   H6    S    
C17   C27   A    
C47   C48   S    
C52   H58   S    
C18   C28   A    
C37   H21   S    
C15   O5    A    
C13   N2    A    
C44   H39   S    
O17   C41   S    
C5    C7    A    
C6    C8    A    
C25   C26   A    
C41   C42   S    
Cu1   O1    S    
O12   C34   S    
C32   H7    S    
C5    O15   S    
C34   H14   S    
O15   C37   S    
C50   H54   S    
C36   H20   S    
C2    O2    A    
O16   C39   S    
C7    O17   S    
C41   H32   S    
O10   C32   S    
Cu2   O8    S    
C46   H44   S    
C42   H34   S    
C39   H26   S    
C12   N1    A    
C16   O7    A    
C49   C50   S    
C29   O13   S    
C8    C10   A    
C20   C22   A    
C40   H29   S    
C11   O19   S    
C22   C24   A    
C50   H53   S    
C16   O6    A    
C14   N1    A    
C4    C27   A    
C18   O10   S    
C49   H52   S    
C48   H50   S    
C52   H59   S    
C31   H3    S    
C3    C28   A    
C6    O16   S    
Cu1   O5    S    
C46   H43   S    
C26   C28   A    
C1    C10   S    
C24   C26   A    
C38   H25   S    
C48   H48   S    
C45   C46   S    
C25   C27   A    
C38   H24   S    
C33   H11   S    
C32   H8    S    
C21   C23   A    
C50   H55   S    
C36   H18   S    
O18   C43   S    
C45   H42   S    
C51   C52   S    
C41   H31   S    
C17   C19   A    
C33   H10   S    
C47   H46   S    
C46   H45   S    
Cu1   N1    S    
Cu2   O4    S    
C43   C44   S    
C34   H12   S    
C24   C30   A    
C38   H23   S    
C7    C9    A    
C5    C10   A    
C12   C13   A    
C51   H57   S    
O13   C35   S    
C40   H30   S    
C36   H19   S    
C44   H38   S    
Cu1   O3    S    
Cu2   O6    S    
C39   H27   S    
C2    C9    S    
C4    C30   A    
O22   C51   S    
C49   H51   S    
