data_mof_unit_42521.cif
_audit_creation_date              2013-03-05T15:52:44-0500
_audit_creation_method            fapswitch 2.2
_symmetry_space_group_name_H-M    P1
_symmetry_Int_Tables_number       1
_space_group_crystal_system       triclinic
_cell_length_a                    10.088428
_cell_length_b                    10.618331
_cell_length_c                    13.309898
_cell_angle_alpha                 92.649036
_cell_angle_beta                  74.008245
_cell_angle_gamma                 87.864421
_cell_volume                      1367.28876857

loop_
_atom_site_label
_atom_site_type_symbol
_atom_site_description
_atom_site_fract_x
_atom_site_fract_y
_atom_site_fract_z
_atom_type_partial_charge
O1    O     O_R   0.385310 0.683220 0.500000 -0.582672
O2    O     O_R   0.614640 0.683250 0.500010 -0.547709
C1    C     C_R   0.502401 0.737129 0.484216 1.036129
O3    O     O_R   0.328400 0.499950 0.653610 -0.608148
O4    O     O_R   0.557730 0.499970 0.653620 -0.623891
C2    C     C_R   0.428126 0.479487 0.698368 0.969517
Zn1   Zn    Zn3+2 0.346880 0.499980 0.499990 1.024676
Zn2   Zn    Zn3+2 0.653120 0.500020 0.500010 1.041926
O5    O     O_R   0.385360 0.316750 0.499990 -0.619464
O6    O     O_R   0.614690 0.316780 0.500000 -0.613854
O7    O     O_R   0.442270 0.500030 0.346380 -0.609805
O8    O     O_R   0.671600 0.500050 0.346390 -0.600813
C3    C     C_R   0.503235 0.259274 0.498894 0.858922
C4    C     C_R   0.575444 0.498666 0.297820 0.922096
C5    C     C_R   0.796842 0.451314 0.018724 -0.192421
H1    H     H_    0.843216 0.386270 0.819857 0.163077
H2    H     H_    0.904107 0.450795 0.974256 0.167344
C6    C     C_R   0.619730 0.483146 0.183552 -0.088944
C7    C     C_R   0.256343 0.414382 0.858211 -0.232838
C8    C     C_R   0.221183 0.403062 0.966053 0.190098
C9    C     C_R   0.313107 0.446246 0.019630 0.112189
C10   C     C_R   0.454398 0.424971 0.969207 0.027021
C11   C     C_R   0.495935 0.413732 0.858708 0.074390
C12   C     C_R   0.555701 0.433517 0.023861 0.104529
C13   C     C_R   0.696467 0.423803 0.968223 0.131819
C14   C     C_R   0.735258 0.393828 0.861489 -0.179392
C15   C     C_R   0.636425 0.385033 0.807083 -0.142297
C16   C     C_R   0.520062 0.456139 0.132139 -0.225815
C17   C     C_R   0.759285 0.486888 0.124949 0.250271
C18   C     C_R   0.393734 0.436163 0.805421 -0.147625
H3    H     H_    0.413270 0.456106 0.176517 0.207305
H4    H     H_    0.180666 0.397955 0.815642 0.169988
H5    H     H_    0.672208 0.356739 0.724799 0.190610
C19   C     C_R   0.257727 0.922086 0.460423 0.167967
C20   C     C_R   0.141603 0.005988 0.501718 0.221615
C21   C     C_R   0.144688 0.097854 0.580216 0.180633
C22   C     C_R   0.269489 0.122218 0.600753 -0.126626
H6    H     H_    0.274070 0.202344 0.652923 0.156694
C23   C     C_R   0.390417 0.059956 0.536599 -0.004477
C24   C     C_R   0.378574 0.942364 0.491905 -0.002374
C25   C     C_R   0.500228 0.867787 0.455548 -0.232303
C26   C     C_R   0.617965 0.924699 0.398250 0.279780
C27   C     C_R   0.619579 0.057477 0.410708 0.112737
C28   C     C_R   0.511375 0.122697 0.490607 -0.165366
H7    H     H_    0.928179 0.375998 0.367948 0.179756
C29   C     C_R   0.798996 0.631331 0.669069 0.247949
C30   C     C_R   0.830979 0.648111 0.765183 0.045801
C31   C     C_R   0.968358 0.632714 0.767058 -0.004751
C32   C     C_R   0.071387 0.620900 0.671294 0.283850
C33   C     C_R   0.040025 0.562128 0.582607 -0.047194
C34   C     C_R   0.896428 0.563970 0.582153 -0.002562
N1    N     N_R   0.856860 0.501200 0.500990 -0.119836
C35   C     C_R   0.957488 0.433143 0.426862 -0.040745
C36   C     C_R   0.098508 0.431273 0.427361 0.234504
N2    N     N_R   0.142450 0.501280 0.501020 -0.124735
I1    I     I_    0.918803 0.554453 0.185405 -0.132813
I2    I     I_    0.258955 0.787369 0.336437 -0.122979
I3    I     I_    0.962630 0.993823 0.450709 -0.070389
I4    I     I_    0.971602 0.214389 0.657672 -0.349387
I5    I     I_    0.753944 0.158898 0.291127 -0.154690
N3    N     N_R   0.704863 0.725716 0.651391 0.260180
O9    O     O_R   0.576619 0.735302 0.707700 -0.323854
O10   O     O_R   0.755639 0.822359 0.600446 -0.337695
I6    I     I_    0.680412 0.738000 0.899305 -0.058337
I7    I     I_    0.026268 0.696592 0.902938 -0.081118
N4    N     N_R   0.157837 0.725808 0.656448 0.244722
O11   O     O_R   0.096197 0.832662 0.648623 -0.390331
O12   O     O_R   0.258938 0.730322 0.699441 -0.311986
I8    I     I_    0.230639 0.297759 0.319866 -0.274012
I9    I     I_    0.272584 0.638378 0.074537 -0.117631
I10   I     I_    0.093090 0.256220 0.027534 -0.208386
N5    N     N_R   0.711025 0.853099 0.311203 0.232116
O13   O     O_R   0.842043 0.872643 0.281683 -0.275027
O14   O     O_R   0.661200 0.775477 0.254159 -0.394913

loop_
_geom_bond_atom_site_label_1
_geom_bond_atom_site_label_2
_geom_bond_distance
_ccdc_geom_bond_type
N4    O12   1.301054 A    
C25   C26   1.398066 A    
C4    C6    1.461797 S    
C7    C8    1.392527 A    
Zn1   N2    2.058170 S    
C21   I4    2.090984 S    
C35   C36   1.423914 A    
C15   H5    1.078739 S    
Zn1   O7    2.005553 S    
C14   C15   1.387727 A    
C20   I3    2.102939 S    
C19   C24   1.414558 A    
C21   C22   1.390765 A    
O4    C2    1.309835 A    
O7    C4    1.319923 A    
C5    C13   1.393366 A    
C5    H2    1.080607 S    
C19   C20   1.410810 A    
N3    O10   1.298979 A    
O5    C3    1.312381 A    
C36   N2    1.380919 A    
C1    C25   1.456761 S    
C20   C21   1.403598 A    
C19   I2    2.130474 S    
C8    I10   2.110964 S    
C11   C15   1.409131 A    
C31   I7    2.137882 S    
Zn2   N1    2.059547 S    
N4    O11   1.295735 A    
H7    C35   1.080563 S    
C9    C10   1.402888 A    
O3    Zn1   2.001361 S    
C7    H4    1.083262 S    
C5    C17   1.389247 A    
H1    C14   1.075417 S    
C32   N4    1.427711 S    
C29   N3    1.426750 S    
C34   N1    1.400516 A    
C11   C18   1.422339 A    
C6    C16   1.394268 A    
C12   C13   1.406522 A    
N5    O14   1.300684 A    
C23   C24   1.381609 A    
C13   C14   1.383911 A    
C29   C34   1.435488 A    
O1    C1    1.300750 A    
C27   C28   1.427614 A    
C22   H6    1.083584 S    
C30   C31   1.396684 A    
Zn2   O8    2.001362 S    
C26   N5    1.437987 S    
C33   C34   1.449749 A    
C6    C17   1.412130 A    
C27   I5    2.146839 S    
O3    C2    1.319173 A    
C31   C32   1.402226 A    
C2    C18   1.470491 S    
O8    C4    1.305705 A    
C10   C12   1.411486 A    
C26   C27   1.413186 A    
C30   I6    2.155323 S    
N1    C35   1.361549 A    
Zn1   O5    1.969711 S    
C29   C30   1.408200 A    
C24   C25   1.390109 A    
O1    Zn1   1.998072 S    
C16   H3    1.076567 S    
O2    Zn2   1.969710 S    
C12   C16   1.392846 A    
N5    O13   1.298589 A    
O6    C3    1.302621 A    
O4    Zn2   2.005553 S    
C23   C28   1.412213 A    
C17   I1    2.120887 S    
C33   N2    1.389785 A    
C9    I9    2.121016 S    
O2    C1    1.321982 A    
C22   C23   1.402944 A    
C36   I8    2.110590 S    
N3    O9    1.301841 A    
C8    C9    1.394508 A    
Zn2   O6    1.998073 S    
C32   C33   1.426660 A    
C10   C11   1.411869 A    
C7    C18   1.403797 A    
C3    C28   1.446853 S    
