data_mof_unit_16648.cif
_audit_creation_date              2012-12-11T14:06:40-0500
_audit_creation_method            fapswitch 2.2
_symmetry_space_group_name_H-M    P1
_symmetry_Int_Tables_number       1
_space_group_crystal_system       triclinic
_cell_length_a                    6.924798
_cell_length_b                    17.282466
_cell_length_c                    24.124102
_cell_angle_alpha                 104.575367
_cell_angle_beta                  90.428552
_cell_angle_gamma                 90.016778
_cell_volume                      2794.11438135

loop_
_atom_site_label
_atom_site_type_symbol
_atom_type_description
_atom_site_fract_x
_atom_site_fract_y
_atom_site_fract_z
_atom_type_partial_charge
O1    O     O_R   0.494290 0.391990 0.999150 -0.534603
O2    O     O_R   0.827170 0.534410 0.082350 -0.542654
O3    O     O_R   0.994360 0.608010 0.000850 -0.534175
C1    C     C_R   0.658501 0.549767 0.106185 0.704999
O4    O     O_R   0.824210 0.388010 0.004470 -0.547524
O5    O     O_R   0.991370 0.460560 0.922410 -0.541035
C2    C     C_R   0.654568 0.354736 0.001087 0.773249
O6    O     O_R   0.497270 0.539440 0.077590 -0.540605
O7    O     O_3   0.659770 0.523970 0.973170 -0.370000
V1    V     V_3+5 0.935840 0.495550 0.004980 1.405482
O8    O     O_R   0.320910 0.465590 0.917650 -0.543487
C3    C     C_R   0.151093 0.449556 0.893989 0.705805
O9    O     O_R   0.323870 0.611990 0.995530 -0.545328
C4    C     C_R   0.154428 0.645134 0.998525 0.778441
V2    V     V_3+5 0.435470 0.504450 0.995020 1.409443
O10   O     O_3   0.161670 0.476030 0.026830 -0.372115
C5    C     C_2   0.142795 0.730300 0.998104 -0.340271
C6    C     C_2   0.972759 0.769753 0.002032 -0.342003
H1    H     H_    0.838355 0.738862 0.005409 0.151140
C7    C     C_R   0.049208 0.242198 0.628610 0.548454
N1    N     N_R   0.081722 0.322531 0.649873 -0.556457
C8    C     C_R   0.090191 0.373121 0.614584 0.576130
C9    C     C_R   0.067473 0.343598 0.555134 -0.021839
C10   C     C_R   0.035923 0.260981 0.531973 -0.034113
C11   C     C_R   0.020557 0.208916 0.568797 -0.050756
C12   C     C_R   0.073576 0.395202 0.518492 -0.153947
C13   C     C_R   0.049495 0.365615 0.459529 -0.138481
C14   C     C_R   0.022805 0.283416 0.435532 -0.020242
C15   C     C_R   0.017337 0.230975 0.471736 -0.019557
C16   C     C_R   0.992785 0.148764 0.447644 -0.050750
C17   C     C_R   0.972748 0.097508 0.483951 -0.170883
C18   C     C_R   0.977031 0.126477 0.543935 0.060415
C19   C     C_R   0.001051 0.252474 0.375979 0.571169
N2    N     N_R   0.988789 0.171347 0.352513 -0.551869
C20   C     C_R   0.985018 0.119603 0.387475 0.579516
O11   O     O_2   0.050289 0.195207 0.665457 -0.537784
O12   O     O_2   0.119483 0.452037 0.637081 -0.513258
H2    H     H_    0.096102 0.458863 0.535278 0.171383
H3    H     H_    0.054386 0.407365 0.432768 0.179095
O13   O     O_2   0.990625 0.303516 0.341942 -0.520170
O14   O     O_2   0.976781 0.040009 0.364348 -0.519502
H4    H     H_    0.945077 0.034456 0.465612 0.167408
C21   C     C_R   0.842973 0.085796 0.263206 -0.087800
H5    H     H_    0.733483 0.065413 0.288072 0.153826
C22   C     C_R   0.840396 0.057029 0.203519 -0.238614
C23   C     C_R   0.974559 0.084410 0.169154 -0.081155
C24   C     C_R   0.112463 0.142979 0.196386 0.041041
C25   C     C_R   0.120298 0.167342 0.256580 -0.112920
H6    H     H_    0.229162 0.210249 0.277214 0.147910
C26   C     C_R   0.984727 0.140595 0.290569 0.333412
C27   C     C_R   0.938552 0.361014 0.745959 -0.095039
H7    H     H_    0.798499 0.341820 0.727198 0.112434
C28   C     C_R   0.955402 0.392102 0.805131 -0.197252
H8    H     H_    0.826472 0.395807 0.830796 0.130070
C29   C     C_R   0.135909 0.417444 0.830771 -0.057227
C30   C     C_R   0.299214 0.410790 0.795423 -0.198839
H9    H     H_    0.440231 0.429495 0.813619 0.131474
C31   C     C_R   0.281665 0.379957 0.735965 -0.083932
H10   H     H_    0.408530 0.375239 0.709356 0.117937
C32   C     C_R   0.101137 0.354789 0.710957 0.391985
C33   C     C_R   0.504911 0.878767 0.611917 0.519880
N3    N     N_R   0.495972 0.828020 0.647478 -0.553150
C34   C     C_R   0.506452 0.746684 0.625552 0.585240
C35   C     C_R   0.528047 0.713733 0.566115 -0.034461
C36   C     C_R   0.535355 0.765236 0.529272 -0.011754
C37   C     C_R   0.520598 0.848374 0.552157 -0.014675
C38   C     C_R   0.544288 0.630776 0.542724 -0.138020
C39   C     C_R   0.568556 0.599580 0.483750 -0.151583
C40   C     C_R   0.575994 0.650477 0.446549 -0.030772
C41   C     C_R   0.558299 0.733590 0.469426 -0.018399
C42   C     C_R   0.563673 0.785176 0.432592 -0.027321
C43   C     C_R   0.544931 0.867998 0.455868 -0.133049
C44   C     C_R   0.523152 0.899120 0.514850 -0.190280
C45   C     C_R   0.599461 0.620443 0.386901 0.574360
N4    N     N_R   0.603689 0.671403 0.351520 -0.563572
C46   C     C_R   0.586279 0.752455 0.373263 0.577823
O15   O     O_2   0.499925 0.958577 0.634277 -0.546484
O16   O     O_2   0.499719 0.697782 0.661142 -0.511023
H11   H     H_    0.539251 0.589635 0.569939 0.179306
O17   O     O_2   0.616172 0.540973 0.364473 -0.512793
O18   O     O_2   0.590846 0.801321 0.337607 -0.510765
H12   H     H_    0.546930 0.909111 0.428600 0.176582
C47   C     C_R   0.798401 0.616084 0.264740 -0.081287
C48   C     C_R   0.812448 0.586918 0.205023 -0.196779
H13   H     H_    0.952852 0.569801 0.186511 0.129092
C49   C     C_R   0.646758 0.580085 0.169793 -0.059477
C50   C     C_R   0.467197 0.603092 0.196031 -0.192931
H14   H     H_    0.336309 0.598955 0.170601 0.130990
C51   C     C_R   0.453802 0.632520 0.255483 -0.093550
H15   H     H_    0.314477 0.650295 0.274567 0.114378
C52   C     C_R   0.618946 0.639338 0.290295 0.386805
C53   C     C_R   0.322896 0.847788 0.739799 -0.108700
H16   H     H_    0.202823 0.812717 0.717750 0.136926
C54   C     C_R   0.315142 0.879285 0.799288 -0.233426
C55   C     C_R   0.468880 0.925017 0.829620 -0.073698
C56   C     C_R   0.630977 0.941231 0.797783 0.036394
C57   C     C_R   0.636912 0.907425 0.738213 -0.112191
H17   H     H_    0.760572 0.917638 0.713851 0.116476
C58   C     C_R   0.484873 0.860948 0.708894 0.353178
C59   C     C_2   0.642964 0.269379 0.000980 -0.356264
C60   C     C_2   0.472832 0.229707 0.996508 -0.359285
H18   H     H_    0.338352 0.260410 0.992732 0.152711
O19   O     O_R   0.618210 0.960470 0.922400 -0.538745
O20   O     O_R   0.291310 0.111960 0.995450 -0.551699
O21   O     O_R   0.124210 0.039530 0.077580 -0.535510
C61   C     C_R   0.461076 0.144848 0.997769 0.766288
O22   O     O_R   0.288310 0.965490 0.917650 -0.544261
O23   O     O_R   0.121180 0.892010 0.999220 -0.531938
C62   C     C_R   0.457672 0.952624 0.893627 0.699795
O24   O     O_R   0.621230 0.107990 0.000760 -0.531816
O25   O     O_3   0.455770 0.976060 0.026840 -0.368228
V3    V     V_3+5 0.179680 0.004440 0.995020 1.378916
O26   O     O_R   0.791670 0.888040 0.004570 -0.543411
C63   C     C_R   0.961117 0.854906 0.001583 0.783695
O27   O     O_R   0.794680 0.034510 0.082370 -0.544733
C64   C     C_R   0.963922 0.052198 0.105817 0.702985
V4    V     V_3+5 0.680070 0.995560 0.005010 1.390898
O28   O     O_3   0.953840 0.023940 0.973160 -0.379256
H19   H     H_    0.277199 0.761193 0.994729 0.151728
H20   H     H_    0.581196 0.535415 0.467426 0.170734
H21   H     H_    0.506967 0.963099 0.531056 0.150307
H22   H     H_    0.927325 0.621208 0.291099 0.116946
H23   H     H_    0.189185 0.866532 0.821865 0.137012
C65   C     C_3   0.796321 0.996540 0.824121 -0.354348
C66   C     C_3   0.729087 0.083817 0.843449 -0.277024
C67   C     C_3   0.897263 0.140128 0.866582 -0.736293
H24   H     H_    0.964258 0.124637 0.904311 0.238163
H25   H     H_    0.008189 0.136408 0.832988 0.230231
H26   H     H_    0.843848 0.202606 0.879918 0.207151
H27   H     H_    0.663061 0.101798 0.806434 0.204834
H28   H     H_    0.618388 0.090647 0.877329 0.181623
H29   H     H_    0.865689 0.976643 0.859636 0.202638
H30   H     H_    0.913089 0.993617 0.792214 0.166468
H31   H     H_    0.777382 0.238636 0.004788 0.153201
C68   C     C_3   0.912092 0.068751 0.578169 -0.315127
C69   C     C_3   0.080854 0.021417 0.594585 -0.232861
C70   C     C_3   0.012087 0.970574 0.634007 -0.693120
H32   H     H_    0.949556 0.009366 0.673612 0.240007
H33   H     H_    0.902010 0.926781 0.611758 0.222676
H34   H     H_    0.134176 0.936987 0.646401 0.231035
H35   H     H_    0.142382 0.981588 0.555201 0.182278
H36   H     H_    0.197009 0.062325 0.616542 0.251036
H37   H     H_    0.827018 0.099907 0.615993 0.225559
H38   H     H_    0.808357 0.025223 0.552137 0.159023
H39   H     H_    0.731196 0.013579 0.184027 0.142536
C71   C     C_3   0.238707 0.188365 0.164276 -0.373140
C72   C     C_3   0.451643 0.164301 0.165656 -0.285691
C73   C     C_3   0.584023 0.227905 0.152422 -0.728411
H40   H     H_    0.539617 0.241900 0.111870 0.221909
H41   H     H_    0.577817 0.283493 0.187552 0.239587
H42   H     H_    0.735233 0.206325 0.148320 0.212796
H43   H     H_    0.492282 0.156466 0.208557 0.197906
H44   H     H_    0.474362 0.106479 0.133668 0.216435
H45   H     H_    0.190340 0.180931 0.119318 0.166443
H46   H     H_    0.222786 0.253316 0.184851 0.192285

loop_
_geom_bond_atom_site_label_1
_geom_bond_atom_site_label_2
_ccdc_geom_bond_type
C50   H14   S    
N4    C46   A    
C67   H24   S    
C17   H4    S    
O22   V3    S    
O21   C64   A    
C55   C56   A    
C73   H42   S    
C29   C30   A    
C6    C63   S    
O20   C61   A    
C57   H17   S    
C68   C69   S    
O19   V4    S    
C28   H8    S    
C70   H33   S    
C12   C13   A    
C60   H18   S    
C65   H30   S    
C47   C48   A    
C22   H39   S    
C14   C15   A    
C48   C49   A    
O26   C63   A    
O5    C3    A    
C16   C17   A    
C1    C49   S    
C7    C11   A    
C31   C32   A    
O27   C64   A    
C6    H1    S    
C30   H9    S    
C65   H29   S    
N2    C20   A    
C9    C12   A    
O23   C63   A    
C10   C15   A    
C59   C60   D    
C69   H36   S    
C72   C73   S    
O8    V2    S    
C66   H27   S    
C71   H46   S    
C17   C18   A    
C33   O15   S    
C39   C40   A    
O27   V4    S    
C9    C10   A    
C41   C42   A    
O1    V2    S    
C51   C52   A    
O7    V1    S    
C33   N3    A    
C1    O6    A    
C54   H23   S    
C11   C18   A    
C68   H37   S    
O19   C62   A    
C24   C71   S    
C45   O17   S    
O9    C4    A    
O22   C62   A    
C4    C5    S    
C40   C41   A    
C20   O14   S    
C33   C37   A    
O24   V4    S    
C57   C58   A    
C59   H31   S    
C5    C6    D    
C28   C29   A    
C70   H34   S    
N2    C26   S    
C19   O13   S    
C2    C59   S    
C56   C65   S    
C38   C39   A    
C35   C38   A    
C48   H13   S    
C38   H11   S    
C10   C11   A    
N1    C32   S    
C55   C62   S    
C13   H3    S    
O20   V3    S    
C49   C50   A    
C12   H2    S    
C67   H26   S    
C31   H10   S    
C22   C23   A    
C37   C44   A    
C27   H7    S    
C27   C28   A    
C36   C41   A    
O2    C1    A    
C21   H5    S    
C15   C16   A    
C66   H28   S    
C24   C25   A    
C71   H45   S    
C56   C57   A    
C7    N1    A    
N3    C34   A    
C53   C54   A    
C19   N2    A    
C40   C45   A    
C73   H40   S    
C21   C22   A    
O3    C4    A    
O26   V4    S    
C16   C20   A    
C68   H38   S    
O21   V3    S    
C14   C19   A    
O6    V2    S    
C44   H21   S    
C50   C51   A    
C66   C67   S    
O2    V1    S    
O4    C2    A    
C71   C72   S    
C61   O24   A    
C60   C61   S    
C23   C24   A    
C25   H6    S    
C67   H25   S    
O25   V3    S    
O1    C2    A    
C73   H41   S    
C43   C44   A    
C46   O18   S    
O5    V1    S    
C18   C68   S    
O8    C3    A    
C21   C26   A    
N4    C52   S    
C47   C52   A    
C70   H32   S    
C23   C64   S    
O25   V4    S    
C35   C36   A    
O9    V2    S    
C72   H43   S    
O7    V2    S    
C42   C43   A    
O3    V1    S    
V1    O10   S    
V4    O28   S    
C39   H20   S    
V3    O28   S    
N3    C58   S    
C8    O12   S    
C42   C46   A    
C25   C26   A    
C53   H16   S    
C69   H35   S    
C30   C31   A    
C47   H22   S    
C54   C55   A    
C72   H44   S    
C3    C29   S    
C5    H19   S    
C34   C35   A    
C7    O11   S    
O23   V3    S    
O4    V1    S    
C45   N4    A    
C36   C37   A    
C13   C14   A    
C8    C9    A    
C69   C70   S    
C27   C32   A    
C51   H15   S    
N1    C8    A    
C43   H12   S    
V2    O10   S    
C53   C58   A    
C65   C66   S    
C34   O16   S    
