data_mof_unit_32845.cif
_audit_creation_date              2012-10-26T19:13:53-0400
_audit_creation_method            fapswitch 2.2
_symmetry_space_group_name_H-M    P1
_symmetry_Int_Tables_number       1
_space_group_crystal_system       triclinic
_cell_length_a                    15.259092
_cell_length_b                    13.801242
_cell_length_c                    10.646126
_cell_angle_alpha                 90.152621
_cell_angle_beta                  90.005198
_cell_angle_gamma                 89.999368
_cell_volume                      2242.00678157

loop_
_atom_site_label
_atom_site_type_symbol
_atom_type_description
_atom_site_fract_x
_atom_site_fract_y
_atom_site_fract_z
_atom_type_partial_charge
C1    C     C_R   0.329635 0.500001 0.500010 0.533383
C2    C     C_R   0.534957 0.791187 0.599019 0.022189
C3    C     C_R   0.499896 0.054412 0.499972 0.022640
C4    C     C_R   0.499897 0.945582 0.500026 0.022622
C5    C     C_R   0.500215 0.499815 0.258978 0.541198
C6    C     C_R   0.500261 0.500185 0.741021 0.541190
C7    C     C_3   0.428193 0.545713 0.042166 -0.129075
C8    C     C_3   0.572081 0.454310 0.958001 -0.127406
C9    C     C_3   0.500222 0.592172 0.959751 -0.114258
C10   C     C_3   0.500178 0.407828 0.040247 -0.114265
C11   C     C_3   0.428186 0.454323 0.957781 -0.129080
C12   C     C_R   0.670683 0.500000 0.499995 0.531906
C13   C     C_3   0.572088 0.545655 0.042048 -0.127375
C14   C     C_3   0.500232 0.500665 0.877767 0.047753
C15   C     C_3   0.500203 0.499335 0.122231 0.047771
C16   C     C_R   0.093833 0.575729 0.556663 -0.118757
C17   C     C_R   0.907564 0.417959 0.538046 -0.118720
C18   C     C_R   0.907560 0.582047 0.461978 -0.118722
C19   C     C_R   0.093826 0.424276 0.443365 -0.118753
C20   C     C_R   0.185272 0.577640 0.558196 -0.021927
C21   C     C_R   0.816112 0.415677 0.539156 -0.020738
C22   C     C_R   0.816107 0.584328 0.460863 -0.020738
C23   C     C_R   0.465473 0.107273 0.601617 -0.156165
C24   C     C_R   0.185266 0.422367 0.441823 -0.021920
C25   C     C_R   0.232744 0.500002 0.500011 0.023587
C26   C     C_R   0.768159 0.500001 0.500003 0.019586
C27   C     C_R   0.048556 0.500001 0.500017 0.002518
C28   C     C_R   0.952795 0.500003 0.500014 0.002405
C29   C     C_3   0.227408 0.663517 0.624992 -0.240275
C30   C     C_3   0.268561 0.634313 0.750817 -0.274111
C31   C     C_3   0.313227 0.720964 0.813061 -0.447311
C32   C     C_3   0.775043 0.321585 0.585125 -0.235473
C33   C     C_3   0.735310 0.332995 0.716695 -0.277750
C34   C     C_R   0.465191 0.892721 0.398571 -0.156143
C35   C     C_3   0.692424 0.238888 0.759919 -0.446984
C36   C     C_3   0.775030 0.678428 0.414924 -0.235461
C37   C     C_3   0.735273 0.667041 0.283355 -0.277725
C38   C     C_3   0.692295 0.761122 0.240217 -0.446895
C39   C     C_3   0.227392 0.336513 0.374978 -0.240286
C40   C     C_3   0.268503 0.365758 0.249154 -0.274152
C41   C     C_3   0.313103 0.279120 0.186803 -0.447387
C42   C     C_R   0.534186 0.106838 0.398204 -0.155193
C43   C     C_R   0.534471 0.893156 0.601605 -0.155204
C44   C     C_R   0.464923 0.209224 0.598950 0.024778
C45   C     C_R   0.464654 0.790770 0.401238 0.024796
C46   C     C_R   0.534684 0.208807 0.400792 0.022219
Cu1   Cu    Cu3+1 0.500000 0.596430 0.500000 0.896730
Cu2   Cu    Cu3+1 0.500000 0.403570 0.500000 0.896779
H1    H     H_    0.369253 0.582532 0.080460 0.093937
H2    H     H_    0.437271 0.930042 0.318671 0.088864
H3    H     H_    0.561828 0.069164 0.318127 0.087335
H4    H     H_    0.562338 0.930830 0.681527 0.087347
H5    H     H_    0.436562 0.248528 0.676918 0.123481
H6    H     H_    0.436085 0.751454 0.323429 0.123418
H7    H     H_    0.562961 0.247801 0.322765 0.117907
H8    H     H_    0.563441 0.752181 0.676890 0.117884
H9    H     H_    0.369242 0.417532 0.919442 0.093941
H10   H     H_    0.631782 0.582553 0.076797 0.095406
H11   H     H_    0.369762 0.745327 0.755510 0.169743
H12   H     H_    0.631769 0.417388 0.923286 0.095416
H13   H     H_    0.266261 0.781855 0.824347 0.138186
H14   H     H_    0.337220 0.700249 0.907471 0.131983
H15   H     H_    0.216465 0.606694 0.814344 0.146190
H16   H     H_    0.317515 0.575768 0.737776 0.181983
H17   H     H_    0.274804 0.701105 0.563172 0.177488
H18   H     H_    0.177370 0.720041 0.645520 0.114872
H19   H     H_    0.639722 0.217322 0.693729 0.175932
H20   H     H_    0.741855 0.179957 0.764978 0.138250
H21   H     H_    0.663317 0.249069 0.854577 0.129286
H22   H     H_    0.787781 0.353087 0.784388 0.144426
H23   H     H_    0.500908 0.667784 0.924461 0.104038
H24   H     H_    0.685599 0.391476 0.717795 0.185959
H25   H     H_    0.727320 0.292644 0.516102 0.173239
H26   H     H_    0.825375 0.263421 0.591043 0.114433
H27   H     H_    0.639556 0.782573 0.306401 0.176059
H28   H     H_    0.741667 0.820122 0.235259 0.138234
H29   H     H_    0.663214 0.750966 0.145526 0.129289
H30   H     H_    0.787745 0.647034 0.215635 0.144395
H31   H     H_    0.685612 0.608510 0.282217 0.185940
H32   H     H_    0.727320 0.707355 0.483965 0.173182
H33   H     H_    0.825358 0.736597 0.409017 0.114405
H34   H     H_    0.500822 0.332215 0.075536 0.103983
H35   H     H_    0.369643 0.254686 0.244295 0.169621
H36   H     H_    0.266107 0.218269 0.175483 0.138211
H37   H     H_    0.337070 0.299872 0.092405 0.132003
H38   H     H_    0.216393 0.393440 0.185686 0.146223
H39   H     H_    0.317487 0.424267 0.262217 0.181979
H40   H     H_    0.274812 0.298914 0.436758 0.177538
H41   H     H_    0.177353 0.279991 0.354444 0.114889
H42   H     H_    0.056902 0.633099 0.602049 0.101276
H43   H     H_    0.944662 0.355500 0.569364 0.101215
H44   H     H_    0.944653 0.644507 0.430667 0.101209
H45   H     H_    0.056890 0.366908 0.397974 0.101281
H46   H     H_    0.437779 0.069952 0.681673 0.088858
N1    N     N_R   0.500000 0.258690 0.500000 -0.221702
N2    N     N_R   0.500000 0.741310 0.500000 -0.221753
O1    O     O_R   0.371460 0.581430 0.500010 -0.507027
O2    O     O_R   0.628540 0.418570 0.499990 -0.506626
O3    O     O_R   0.628540 0.581430 0.499990 -0.506672
O4    O     O_R   0.371460 0.418570 0.500010 -0.506970
O5    O     O_R   0.499980 0.581420 0.316850 -0.512765
O6    O     O_R   0.500020 0.418580 0.683150 -0.512842
O7    O     O_R   0.500020 0.581420 0.683150 -0.515060
O8    O     O_R   0.499980 0.418580 0.316850 -0.515116

loop_
_geom_bond_atom_site_label_1
_geom_bond_atom_site_label_2
_ccdc_geom_bond_type
C21   C26   A    
C3    C42   A    
C16   H42   S    
C8    C13   S    
Cu1   O5    S    
Cu2   N1    S    
C30   H16   S    
C31   H13   S    
C3    C23   A    
C17   H43   S    
C38   H28   S    
C7    C11   S    
C37   H31   S    
C29   C30   S    
C40   H39   S    
C36   C37   S    
C10   C15   S    
C32   H26   S    
C30   C31   S    
C11   C14   S    
C43   H4    S    
C20   C25   A    
C31   H11   S    
C41   H35   S    
C24   C39   S    
Cu1   O3    S    
C42   C46   A    
C40   H38   S    
C9    C13   S    
C12   O3    A    
C33   H24   S    
C44   H5    S    
C46   N1    A    
C46   H7    S    
Cu1   N2    S    
C19   C27   A    
C2    C43   A    
C12   O2    A    
C19   H45   S    
C42   H3    S    
C20   C29   S    
C16   C27   A    
C7    C15   S    
C5    O8    A    
C30   H15   S    
C1    C25   S    
C31   H14   S    
C39   H40   S    
C1    O4    A    
C4    C34   A    
C38   H27   S    
Cu2   O4    S    
C21   C32   S    
C5    O5    A    
C34   H2    S    
Cu1   O7    S    
C18   C28   A    
C24   C25   A    
C7    H1    S    
C36   H32   S    
C1    O1    A    
C39   C40   S    
C13   H10   S    
C41   H36   S    
C10   H34   S    
C17   C21   A    
C23   C44   A    
C12   C26   S    
C9    C14   S    
C37   C38   S    
C6    C14   S    
Cu1   Cu2   S    
C35   H19   S    
C36   H33   S    
C16   C20   A    
Cu2   O6    S    
C34   C45   A    
C6    O7    A    
C33   H22   S    
C29   H17   S    
C40   C41   S    
C38   H29   S    
C45   H6    S    
C13   C15   S    
C3    C4    S    
C32   H25   S    
C22   C36   S    
C7    C9    S    
C8    C14   S    
C18   C22   A    
C17   C28   A    
C9    H23   S    
C4    C43   A    
C41   H37   S    
C37   H30   S    
Cu1   O1    S    
C23   H46   S    
C18   H44   S    
C32   C33   S    
C2    N2    A    
C19   C24   A    
C44   N1    A    
C2    H8    S    
C8    H12   S    
C35   H20   S    
C33   C35   S    
Cu2   O2    S    
C6    O6    A    
C5    C15   S    
C10   C11   S    
C29   H18   S    
C35   H21   S    
C8    C10   S    
C22   C26   A    
C27   C28   S    
C11   H9    S    
C45   N2    A    
C39   H41   S    
Cu2   O8    S    
