data_mof_unit_22437.cif
_audit_creation_date              2012-10-26T20:47:14-0400
_audit_creation_method            fapswitch 2.2
_symmetry_space_group_name_H-M    P1
_symmetry_Int_Tables_number       1
_space_group_crystal_system       triclinic
_cell_length_a                    13.885731
_cell_length_b                    13.875774
_cell_length_c                    15.101993
_cell_angle_alpha                 90.375564
_cell_angle_beta                  89.585976
_cell_angle_gamma                 84.500746
_cell_volume                      2896.23569433

loop_
_atom_site_label
_atom_site_type_symbol
_atom_type_description
_atom_site_fract_x
_atom_site_fract_y
_atom_site_fract_z
_atom_type_partial_charge
C1    C     C_R   0.500243 0.499666 0.329939 0.543645
C2    C     C_R   0.796980 0.455149 0.433641 0.396427
C3    C     C_R   0.217944 0.423336 0.463911 0.020239
C4    C     C_R   0.784990 0.540631 0.569704 0.020648
C5    C     C_R   0.117368 0.416062 0.469397 0.221610
C6    C     C_R   0.886742 0.535513 0.576307 0.220361
C7    C     C_R   0.055074 0.494537 0.504622 -0.015668
C8    C     C_R   0.945703 0.495682 0.505305 -0.018242
C9    C     C_R   0.515846 0.316877 0.499760 0.537536
C10   C     C_R   0.484122 0.683141 0.500274 0.547823
C11   C     C_1   0.474132 0.786453 0.501149 -0.008032
C12   C     C_R   0.499666 0.500104 0.670149 0.537680
C13   C     C_1   0.525653 0.213605 0.498877 -0.039451
C14   C     C_2   0.459656 0.977195 0.503042 -0.123025
C15   C     C_2   0.539642 0.022924 0.496963 -0.125461
C16   C     C_1   0.532852 0.126660 0.497990 -0.063738
C17   C     C_1   0.466639 0.873423 0.502024 -0.047738
C18   C     C_R   0.575675 0.443012 0.094656 0.258998
C19   C     C_R   0.417044 0.462352 0.904471 0.255989
C20   C     C_R   0.577872 0.449176 0.186776 -0.102039
C21   C     C_R   0.418100 0.468677 0.811644 -0.140199
C22   C     C_R   0.500258 0.497896 0.233501 -0.032801
C23   C     C_R   0.420460 0.541155 0.095844 -0.122992
C24   C     C_R   0.498662 0.498237 0.766747 -0.035270
C25   C     C_R   0.421199 0.543048 0.187763 -0.153270
C26   C     C_R   0.577880 0.525197 0.814380 -0.160990
C27   C     C_3   0.626958 0.300925 0.022991 0.007722
C28   C     C_3   0.667825 0.223321 0.087723 -0.272136
C29   C     C_3   0.643551 0.122809 0.059367 -0.483449
C30   C     C_3   0.300617 0.351113 0.913611 0.010674
C31   C     C_3   0.201522 0.380176 0.872319 -0.262204
C32   C     C_3   0.167214 0.297719 0.817140 -0.495393
C33   C     C_3   0.240278 0.634154 0.675500 0.027576
C34   C     C_R   0.576189 0.523461 0.906174 -0.140917
C35   C     C_3   0.167830 0.709286 0.720561 -0.291049
C36   C     C_3   0.171434 0.699621 0.821150 -0.478207
C37   C     C_3   0.772004 0.310133 0.367155 0.008630
C38   C     C_3   0.832361 0.273396 0.286490 -0.285743
C39   C     C_3   0.839429 0.163191 0.279429 -0.486260
C40   C     C_3   0.059411 0.272444 0.506969 0.002262
C41   C     C_3   0.149744 0.209682 0.537929 -0.270295
C42   C     C_3   0.123922 0.136094 0.606675 -0.487023
C43   C     C_3   0.951932 0.499213 0.712424 0.001075
C44   C     C_3   0.867940 0.488689 0.777060 -0.271440
C45   C     C_R   0.497293 0.491424 0.048660 0.051493
C46   C     C_3   0.897276 0.417432 0.850782 -0.479176
C47   C     C_R   0.496331 0.492561 0.951540 0.049264
C48   C     C_R   0.099135 0.573816 0.538269 -0.144094
C49   C     C_R   0.898242 0.457444 0.433275 -0.147831
C50   C     C_R   0.200575 0.572997 0.540627 0.390699
Cu1   Cu    Cu3+1 0.596430 0.500000 0.499990 0.976061
Cu2   Cu    Cu3+1 0.403570 0.500000 0.500010 0.970746
H1    H     H_    0.610551 0.982736 0.491148 0.132965
H2    H     H_    0.939203 0.429732 0.375999 0.163776
H3    H     H_    0.263800 0.365030 0.433091 0.149752
H4    H     H_    0.740939 0.575461 0.622242 0.139303
H5    H     H_    0.660034 0.284796 0.956680 0.149866
H6    H     H_    0.547416 0.297197 0.015121 0.130876
H7    H     H_    0.747732 0.223630 0.090569 0.170250
H8    H     H_    0.637306 0.239595 0.154980 0.156598
H9    H     H_    0.563885 0.120110 0.057690 0.148339
H10   H     H_    0.674624 0.068381 0.107452 0.148840
H11   H     H_    0.674620 0.104127 0.992762 0.146011
H12   H     H_    0.388720 0.017364 0.508875 0.131250
H13   H     H_    0.290328 0.299334 0.967883 0.147715
H14   H     H_    0.350756 0.310485 0.865348 0.113012
H15   H     H_    0.147832 0.400364 0.925820 0.163737
H16   H     H_    0.204836 0.444315 0.829329 0.149762
H17   H     H_    0.219203 0.277680 0.762285 0.148076
H18   H     H_    0.095814 0.321153 0.787874 0.133705
H19   H     H_    0.159969 0.233424 0.859218 0.148366
H20   H     H_    0.313533 0.645464 0.700187 0.167710
H21   H     H_    0.225430 0.559739 0.696289 0.103324
H22   H     H_    0.184843 0.783206 0.702009 0.172566
H23   H     H_    0.638741 0.413274 0.221707 0.166002
H24   H     H_    0.093354 0.699562 0.698468 0.177867
H25   H     H_    0.151781 0.627124 0.841250 0.148674
H26   H     H_    0.119106 0.755641 0.852098 0.151594
H27   H     H_    0.245067 0.709754 0.845649 0.152481
H28   H     H_    0.701091 0.279366 0.364349 0.159438
H29   H     H_    0.808085 0.282089 0.429081 0.107728
H30   H     H_    0.798840 0.305063 0.225407 0.178418
H31   H     H_    0.906469 0.296487 0.291476 0.175540
H32   H     H_    0.874271 0.130081 0.339386 0.151456
H33   H     H_    0.883748 0.138930 0.220486 0.151440
H34   H     H_    0.357014 0.449091 0.773975 0.116015
H35   H     H_    0.766292 0.138069 0.272045 0.143899
H36   H     H_    0.006273 0.224108 0.481766 0.148509
H37   H     H_    0.023617 0.313097 0.564004 0.113869
H38   H     H_    0.185498 0.170676 0.480202 0.175136
H39   H     H_    0.201658 0.256332 0.567934 0.151568
H40   H     H_    0.088255 0.173652 0.665112 0.143004
H41   H     H_    0.190824 0.092982 0.628807 0.148047
H42   H     H_    0.074588 0.086079 0.577700 0.149643
H43   H     H_    0.014863 0.520385 0.750520 0.148259
H44   H     H_    0.975921 0.428087 0.680602 0.109953
H45   H     H_    0.360937 0.581460 0.223127 0.138945
H46   H     H_    0.843740 0.560441 0.806938 0.172819
H47   H     H_    0.806240 0.462145 0.740894 0.151597
H48   H     H_    0.918263 0.344270 0.822529 0.140305
H49   H     H_    0.835163 0.412819 0.896821 0.173423
H50   H     H_    0.958822 0.441943 0.888678 0.147562
H51   H     H_    0.640292 0.549342 0.780768 0.122579
H52   H     H_    0.360329 0.579374 0.061416 0.151157
H53   H     H_    0.637171 0.546895 0.942082 0.149881
H54   H     H_    0.055341 0.637040 0.562735 0.164029
N1    N     N_R   0.258690 0.500000 0.500020 -0.249936
N2    N     N_R   0.741310 0.500000 0.499980 -0.243859
O1    O     O_R   0.581430 0.500010 0.371450 -0.442431
O2    O     O_3   0.338032 0.433441 0.951433 -0.584823
O3    O     O_3   0.240868 0.648096 0.582517 -0.536742
O4    O     O_3   0.753458 0.412271 0.363726 -0.546038
O5    O     O_3   0.082038 0.333224 0.436349 -0.596385
O6    O     O_3   0.926580 0.573763 0.650883 -0.599666
O7    O     O_R   0.418570 0.499990 0.628550 -0.506376
O8    O     O_R   0.418560 0.500010 0.371460 -0.506330
O9    O     O_R   0.581440 0.499990 0.628540 -0.519707
O10   O     O_R   0.592950 0.362150 0.500010 -0.490978
O11   O     O_R   0.407050 0.637850 0.499990 -0.436764
O12   O     O_R   0.430080 0.362150 0.500020 -0.516058
O13   O     O_R   0.569920 0.637850 0.499980 -0.503321
O14   O     O_3   0.652568 0.392926 0.050177 -0.590242

loop_
_geom_bond_atom_site_label_1
_geom_bond_atom_site_label_2
_ccdc_geom_bond_type
C29   H11   S    
C35   H22   S    
C23   C45   A    
C38   H31   S    
C42   H41   S    
C41   C42   S    
C35   C36   S    
C39   H35   S    
C10   O13   A    
C7    C8    S    
C31   H15   S    
C46   H50   S    
C2    O4    S    
C30   O2    S    
C15   H1    S    
C28   C29   S    
C19   C21   A    
C24   C26   A    
C39   H32   S    
Cu2   O8    S    
C36   H25   S    
C43   O6    S    
C30   C31   S    
C44   H47   S    
C19   C47   A    
C28   H7    S    
C49   H2    S    
Cu1   O10   S    
C2    N2    A    
C9    C13   S    
C6    O6    S    
C37   O4    S    
C10   O11   A    
C33   H20   S    
C1    O1    A    
C21   H34   S    
C44   H46   S    
C26   C34   A    
C48   H54   S    
C23   H52   S    
Cu2   N1    S    
Cu1   N2    S    
C22   C25   A    
C43   H43   S    
C33   O3    S    
C1    O8    A    
C40   H37   S    
C18   C20   A    
C12   O7    A    
C28   H8    S    
C41   H38   S    
C1    C22   S    
Cu1   O1    S    
C4    H4    S    
C9    O10   A    
C14   C17   S    
C37   H29   S    
C3    H3    S    
C37   H28   S    
C27   O14   S    
C44   C46   S    
C32   H19   S    
C45   C47   S    
C31   H16   S    
C46   H49   S    
C29   H9    S    
C35   H24   S    
Cu1   Cu2   S    
C4    C6    A    
C27   H5    S    
C5    C7    A    
C6    C8    A    
C3    N1    A    
C36   H27   S    
C20   H23   S    
C43   C44   S    
C37   C38   S    
C2    C49   A    
C26   H51   S    
C4    N2    A    
C40   O5    S    
C14   H12   S    
C43   H44   S    
C30   H14   S    
C18   O14   S    
Cu2   O12   S    
C25   H45   S    
C40   C41   S    
C41   H39   S    
C20   C22   A    
C50   N1    A    
Cu1   O13   S    
C21   C24   A    
C39   H33   S    
C18   C45   A    
Cu2   O7    S    
C33   H21   S    
C9    O12   A    
C46   H48   S    
C29   H10   S    
C11   C17   T    
C5    O5    S    
C42   H42   S    
C34   H53   S    
C31   C32   S    
C3    C5    A    
C27   H6    S    
C32   H18   S    
C32   H17   S    
C12   C24   S    
C19   O2    S    
C7    C48   A    
C40   H36   S    
C36   H26   S    
C38   C39   S    
C48   C50   A    
C50   O3    S    
C33   C35   S    
C42   H40   S    
C23   C25   A    
C30   H13   S    
C10   C11   S    
C12   O9    A    
Cu2   O11   S    
C13   C16   T    
C27   C28   S    
Cu1   O9    S    
C14   C15   D    
C34   C47   A    
C8    C49   A    
C38   H30   S    
C15   C16   S    
