data_mof_unit_36014.cif
_audit_creation_date              2013-03-05T16:06:18-0500
_audit_creation_method            fapswitch 2.2
_symmetry_space_group_name_H-M    P1
_symmetry_Int_Tables_number       1
_space_group_crystal_system       triclinic
_cell_length_a                    10.950233
_cell_length_b                    9.539943
_cell_length_c                    27.82937
_cell_angle_alpha                 89.982286
_cell_angle_beta                  90.590892
_cell_angle_gamma                 89.559636
_cell_volume                      2906.9432876

loop_
_atom_site_label
_atom_site_type_symbol
_atom_site_description
_atom_site_fract_x
_atom_site_fract_y
_atom_site_fract_z
_atom_type_partial_charge
O1    O     O_R   0.319640 0.618740 0.500000 -0.562032
O2    O     O_R   0.680360 0.381260 0.500000 -0.576140
O3    O     O_R   0.680360 0.618740 0.500000 -0.566557
O4    O     O_R   0.319640 0.381260 0.500000 -0.577945
C1    C     C_R   0.262951 0.501572 0.503822 0.855756
C2    C     C_R   0.738438 0.499820 0.498943 0.835706
O5    O     O_R   0.500020 0.618770 0.430260 -0.568336
O6    O     O_R   0.499980 0.381230 0.569740 -0.583137
O7    O     O_R   0.499980 0.618770 0.569740 -0.570481
O8    O     O_R   0.500020 0.381230 0.430260 -0.590253
C3    C     C_R   0.498704 0.499766 0.407483 0.863755
C4    C     C_R   0.501911 0.499702 0.592512 0.872819
Cu1   Cu    Cu3+1 0.500000 0.640660 0.500000 1.038895
Cu2   Cu    Cu3+1 0.500000 0.359340 0.500000 1.014047
C5    C     C_R   0.405713 0.450910 0.178114 0.595937
C6    C     C_R   0.600125 0.452414 0.821933 0.596414
O9    O     O_2   0.302654 0.428134 0.203080 -0.502433
O10   O     O_2   0.703424 0.429648 0.796933 -0.500598
N1    N     N_R   0.513011 0.474935 0.202006 -0.448412
N2    N     N_R   0.492432 0.476389 0.798077 -0.448439
C7    C     C_R   0.619372 0.497113 0.177894 0.602478
C8    C     C_R   0.385874 0.498742 0.822234 0.601945
C9    C     C_R   0.569015 0.375350 0.281935 0.007200
C10   C     C_R   0.436338 0.376099 0.718445 0.000930
C11   C     C_R   0.564460 0.386781 0.332123 -0.239693
C12   C     C_R   0.439618 0.387116 0.668236 -0.217703
C13   C     C_R   0.440979 0.599405 0.325831 -0.035321
C14   C     C_R   0.561551 0.598881 0.673838 -0.040514
C15   C     C_R   0.451273 0.592429 0.275810 -0.131778
C16   C     C_R   0.552490 0.592384 0.723911 -0.130097
C17   C     C_R   0.512625 0.480958 0.253631 0.257426
C18   C     C_R   0.492356 0.481635 0.746435 0.257322
C19   C     C_R   0.510910 0.466968 0.101955 -0.045134
C20   C     C_R   0.494852 0.468136 0.898130 -0.044847
C21   C     C_R   0.401896 0.450873 0.127866 -0.019046
C22   C     C_R   0.604048 0.452259 0.872186 -0.019308
C23   C     C_R   0.291166 0.433981 0.103271 -0.130817
C24   C     C_R   0.715044 0.435284 0.896755 -0.130486
C25   C     C_R   0.622988 0.483918 0.127169 -0.088094
C26   C     C_R   0.382518 0.485321 0.872951 -0.088073
C27   C     C_R   0.500750 0.496896 0.354477 -0.122317
C28   C     C_R   0.501581 0.496827 0.645525 -0.124186
H1    H     H_    0.405939 0.670444 0.253436 0.179198
H2    H     H_    0.597718 0.670251 0.746024 0.179528
C29   C     C_R   0.388774 0.472449 0.975345 0.027979
C30   C     C_R   0.616981 0.472126 0.024750 0.027969
C31   C     C_R   0.613114 0.460450 0.973821 0.054436
C32   C     C_R   0.392802 0.460083 0.026252 0.054470
C33   C     C_R   0.498789 0.467013 0.949228 0.077373
C34   C     C_R   0.507028 0.466375 0.050857 0.077379
C35   C     C_R   0.277834 0.489659 0.949716 -0.233921
C36   C     C_R   0.727686 0.488920 0.050416 -0.233842
C37   C     C_R   0.272821 0.493039 0.899551 -0.010050
C38   C     C_R   0.732611 0.491782 0.100589 -0.009803
O11   O     O_2   0.285207 0.536921 0.797051 -0.485134
O12   O     O_2   0.719521 0.535011 0.203120 -0.486501
C39   C     C_R   0.286307 0.439367 0.053518 -0.184053
C40   C     C_R   0.719879 0.440188 0.946516 -0.183922
C41   C     C_R   0.066335 0.383230 0.520172 -0.097614
C42   C     C_R   0.937129 0.630129 0.495988 -0.066940
C43   C     C_R   0.940991 0.376441 0.509975 -0.064930
C44   C     C_R   0.063930 0.633574 0.501530 -0.070219
C45   C     C_R   0.873979 0.501053 0.499721 -0.182443
C46   C     C_R   0.129544 0.507085 0.509606 -0.169445
C47   C     C_R   0.440533 0.074890 0.464687 0.000646
C48   C     C_R   0.557548 0.925267 0.535731 -0.000339
C49   C     C_R   0.558218 0.073791 0.535606 -0.005130
C50   C     C_R   0.440829 0.926321 0.464641 0.021686
H3    H     H_    0.392387 0.130984 0.436430 0.147457
H4    H     H_    0.604165 0.869398 0.564298 0.162810
H5    H     H_    0.605530 0.128955 0.564076 0.172701
H6    H     H_    0.393065 0.871289 0.436365 0.150258
N3    N     N_R   0.500000 0.852070 0.500000 -0.166606
N4    N     N_R   0.500000 0.147930 0.500000 -0.177949
C51   C     C_2   0.357313 0.705847 0.346222 0.861817
O13   O     O_2   0.353423 0.824238 0.329347 -0.567871
O14   O     O_R   0.277789 0.668515 0.382938 -0.756830
H7    H     H_    0.220089 0.747646 0.391648 0.364420
C52   C     C_2   0.644202 0.704281 0.653016 0.864088
O15   O     O_2   0.647188 0.823039 0.669523 -0.563353
O16   O     O_R   0.723776 0.665538 0.616302 -0.753919
H8    H     H_    0.780829 0.744023 0.607227 0.369574
H9    H     H_    0.206863 0.417752 0.122461 0.196378
H10   H     H_    0.799550 0.419293 0.877537 0.196584
H11   H     H_    0.395479 0.307611 0.646499 0.221906
H12   H     H_    0.609025 0.307346 0.354141 0.203854
C53   C     C_2   0.377328 0.251836 0.740422 0.928419
O17   O     O_2   0.299756 0.187047 0.717809 -0.531517
O18   O     O_R   0.411920 0.206092 0.786362 -0.748804
H13   H     H_    0.365078 0.120487 0.797043 0.354908
C54   C     C_2   0.629671 0.250605 0.260303 0.925976
O19   O     O_2   0.707213 0.185424 0.283285 -0.538536
O20   O     O_R   0.596713 0.204859 0.214265 -0.747942
H14   H     H_    0.644584 0.118894 0.203850 0.355467
C55   C     C_2   0.149243 0.495469 0.877310 0.926688
O21   O     O_2   0.120046 0.405545 0.848149 -0.518641
O22   O     O_R   0.063960 0.596145 0.891933 -0.752308
H15   H     H_    0.982373 0.586340 0.874769 0.342012
C56   C     C_2   0.856132 0.493933 0.122856 0.926436
O23   O     O_2   0.886413 0.403804 0.151986 -0.519525
O24   O     O_R   0.940177 0.594599 0.108296 -0.752550
H16   H     H_    0.021859 0.584608 0.125479 0.341895
H17   H     H_    0.192154 0.501517 0.968081 0.161712
H18   H     H_    0.813237 0.500866 0.032079 0.161720
H19   H     H_    0.197723 0.422426 0.037422 0.150858
H20   H     H_    0.808725 0.423201 0.962579 0.150852
C57   C     C_2   0.128600 0.268137 0.547314 0.918566
O25   O     O_2   0.192589 0.296745 0.582206 -0.570815
O26   O     O_R   0.114467 0.128638 0.533635 -0.733067
H21   H     H_    0.160597 0.062893 0.556003 0.377163
C58   C     C_2   0.872536 0.765701 0.489745 0.930178
O27   O     O_2   0.829069 0.798739 0.450661 -0.544397
O28   O     O_R   0.861130 0.853721 0.529434 -0.739434
H22   H     H_    0.803379 0.934385 0.523060 0.334426
C59   C     C_2   0.882036 0.238212 0.508383 0.945799
O29   O     O_2   0.859117 0.176591 0.545678 -0.575645
O30   O     O_R   0.847873 0.183075 0.463707 -0.706506
H23   H     H_    0.797464 0.095110 0.466141 0.340803
C60   C     C_2   0.124402 0.772779 0.502260 0.923881
O31   O     O_2   0.180200 0.810091 0.538260 -0.560117
O32   O     O_R   0.114534 0.861469 0.462400 -0.747828
H24   H     H_    0.162958 0.950780 0.466427 0.349721

loop_
_geom_bond_atom_site_label_1
_geom_bond_atom_site_label_2
_geom_bond_distance
_ccdc_geom_bond_type
C39   H19   1.077595 S    
C53   O17   1.223469 D    
O20   H14   1.013915 S    
C13   C15   1.399325 A    
C58   O27   1.223017 D    
O3    C2    1.296809 A    
N1    C17   1.437914 S    
O22   H15   1.013696 S    
C32   C39   1.412939 A    
C31   C33   1.421498 A    
O14   H7    1.011819 S    
C5    N1    1.365000 A    
C41   C46   1.406481 A    
C19   C25   1.417765 A    
C42   C45   1.421180 A    
O1    C1    1.287645 A    
Cu2   N4    2.016840 S    
C21   C23   1.396643 A    
C10   C12   1.402036 A    
C25   C38   1.418938 A    
C37   C55   1.482254 S    
C29   C35   1.410829 A    
C35   H17   1.078219 S    
C59   O29   1.221913 D    
C30   C36   1.410880 A    
C42   C44   1.396096 A    
C14   C28   1.414060 A    
C43   C45   1.419558 A    
C14   C52   1.479987 S    
O7    Cu1   1.951961 S    
C4    C28   1.475604 S    
C24   C40   1.386104 A    
C55   O21   1.223111 D    
C59   O30   1.398658 S    
C43   C59   1.473173 S    
C44   C46   1.416338 A    
C57   O25   1.223695 D    
C20   C22   1.410344 A    
O3    Cu1   1.984425 S    
C6    N2    1.365041 A    
C32   C34   1.421443 A    
C48   C49   1.416988 A    
Cu1   Cu2   2.683777 S    
C15   H1    1.084299 S    
C57   O26   1.393622 S    
C16   H2    1.084184 S    
O2    C2    1.302312 A    
C13   C51   1.479628 S    
C5    C21   1.398569 A    
O7    C4    1.300480 A    
C36   C38   1.397057 A    
O16   H8    1.012433 S    
C60   O32   1.397712 S    
C41   C43   1.400704 A    
O24   H16   1.013712 S    
O8    Cu2   1.951961 S    
C11   C27   1.405463 A    
C54   O19   1.223563 D    
C52   O16   1.397662 S    
C50   N3    1.367211 A    
C48   N3    1.366665 A    
C41   C57   1.489405 S    
C47   N4    1.367304 A    
C1    C46   1.471867 S    
C50   H6    1.079070 S    
C35   C37   1.396920 A    
C9    C17   1.413032 A    
C2    C45   1.484283 S    
O5    C3    1.300538 A    
C51   O13   1.223323 D    
C10   C18   1.413086 A    
C54   O20   1.398372 S    
C13   C27   1.413924 A    
C56   O23   1.223133 D    
C7    C25   1.418228 A    
C29   C33   1.413995 A    
O6    C4    1.296151 A    
C47   C50   1.417314 A    
C8    C26   1.418057 A    
O32   H24   1.012646 S    
C58   O28   1.393722 S    
C49   N4    1.366794 A    
C51   O14   1.397176 S    
C44   C60   1.488546 S    
C56   O24   1.398024 S    
Cu1   N3    2.016839 S    
C53   O18   1.398401 S    
C9    C54   1.488741 S    
C38   C56   1.482249 S    
O1    Cu1   1.987622 S    
C12   C28   1.405224 A    
O28   H22   1.006811 S    
N2    C18   1.438014 S    
C29   C32   1.421780 A    
C5    O9    1.350303 S    
C30   C31   1.421964 A    
C36   H18   1.078180 S    
C20   C33   1.422243 A    
O6    Cu2   1.952089 S    
C24   H10   1.083369 S    
C23   H9    1.083373 S    
N2    C8    1.367976 A    
O4    C1    1.305572 A    
C7    O12   1.347802 S    
C60   O31   1.222576 D    
C55   O22   1.398028 S    
C8    O11   1.347836 S    
C30   C34   1.414039 A    
C22   C24   1.396692 A    
C19   C34   1.422248 A    
C15   C17   1.400406 A    
C42   C58   1.478674 S    
O26   H21   1.012148 S    
C6    C22   1.398734 A    
C31   C40   1.412986 A    
C16   C18   1.400566 A    
C48   H4    1.078821 S    
C12   H11   1.083848 S    
C47   H3    1.081473 S    
C14   C16   1.399428 A    
C11   H12   1.084308 S    
C19   C21   1.410322 A    
C3    C27   1.475790 S    
C49   H5    1.081247 S    
C9    C11   1.402358 A    
O4    Cu2   1.984425 S    
O2    Cu2   1.987622 S    
C10   C53   1.488755 S    
O8    C3    1.296106 A    
C52   O15   1.223211 D    
O5    Cu1   1.952089 S    
C6    O10   1.350280 S    
C26   C37   1.418922 A    
C20   C26   1.417774 A    
C40   H20   1.077576 S    
O18   H13   1.013827 S    
O30   H23   1.010623 S    
C23   C39   1.385990 A    
N1    C7    1.367971 A    
