data_mof_unit_5770.cif
_audit_creation_date              2012-12-10T17:01:37-0500
_audit_creation_method            fapswitch 2.2
_symmetry_space_group_name_H-M    P1
_symmetry_Int_Tables_number       1
_space_group_crystal_system       triclinic
_cell_length_a                    9.928057
_cell_length_b                    10.912119
_cell_length_c                    13.005228
_cell_angle_alpha                 86.618655
_cell_angle_beta                  75.1134
_cell_angle_gamma                 108.505203
_cell_volume                      1275.97399036

loop_
_atom_site_label
_atom_site_type_symbol
_atom_type_description
_atom_site_fract_x
_atom_site_fract_y
_atom_site_fract_z
_atom_type_partial_charge
C1    C     C_R   0.442173 0.253952 0.509718 0.866481
C2    C     C_R   0.555732 0.744954 0.498590 0.847712
C3    C     C_2   0.081733 0.510704 0.487111 0.328231
C4    C     C_2   0.919292 0.490531 0.513145 0.315242
C5    C     C_R   0.471122 0.495270 0.703210 0.808649
C6    C     C_R   0.528984 0.506966 0.297047 0.830822
C7    C     C_R   0.549813 0.514308 0.181064 -0.134812
C8    C     C_R   0.450057 0.489252 0.819819 -0.141949
C9    C     C_R   0.304362 0.399210 0.006789 0.074752
C10   C     C_R   0.696694 0.600263 0.994560 0.071602
C11   C     C_R   0.311786 0.420266 0.897150 0.225994
C12   C     C_R   0.683767 0.593912 0.105115 0.221536
C13   C     C_R   0.573657 0.550953 0.853342 -0.337722
C14   C     C_R   0.430643 0.442903 0.146931 -0.349396
C15   C     C_R   0.569250 0.536687 0.961555 0.065088
C16   C     C_R   0.434301 0.457627 0.038699 0.064234
C17   C     C_2   0.416097 0.113747 0.517184 -0.368208
C18   C     C_2   0.574196 0.881724 0.510876 -0.454195
C19   C     C_2   0.483313 0.055300 0.571956 0.272373
C20   C     C_2   0.461465 0.916457 0.569624 0.234667
Cu1   Cu    Cu3+1 0.647370 0.522180 0.481340 0.923989
Cu2   Cu    Cu3+1 0.352630 0.477820 0.518660 0.912566
H1    H     H_    0.332402 0.379787 0.207834 0.191360
H2    H     H_    0.674015 0.610676 0.792646 0.181205
H3    H     H_    0.680080 0.956529 0.468151 0.136134
H4    H     H_    0.343232 0.057516 0.474133 0.115773
H5    H     H_    0.942065 0.633997 0.397242 0.206611
H6    H     H_    0.058099 0.364590 0.601268 0.208255
N1    N     N_2   0.131210 0.444490 0.546730 -0.320056
N2    N     N_2   0.868790 0.555510 0.453270 -0.326748
O1    O     O_R   0.578710 0.332530 0.490040 -0.571958
O2    O     O_R   0.421290 0.667470 0.509960 -0.584472
O3    O     O_R   0.329810 0.295070 0.521560 -0.583367
O4    O     O_R   0.670190 0.704930 0.478440 -0.576932
O5    O     O_R   0.604230 0.515670 0.637800 -0.576208
O6    O     O_R   0.395770 0.484330 0.362200 -0.570876
O7    O     O_R   0.355330 0.478200 0.669330 -0.583874
O8    O     O_R   0.644670 0.521800 0.330670 -0.578378
N3    N     N_2   0.804687 0.673599 0.138271 -0.433172
H7    H     H_    0.857551 0.627060 0.177009 0.263433
C21   C     C_3   0.795614 0.795860 0.171152 -0.688481
H8    H     H_    0.780127 0.791513 0.259023 0.234737
H9    H     H_    0.702308 0.818556 0.152116 0.216488
H10   H     H_    0.900563 0.875939 0.127914 0.234612
N4    N     N_2   0.178060 0.376799 0.867052 -0.437394
H11   H     H_    0.151817 0.445304 0.825799 0.266638
C22   C     C_3   0.131930 0.245459 0.841908 -0.721759
H12   H     H_    0.011307 0.196765 0.882093 0.229158
H13   H     H_    0.192228 0.186985 0.870475 0.227117
H14   H     H_    0.152303 0.248200 0.753648 0.244936
C23   C     C_3   0.155956 0.319900 0.089121 -0.381263
C24   C     C_3   0.149900 0.181393 0.126370 -0.348586
C25   C     C_3   0.018744 0.115097 0.226347 -0.875855
H15   H     H_    0.028221 0.172651 0.293467 0.260672
H16   H     H_    0.912574 0.105685 0.208579 0.255644
H17   H     H_    0.017953 0.016029 0.252251 0.243130
H18   H     H_    0.138510 0.121543 0.060879 0.214813
H19   H     H_    0.253519 0.183695 0.145185 0.220413
H20   H     H_    0.135781 0.372903 0.158171 0.183857
H21   H     H_    0.060240 0.310685 0.057342 0.225019
C26   C     C_3   0.847640 0.676365 0.914861 -0.377639
C27   C     C_3   0.859966 0.816356 0.875866 -0.308368
C28   C     C_3   0.018973 0.911350 0.851023 -0.879517
H22   H     H_    0.041466 0.943008 0.926372 0.249583
H23   H     H_    0.100600 0.865478 0.813750 0.278202
H24   H     H_    0.034424 0.997873 0.794264 0.244845
H25   H     H_    0.823878 0.817721 0.801872 0.201556
H26   H     H_    0.786749 0.851793 0.937572 0.226559
H27   H     H_    0.937362 0.678702 0.952019 0.223903
H28   H     H_    0.871150 0.624482 0.845493 0.158500
N5    N     N_2   0.329150 0.823791 0.642139 -0.418754
H29   H     H_    0.337443 0.739737 0.676163 0.267515
C29   C     C_3   0.194231 0.806319 0.612386 -0.667579
H30   H     H_    0.101535 0.724280 0.667991 0.210670
H31   H     H_    0.208194 0.784546 0.528954 0.236544
H32   H     H_    0.164233 0.895801 0.618497 0.230865
N6    N     N_2   0.564477 0.120875 0.640326 -0.430334
H33   H     H_    0.642906 0.082422 0.651792 0.252363
C30   C     C_3   0.472602 0.136721 0.741260 -0.713786
H34   H     H_    0.543939 0.187336 0.789992 0.227148
H35   H     H_    0.396918 0.039780 0.787830 0.235571
H36   H     H_    0.406466 0.197164 0.726381 0.230342
N7    N     N_2   0.820645 0.395595 0.603890 -0.425548
H37   H     H_    0.713215 0.354226 0.605137 0.344032
C31   C     C_3   0.838674 0.414919 0.709656 -0.767967
H38   H     H_    0.735645 0.419633 0.764016 0.249933
H39   H     H_    0.932172 0.505295 0.706363 0.217735
H40   H     H_    0.858019 0.329489 0.745493 0.226928
N8    N     N_2   0.180723 0.604461 0.395371 -0.441802
H41   H     H_    0.286181 0.657226 0.394799 0.302245
C32   C     C_3   0.163716 0.581187 0.290041 -0.758198
H42   H     H_    0.267537 0.576105 0.237024 0.252589
H43   H     H_    0.143118 0.664643 0.252129 0.218424
H44   H     H_    0.070817 0.489401 0.294881 0.225154

loop_
_geom_bond_atom_site_label_1
_geom_bond_atom_site_label_2
_ccdc_geom_bond_type
C26   H28   S    
C28   H23   S    
C8    C13   A    
Cu2   N1    S    
C5    O7    A    
C2    C18   S    
C29   H31   S    
C21   H8    S    
C19   C20   S    
C9    C23   S    
C1    O3    A    
N3    C21   S    
C25   H15   S    
Cu1   O1    S    
Cu2   O2    S    
C27   H25   S    
C17   H4    S    
H6    N1    S    
C9    C16   A    
C10   C15   A    
C31   H38   S    
C25   H17   S    
C32   H43   S    
C15   C16   A    
C1    O1    A    
C2    O2    A    
C29   H30   S    
C19   N6    S    
C7    C14   A    
Cu1   O8    S    
C22   H12   S    
C6    O8    A    
C20   N5    S    
N8    C32   S    
C2    O4    A    
N4    C22   S    
C28   H24   S    
Cu1   Cu2   S    
H5    N2    S    
C21   H9    S    
C18   H3    S    
C22   H14   S    
C25   H16   S    
C7    C12   A    
C24   H19   S    
C31   H39   S    
C23   C24   S    
C22   H13   S    
C32   H42   S    
C30   H35   S    
Cu1   O4    S    
N6    H33   S    
Cu2   O7    S    
C30   H34   S    
C13   H2    S    
C14   H1    S    
C27   C28   S    
C30   H36   S    
N7    H37   S    
N6    C30   S    
C9    C11   A    
C10   C12   A    
N7    C31   S    
C13   C15   A    
C21   H10   S    
C14   C16   A    
C11   N4    S    
C10   C26   S    
C23   H20   S    
C3    C4    S    
N3    H7    S    
C24   C25   S    
N5    C29   S    
C31   H40   S    
C26   H27   S    
Cu2   O3    S    
C5    C8    S    
C6    C7    S    
Cu1   O5    S    
Cu2   O6    S    
Cu1   N2    S    
C1    C17   S    
C27   H26   S    
C3    N8    S    
C12   N3    S    
N5    H29   S    
C32   H44   S    
C3    N1    D    
C4    N7    S    
C8    C11   A    
C5    O5    A    
C17   C19   D    
C6    O6    A    
C18   C20   D    
C26   C27   S    
C24   H18   S    
C28   H22   S    
N4    H11   S    
C29   H32   S    
C23   H21   S    
N8    H41   S    
C4    N2    D    
