data_mof_unit_40933.cif
_audit_creation_date              2012-10-26T21:17:41-0400
_audit_creation_method            fapswitch 2.2
_symmetry_space_group_name_H-M    P1
_symmetry_Int_Tables_number       1
_space_group_crystal_system       triclinic
_cell_length_a                    10.811296
_cell_length_b                    9.08017
_cell_length_c                    7.889939
_cell_angle_alpha                 89.961175
_cell_angle_beta                  89.087628
_cell_angle_gamma                 89.808586
_cell_volume                      774.440060621

loop_
_atom_site_label
_atom_site_type_symbol
_atom_type_description
_atom_site_fract_x
_atom_site_fract_y
_atom_site_fract_z
_atom_type_partial_charge
C1    C     C_R   0.499287 0.220458 0.500028 0.581086
C2    C     C_R   0.057767 0.518382 0.654435 -0.023322
C3    C     C_R   0.127973 0.529201 0.504519 0.045083
C4    C     C_R   0.873644 0.481181 0.496301 0.030045
C5    C     C_R   0.065473 0.542537 0.352982 -0.123375
C6    C     C_R   0.936757 0.537005 0.354875 -0.148917
C7    C     C_1   0.499418 0.065487 0.500086 0.034427
C8    C     C_1   0.499788 0.934508 0.500001 0.028802
C9    C     C_R   0.500199 0.779549 0.499951 0.573229
C10   C     C_R   0.262267 0.512321 0.501584 0.574800
C11   C     C_R   0.738267 0.490200 0.499019 0.570022
C12   C     C_R   0.080835 0.598998 0.803707 0.271540
C13   C     C_R   0.890047 0.389843 0.791513 0.283482
C14   C     C_R   0.003165 0.573744 0.943463 -0.160933
C15   C     C_R   0.919943 0.455509 0.943923 -0.142032
C16   C     C_R   0.941880 0.449669 0.642870 -0.011696
Cu1   Cu    Cu3+1 0.500000 0.500000 0.669080 1.174742
Cu2   Cu    Cu3+1 0.500000 0.500000 0.330920 1.103102
H1    H     H_    0.005845 0.649870 0.046973 0.164339
H2    H     H_    0.872778 0.418781 0.057466 0.167728
H3    H     H_    0.117643 0.565042 0.238726 0.161201
H4    H     H_    0.884947 0.581115 0.251530 0.128583
H5    H     H_    0.162781 0.973717 0.922091 0.385732
H6    H     H_    0.836507 0.004976 0.888969 0.381237
N1    N     N_1   0.500000 0.500000 0.076820 -0.051303
N2    N     N_1   0.500000 0.500000 0.923180 -0.026358
O1    O     O_R   0.500000 0.288390 0.642760 -0.458284
O2    O     O_2   0.206703 0.813601 0.635199 -0.295364
O3    O     O_3   0.103837 0.890446 0.920674 -0.493758
O4    O     O_2   0.684709 0.246937 0.888405 -0.271894
O5    O     O_2   0.779999 0.173467 0.615440 -0.300605
O6    O     O_3   0.887526 0.095277 0.893411 -0.474542
O7    O     O_R   0.500000 0.711610 0.642760 -0.464756
O8    O     O_R   0.500000 0.288370 0.357190 -0.497965
O9    O     O_R   0.500000 0.711630 0.357190 -0.501912
O10   O     O_R   0.319650 0.500000 0.642810 -0.475783
O11   O     O_R   0.680350 0.500000 0.642810 -0.490578
O12   O     O_R   0.319630 0.500000 0.357240 -0.515755
O13   O     O_R   0.680370 0.500000 0.357240 -0.520815
O14   O     O_2   0.294486 0.718730 0.899346 -0.268227
S1    S     S_3+6 0.176996 0.756990 0.810163 0.025000
S2    S     S_3+6 0.804557 0.224460 0.792899 0.033995

loop_
_geom_bond_atom_site_label_1
_geom_bond_atom_site_label_2
_ccdc_geom_bond_type
C4    C16   A    
C9    O7    A    
Cu2   O13   S    
H6    O6    S    
C12   S1    S    
Cu1   O10   S    
C2    C16   A    
Cu2   O9    S    
C10   O12   A    
C2    C12   A    
C2    C3    A    
Cu2   O12   S    
C7    C8    T    
C3    C10   S    
Cu1   O11   S    
C4    C11   S    
C11   O13   A    
Cu2   O8    S    
C5    C6    A    
Cu2   N1    S    
Cu1   O7    S    
Cu1   N2    S    
H5    O3    S    
C4    C6    A    
C13   S2    S    
O5    S2    D    
C12   C14   A    
C1    O8    A    
Cu1   Cu2   S    
C13   C15   A    
C15   H2    S    
C9    O9    A    
C6    H4    S    
O2    S1    D    
C5    H3    S    
C11   O11   A    
C13   C16   A    
C1    O1    A    
O6    S2    S    
C14   C15   A    
O14   S1    D    
C10   O10   A    
O3    S1    S    
N1    N2    T    
C1    C7    S    
C14   H1    S    
O4    S2    D    
C8    C9    S    
C3    C5    A    
Cu1   O1    S    
