data_mof_unit_10969.cif
_audit_creation_date              2012-12-10T18:12:40-0500
_audit_creation_method            fapswitch 2.2
_symmetry_space_group_name_H-M    P1
_symmetry_Int_Tables_number       1
_space_group_crystal_system       triclinic
_cell_length_a                    12.723507
_cell_length_b                    13.223935
_cell_length_c                    15.693683
_cell_angle_alpha                 91.545304
_cell_angle_beta                  102.887198
_cell_angle_gamma                 82.926915
_cell_volume                      2554.43663414

loop_
_atom_site_label
_atom_site_type_symbol
_atom_type_description
_atom_site_fract_x
_atom_site_fract_y
_atom_site_fract_z
_atom_type_partial_charge
C1    C     C_R   0.440262 0.691838 0.487141 0.873173
C2    C     C_3   0.499111 0.509208 0.916992 0.005444
C3    C     C_3   0.581495 0.447280 0.043888 -0.243478
C4    C     C_3   0.491768 0.508915 0.081975 0.114867
C5    C     C_3   0.587660 0.543037 0.991679 0.192151
C6    C     C_3   0.498533 0.604468 0.030660 0.163222
C7    C     C_1   0.502744 0.506479 0.826503 -0.076653
C8    C     C_1   0.490647 0.506679 0.172728 -0.030260
C9    C     C_R   0.729007 0.061603 0.597530 -0.218518
C10   C     C_R   0.593650 0.205836 0.552077 -0.113768
C11   C     C_R   0.297932 0.839442 0.480246 -0.267018
C12   C     C_R   0.501279 0.500700 0.661774 0.885033
C13   C     C_R   0.267739 0.936323 0.510749 0.262987
C14   C     C_R   0.348821 0.998933 0.546437 0.185865
C15   C     C_R   0.456857 0.970849 0.534440 -0.019266
C16   C     C_R   0.485290 0.873466 0.500536 0.029925
C17   C     C_R   0.538391 0.037042 0.552742 0.091034
C18   C     C_R   0.648871 0.997773 0.566567 0.091542
C19   C     C_R   0.675963 0.902084 0.534214 -0.284765
C20   C     C_R   0.592884 0.850165 0.486848 0.227443
C21   C     C_R   0.512816 0.140841 0.538554 -0.291958
C22   C     C_R   0.700331 0.167409 0.596396 0.175101
C23   C     C_R   0.559935 0.310929 0.520626 0.864949
C24   C     C_R   0.406857 0.803395 0.483760 -0.173185
C25   C     C_R   0.095879 0.321498 0.407903 -0.302197
C26   C     C_R   0.810834 0.620143 0.613797 0.227215
C27   C     C_R   0.921235 0.638767 0.638972 0.148688
C28   C     C_R   0.995840 0.583589 0.599170 -0.246945
C29   C     C_R   0.963256 0.524842 0.525775 -0.062583
C30   C     C_R   0.852016 0.510878 0.497263 0.112573
C31   C     C_R   0.041442 0.472560 0.483829 -0.023183
C32   C     C_R   0.015572 0.381909 0.439756 0.066855
C33   C     C_R   0.906045 0.361728 0.419630 0.071798
C34   C     C_R   0.497987 0.500764 0.338170 0.891915
C35   C     C_R   0.826515 0.445178 0.423772 0.206536
C36   C     C_R   0.142774 0.507495 0.483349 0.250253
C37   C     C_R   0.197378 0.354619 0.413766 0.301205
C38   C     C_3   0.403323 0.474961 0.007143 0.215089
C39   C     C_3   0.409409 0.570540 0.955076 0.160125
C40   C     C_1   0.503375 0.503708 0.751190 -0.187483
C41   C     C_1   0.492675 0.503968 0.248368 -0.215766
C42   C     C_3   0.492285 0.413275 0.967808 -0.226793
H1    H     H_    0.429861 0.169444 0.509911 0.196522
H2    H     H_    0.236422 0.789596 0.459783 0.174737
H3    H     H_    0.078600 0.251528 0.373027 0.176551
H4    H     H_    0.081304 0.587080 0.626622 0.178516
H5    H     H_    0.651257 0.396886 0.082301 0.148954
H6    H     H_    0.489460 0.335353 0.939900 0.159006
H7    H     H_    0.759479 0.877564 0.530864 0.153515
H8    H     H_    0.813254 0.029749 0.619134 0.143659
N1    N     N_R   0.222180 0.444680 0.455580 -0.102157
N2    N     N_R   0.776980 0.554790 0.543960 -0.150720
O1    O     O_R   0.366730 0.627160 0.478790 -0.616633
O2    O     O_R   0.544830 0.662520 0.507160 -0.629305
O3    O     O_R   0.410960 0.482330 0.609040 -0.603656
O4    O     O_R   0.589060 0.517690 0.637410 -0.629091
O5    O     O_R   0.455170 0.337480 0.492840 -0.622972
O6    O     O_R   0.633270 0.372840 0.521210 -0.609210
O7    O     O_R   0.410940 0.482310 0.362590 -0.615992
O8    O     O_R   0.589040 0.517670 0.390960 -0.606976
Zn1   Zn    Zn3+2 0.381080 0.476390 0.481050 0.933882
Zn2   Zn    Zn3+2 0.618920 0.523610 0.518950 0.920137
C43   C     C_3   0.316415 0.638912 0.896641 -0.388562
C44   C     C_3   0.227521 0.681183 0.943516 -0.875869
H9    H     H_    0.181682 0.619598 0.956868 0.260201
H10   H     H_    0.261909 0.718724 0.005666 0.264919
H11   H     H_    0.169514 0.738416 0.900980 0.246585
H12   H     H_    0.350564 0.703282 0.872806 0.205633
H13   H     H_    0.279645 0.594387 0.838982 0.207371
C45   C     C_3   0.320334 0.087540 0.604013 -0.931236
H14   H     H_    0.392981 0.116201 0.645560 0.248674
H15   H     H_    0.269235 0.150468 0.563308 0.248728
H16   H     H_    0.275048 0.062633 0.650899 0.245948
C46   C     C_3   0.149494 0.968453 0.510354 -0.933026
H17   H     H_    0.096466 0.913745 0.473672 0.234640
H18   H     H_    0.136921 0.972514 0.578146 0.245301
H19   H     H_    0.123081 0.044139 0.478524 0.246200
C47   C     C_3   0.618988 0.787618 0.411515 -0.856624
H20   H     H_    0.652551 0.834929 0.369006 0.223954
H21   H     H_    0.681808 0.724113 0.438219 0.262705
H22   H     H_    0.546305 0.758602 0.369998 0.230806
C48   C     C_3   0.269448 0.293034 0.362591 -0.847563
H23   H     H_    0.339552 0.329523 0.355561 0.289953
H24   H     H_    0.296399 0.216560 0.392320 0.215843
H25   H     H_    0.222693 0.282430 0.294824 0.206035
C49   C     C_3   0.871498 0.267883 0.369225 -0.979909
H26   H     H_    0.782823 0.265352 0.361116 0.250592
H27   H     H_    0.889957 0.267902 0.303332 0.244608
H28   H     H_    0.914532 0.198338 0.405380 0.255817
C50   C     C_3   0.153286 0.619152 0.489586 -0.872298
H29   H     H_    0.175670 0.640879 0.428943 0.248015
H30   H     H_    0.075592 0.667760 0.488576 0.219015
H31   H     H_    0.213640 0.635824 0.549493 0.253690
C51   C     C_3   0.735050 0.669867 0.669155 -0.345344
C52   C     C_3   0.754818 0.617643 0.758423 -0.889263
H32   H     H_    0.757429 0.533721 0.750984 0.277518
H33   H     H_    0.832309 0.633414 0.801984 0.239606
H34   H     H_    0.687925 0.646071 0.790925 0.244103
H35   H     H_    0.742792 0.752312 0.677490 0.169987
H36   H     H_    0.650029 0.671787 0.638360 0.266411
C53   C     C_3   0.301855 0.432661 0.019553 -0.918110
H37   H     H_    0.247989 0.421015 0.954864 0.242601
H38   H     H_    0.325207 0.358650 0.054497 0.243215
H39   H     H_    0.258165 0.486444 0.058998 0.246057
C54   C     C_3   0.966488 0.713993 0.709210 -0.418947
C55   C     C_3   0.010504 0.800158 0.669933 -0.900215
H40   H     H_    0.079990 0.770291 0.640731 0.264891
H41   H     H_    0.945686 0.840948 0.618886 0.254810
H42   H     H_    0.039260 0.855329 0.721966 0.250212
H43   H     H_    0.907534 0.750490 0.745842 0.216767
H44   H     H_    0.033353 0.672757 0.758609 0.208392
C56   C     C_3   0.782074 0.488351 0.330681 -0.321141
C57   C     C_3   0.766632 0.604190 0.319800 -0.877122
H45   H     H_    0.680711 0.633616 0.315780 0.277577
H46   H     H_    0.821801 0.642720 0.371848 0.252798
H47   H     H_    0.784311 0.624161 0.256653 0.237092
H48   H     H_    0.838763 0.460812 0.287728 0.192375
H49   H     H_    0.707477 0.455102 0.299400 0.209306
C58   C     C_3   0.502808 0.710925 0.069855 -0.920153
H50   H     H_    0.508631 0.765663 0.019241 0.242258
H51   H     H_    0.428905 0.734691 0.095124 0.241572
H52   H     H_    0.574088 0.711027 0.125310 0.244587
C59   C     C_3   0.691752 0.579138 0.976504 -0.393715
C60   C     C_3   0.774569 0.591192 0.061655 -0.874498
H53   H     H_    0.744023 0.654094 0.101082 0.258988
H54   H     H_    0.792635 0.519462 0.100158 0.255512
H55   H     H_    0.851162 0.610081 0.046674 0.249118
H56   H     H_    0.728622 0.522496 0.934770 0.211857
H57   H     H_    0.670935 0.653278 0.941570 0.203231
C61   C     C_3   0.781144 0.233667 0.647560 -0.417023
C62   C     C_3   0.871434 0.244597 0.600762 -0.830696
H58   H     H_    0.921532 0.170269 0.597346 0.247377
H59   H     H_    0.834159 0.272324 0.534076 0.290397
H60   H     H_    0.924318 0.300454 0.635538 0.247118
H61   H     H_    0.741088 0.310094 0.660514 0.223145
H62   H     H_    0.817299 0.198907 0.712851 0.197263

loop_
_geom_bond_atom_site_label_1
_geom_bond_atom_site_label_2
_ccdc_geom_bond_type
O6    Zn2   S    
C23   O6    A    
C54   H43   S    
C3    C42   S    
C26   C51   S    
C53   H37   S    
C52   H32   S    
N1    Zn1   S    
C4    C8    S    
C62   H60   S    
C59   H56   S    
C52   H34   S    
C59   C60   S    
C10   C22   A    
C28   H4    S    
C26   C27   A    
C46   H18   S    
C30   C35   A    
C5    C6    S    
C28   C29   A    
C38   C42   S    
C38   C53   S    
C31   C36   A    
C56   H48   S    
C37   N1    A    
C49   H27   S    
C9    C22   A    
C55   H40   S    
C27   C54   S    
C15   C16   A    
C11   C24   A    
O8    Zn2   S    
C18   C19   A    
C1    O1    A    
C2    C7    S    
C25   C37   A    
C21   H1    S    
O1    Zn1   S    
C2    C39   S    
C19   C20   A    
C46   H19   S    
C7    C40   T    
C45   H14   S    
C57   H47   S    
C25   C32   A    
C54   H44   S    
C53   H38   S    
C13   C14   A    
C59   H57   S    
C34   O8    A    
C14   C45   S    
C34   C41   S    
C56   C57   S    
C58   H51   S    
C10   C21   A    
O7    Zn1   S    
C46   H17   S    
C44   H11   S    
C43   H13   S    
C8    C41   T    
C4    C6    S    
C49   H26   S    
O2    Zn2   S    
C3    C5    S    
C17   C21   A    
C44   H10   S    
C12   C40   S    
C1    O2    A    
C29   C30   A    
C26   N2    A    
C19   H7    S    
C50   H30   S    
C31   C32   A    
C51   H36   S    
C16   C20   A    
C6    C39   S    
C45   H16   S    
C17   C18   A    
C11   H2    S    
C42   H6    S    
C12   O4    A    
C36   N1    A    
C60   H55   S    
C61   H61   S    
C4    C38   S    
C53   H39   S    
C48   H24   S    
C34   O7    A    
O4    Zn2   S    
C37   C48   S    
C2    C5    S    
C3    C4    S    
C25   H3    S    
C6    C58   S    
C50   H31   S    
C60   H54   S    
C57   H45   S    
C58   H52   S    
C36   C50   S    
C23   O5    A    
C30   N2    A    
C43   H12   S    
C47   H20   S    
C61   H62   S    
C9    H8    S    
C62   H59   S    
C49   H28   S    
C58   H50   S    
C52   H33   S    
O5    Zn1   S    
C10   C23   S    
C48   H25   S    
C39   C43   S    
C54   C55   S    
C5    C59   S    
C20   C47   S    
C32   C33   A    
C61   C62   S    
C29   C31   A    
N2    Zn2   S    
C44   H9    S    
C56   H49   S    
C11   C13   A    
C47   H22   S    
C50   H29   S    
C38   C39   S    
C55   H41   S    
C51   H35   S    
C2    C42   S    
O3    Zn1   S    
C3    H5    S    
C33   C35   A    
C47   H21   S    
C51   C52   S    
C12   O3    A    
C43   C44   S    
C9    C18   A    
C13   C46   S    
C1    C24   S    
C16   C24   A    
C48   H23   S    
C27   C28   A    
C14   C15   A    
C45   H15   S    
C15   C17   A    
C33   C49   S    
C22   C61   S    
C35   C56   S    
C62   H58   S    
C60   H53   S    
C57   H46   S    
C55   H42   S    
