data_mof_unit_13799.cif
_audit_creation_date              2012-12-10T16:45:19-0500
_audit_creation_method            fapswitch 2.2
_symmetry_space_group_name_H-M    P1
_symmetry_Int_Tables_number       1
_space_group_crystal_system       triclinic
_cell_length_a                    7.563481
_cell_length_b                    8.674358
_cell_length_c                    15.80349
_cell_angle_alpha                 95.491199
_cell_angle_beta                  76.640239
_cell_angle_gamma                 102.952893
_cell_volume                      982.059159743

loop_
_atom_site_label
_atom_site_type_symbol
_atom_type_description
_atom_site_fract_x
_atom_site_fract_y
_atom_site_fract_z
_atom_type_partial_charge
C1    C     C_R   0.542871 0.799574 0.504723 0.859722
C2    C     C_R   0.456398 0.200332 0.495893 0.887079
C3    C     C_R   0.328424 0.265995 0.049846 -0.192612
C4    C     C_R   0.655646 0.594006 0.926503 -0.167390
C5    C     C_R   0.191783 0.226139 0.000867 0.713446
C6    C     C_R   0.782839 0.649032 0.978057 0.709576
C7    C     C_2   0.559259 0.967260 0.513546 -0.328925
C8    C     C_2   0.437577 0.032367 0.488414 -0.252223
C9    C     C_R   0.385265 0.466189 0.663067 0.842147
C10   C     C_R   0.612680 0.509371 0.333916 0.838711
C11   C     C_R   0.316947 0.405544 0.752093 -0.196532
C12   C     C_R   0.676285 0.517887 0.237602 -0.227585
C13   C     C_R   0.095939 0.246030 0.865032 0.605273
C14   C     C_R   0.880610 0.656937 0.113950 0.649152
C15   C     C_R   0.146438 0.295254 0.778522 -0.189918
C16   C     C_R   0.842416 0.623210 0.201478 -0.156367
C17   C     C_R   0.448842 0.419685 0.803293 -0.111322
C18   C     C_R   0.556384 0.436368 0.182614 -0.021565
C19   C     C_R   0.386716 0.404746 0.893193 -0.091843
C20   C     C_R   0.594058 0.471128 0.092457 -0.074079
C21   C     C_R   0.217988 0.297748 0.922056 -0.145478
C22   C     C_R   0.754344 0.590561 0.061000 -0.160523
C23   C     C_R   0.505556 0.467575 0.951070 0.027388
C24   C     C_R   0.474453 0.401527 0.033239 0.013510
Cu1   Cu    Cu3+1 0.322120 0.483240 0.490330 1.044850
Cu2   Cu    Cu3+1 0.677880 0.516760 0.509670 1.049132
H1    H     H_    0.319207 0.182961 0.097675 0.204214
H2    H     H_    0.678082 0.649447 0.865212 0.198352
H3    H     H_    0.668867 0.037091 0.543175 0.224494
H4    H     H_    0.326199 0.962538 0.459624 0.207473
N1    N     N_2   0.945180 0.542040 0.524240 -0.232888
N2    N     N_2   0.054820 0.457960 0.475760 -0.226191
O1    O     O_R   0.384450 0.714270 0.493720 -0.604718
O2    O     O_R   0.615550 0.285730 0.506280 -0.598781
O3    O     O_R   0.684880 0.742590 0.510050 -0.572514
O4    O     O_R   0.315120 0.257410 0.489950 -0.548914
O5    O     O_R   0.265540 0.477900 0.617090 -0.543782
O6    O     O_R   0.734460 0.522100 0.382910 -0.546489
O7    O     O_R   0.565970 0.506210 0.633420 -0.587550
O8    O     O_R   0.434030 0.493790 0.366580 -0.592595
F1    F     F_    0.046087 0.104313 0.025940 -0.516156
F2    F     F_    0.929585 0.766673 0.947427 -0.544830
C25   C     C_2   0.384011 0.328237 0.224358 0.877487
O9    O     O_2   0.233405 0.360867 0.227849 -0.507229
O10   O     O_R   0.394854 0.193045 0.262886 -0.742404
H5    H     H_    0.268109 0.130549 0.291104 0.355436
C26   C     C_2   0.605209 0.339589 0.764880 0.956235
O11   O     O_2   0.753993 0.381082 0.786676 -0.549750
O12   O     O_R   0.573559 0.206702 0.708341 -0.776617
H6    H     H_    0.673438 0.142619 0.697352 0.368565
C27   C     C_2   0.969745 0.715506 0.255245 0.967238
O13   O     O_2   0.979173 0.858062 0.268180 -0.582067
O14   O     O_R   0.082502 0.640742 0.288751 -0.674732
H7    H     H_    0.163744 0.716462 0.324087 0.326951
C28   C     C_2   0.048211 0.196429 0.713876 0.976814
O15   O     O_2   0.999785 0.257181 0.659109 -0.489855
O16   O     O_R   0.009624 0.031194 0.714573 -0.705743
H8    H     H_    0.069445 0.989986 0.756395 0.327898
F3    F     F_    0.933004 0.141372 0.891428 -0.578277
F4    F     F_    0.039662 0.762193 0.081742 -0.557471
C29   C     C_2   0.012780 0.662015 0.582654 1.139551
O17   O     O_2   0.057951 0.799316 0.561419 -0.593922
O18   O     O_R   0.996717 0.626828 0.668829 -0.711489
H9    H     H_    0.045507 0.722013 0.705488 0.332726
C30   C     C_2   0.978460 0.316808 0.432322 1.146477
O19   O     O_2   0.934037 0.321574 0.363402 -0.530581
O20   O     O_R   0.976019 0.170763 0.463110 -0.743193
H10   H     H_    0.937337 0.078743 0.422025 0.325203

loop_
_geom_bond_atom_site_label_1
_geom_bond_atom_site_label_2
_ccdc_geom_bond_type
C19   C23   A    
C25   O9    D    
C13   F3    S    
Cu2   O6    S    
C9    C11   S    
N1    C29   S    
N1    N2    D    
C16   C27   S    
C9    O7    A    
C10   O6    A    
C8    H4    S    
Cu1   O8    S    
C14   C22   A    
Cu1   N2    S    
C9    O5    A    
N2    C30   S    
C3    C24   A    
C3    C5    A    
C13   C21   A    
C7    C8    D    
C26   O12   S    
C1    C7    S    
C18   C25   S    
C25   O10   S    
C2    O2    A    
O16   H8    S    
C12   C16   A    
C10   C12   S    
C7    H3    S    
C11   C15   A    
C3    H1    S    
C19   C21   A    
C20   C22   A    
O12   H6    S    
C18   C20   A    
C2    O4    A    
C28   O16   S    
C13   C15   A    
C29   O17   D    
Cu2   O7    S    
C14   C16   A    
C28   O15   D    
Cu1   O1    S    
Cu1   O4    S    
C1    O1    A    
O20   H10   S    
C6    C22   A    
C26   O11   D    
O10   H5    S    
Cu2   O3    S    
Cu2   N1    S    
C27   O13   D    
C27   O14   S    
C1    O3    A    
C4    C6    A    
C30   O19   D    
C6    F2    S    
C12   C18   A    
C14   F4    S    
C29   O18   S    
C4    C23   A    
C20   C24   A    
C11   C17   A    
C10   O8    A    
C5    F1    S    
C23   C24   A    
C17   C19   A    
Cu1   Cu2   S    
O14   H7    S    
C4    H2    S    
Cu2   O2    S    
C2    C8    S    
C17   C26   S    
Cu1   O5    S    
O18   H9    S    
C30   O20   S    
C5    C21   A    
C15   C28   S    
