data_mof_unit_18088.cif
_audit_creation_date              2012-12-10T18:57:09-0500
_audit_creation_method            fapswitch 2.2
_symmetry_space_group_name_H-M    P1
_symmetry_Int_Tables_number       1
_space_group_crystal_system       triclinic
_cell_length_a                    10.942006
_cell_length_b                    9.999986
_cell_length_c                    10.946258
_cell_angle_alpha                 90.032113
_cell_angle_beta                  91.41528
_cell_angle_gamma                 90.012993
_cell_volume                      1197.37292364

loop_
_atom_site_label
_atom_site_type_symbol
_atom_type_description
_atom_site_fract_x
_atom_site_fract_y
_atom_site_fract_z
_atom_type_partial_charge
Br1   Br    Br    0.670729 0.812860 0.877144 -0.585482
Br2   Br    Br    0.324665 0.803367 0.121551 -0.594773
Br3   Br    Br    0.636679 0.152817 0.727363 -0.538286
Br4   Br    Br    0.367856 0.151719 0.270482 -0.543646
C1    C     C_R   0.260115 0.500042 0.492565 0.869484
C2    C     C_R   0.507223 0.612260 0.939109 0.027994
C3    C     C_R   0.500511 0.496240 0.129188 -0.092110
C4    C     C_R   0.505007 0.496088 0.871099 -0.097191
C5    C     C_R   0.504460 0.374722 0.064043 -0.179714
C6    C     C_R   0.501310 0.374603 0.936136 -0.171535
C7    C     C_3   0.507445 0.760279 0.929210 0.116300
C8    C     C_3   0.490214 0.760441 0.070071 0.119674
C9    C     C_R   0.060978 0.380225 0.479880 -0.065905
C10   C     C_R   0.939734 0.379543 0.515504 -0.066695
C11   C     C_R   0.873422 0.499986 0.512058 -0.065656
C12   C     C_R   0.739983 0.499910 0.506646 0.866183
C13   C     C_R   0.126741 0.500528 0.485112 -0.068039
C14   C     C_R   0.936672 0.621338 0.501904 -0.219341
C15   C     C_R   0.063103 0.621545 0.494929 -0.218908
C16   C     C_R   0.401588 0.820968 0.856400 0.180584
C17   C     C_R   0.300937 0.743788 0.813939 -0.038920
C18   C     C_R   0.202408 0.804417 0.753840 -0.120491
C19   C     C_R   0.202302 0.941887 0.736249 -0.165262
C20   C     C_R   0.298774 0.020517 0.780738 -0.130367
C21   C     C_R   0.397221 0.960279 0.842169 -0.089745
C22   C     C_R   0.591244 0.832861 0.139990 0.173410
C23   C     C_R   0.558464 0.069843 0.590594 0.292918
C24   C     C_R   0.693683 0.765511 0.191296 -0.038461
C25   C     C_R   0.792836 0.837678 0.238313 -0.139124
C26   C     C_R   0.791141 0.976611 0.233872 -0.161173
C27   C     C_R   0.690666 0.044831 0.184744 -0.112686
C28   C     C_R   0.591495 0.973120 0.137020 -0.075547
C29   C     C_R   0.103831 0.260119 0.414844 0.171316
C30   C     C_R   0.072320 0.245639 0.290260 -0.145173
C31   C     C_R   0.078212 0.120081 0.234375 -0.085876
C32   C     C_R   0.110645 0.007460 0.303843 -0.071907
C33   C     C_R   0.145528 0.022258 0.426794 -0.167455
C34   C     C_R   0.442065 0.069575 0.409158 0.293988
C35   C     C_R   0.144849 0.148877 0.481301 -0.070694
C36   C     C_R   0.895771 0.255145 0.572793 0.172161
C37   C     C_R   0.933842 0.226817 0.693639 -0.145368
C38   C     C_R   0.925389 0.096687 0.739358 -0.074288
C39   C     C_R   0.883351 0.993138 0.663175 -0.088000
C40   C     C_R   0.843559 0.021347 0.543674 -0.179547
C41   C     C_R   0.846903 0.152623 0.499704 -0.063770
C42   C     C_R   0.562686 0.927936 0.586617 -0.120829
C43   C     C_R   0.437850 0.927756 0.412909 -0.122423
C44   C     C_R   0.499173 0.499415 0.260685 0.894077
C45   C     C_R   0.501894 0.499436 0.739385 0.892221
C46   C     C_R   0.501155 0.612486 0.061616 0.019915
H1    H     H_    0.509347 0.280021 0.110131 0.197340
H2    H     H_    0.296805 0.127936 0.768718 0.140310
H3    H     H_    0.469327 0.022254 0.880183 0.170907
H4    H     H_    0.700661 0.657830 0.190620 0.111643
H5    H     H_    0.872208 0.786104 0.275755 0.134466
H6    H     H_    0.868049 0.031344 0.268520 0.136811
H7    H     H_    0.690994 0.152954 0.181364 0.138647
H8    H     H_    0.516812 0.026565 0.093052 0.169710
H9    H     H_    0.037803 0.330198 0.238173 0.134625
H10   H     H_    0.052593 0.109022 0.138737 0.150404
H11   H     H_    0.110702 0.909478 0.262068 0.176395
H12   H     H_    0.494048 0.279785 0.889969 0.199021
H13   H     H_    0.174714 0.936028 0.479064 0.135885
H14   H     H_    0.170317 0.161120 0.576384 0.115244
H15   H     H_    0.975141 0.304179 0.750335 0.131689
H16   H     H_    0.955606 0.075134 0.832173 0.154655
H17   H     H_    0.880181 0.891658 0.697185 0.168487
H18   H     H_    0.808459 0.941767 0.486126 0.143262
H19   H     H_    0.816181 0.175421 0.407716 0.120667
H20   H     H_    0.889191 0.716135 0.502216 0.157819
H21   H     H_    0.110468 0.716297 0.494932 0.159779
H22   H     H_    0.616945 0.873905 0.651954 0.215955
H23   H     H_    0.385338 0.873729 0.345818 0.215608
H24   H     H_    0.295881 0.637363 0.829431 0.106869
H25   H     H_    0.125229 0.745095 0.722449 0.135863
H26   H     H_    0.126489 0.986613 0.688737 0.133730
N1    N     N_R   0.500000 0.857200 0.500000 -0.128233
N2    N     N_R   0.500000 0.142810 0.500000 -0.138428
O1    O     O_R   0.316770 0.614620 0.499990 -0.622409
O2    O     O_R   0.683230 0.614620 0.500010 -0.627333
O3    O     O_R   0.316800 0.385290 0.500000 -0.602446
O4    O     O_R   0.683200 0.385290 0.500000 -0.602117
O5    O     O_R   0.500000 0.614690 0.316780 -0.613626
O6    O     O_R   0.500000 0.614690 0.683220 -0.609825
O7    O     O_R   0.500020 0.385360 0.316780 -0.589088
O8    O     O_R   0.499980 0.385360 0.683220 -0.590261
Zn1   Zn    Zn3+2 0.500000 0.653120 0.500000 0.977815
Zn2   Zn    Zn3+2 0.500000 0.346880 0.500000 1.014322

loop_
_geom_bond_atom_site_label_1
_geom_bond_atom_site_label_2
_ccdc_geom_bond_type
C14   H20   S    
C11   C14   A    
O5    Zn1   S    
C20   H2    S    
C37   C38   A    
C15   H21   S    
C31   C32   A    
Br1   C7    S    
O6    Zn1   S    
C28   H8    S    
C19   H26   S    
C23   N2    A    
Br2   C8    S    
O1    Zn1   S    
C22   C28   A    
C35   H14   S    
C29   C35   A    
C45   O6    A    
C24   C25   A    
C21   H3    S    
C14   C15   A    
O2    Zn1   S    
C26   C27   A    
O8    Zn2   S    
C1    C13   S    
C16   C21   A    
C11   C12   S    
C30   C31   A    
C5    H1    S    
C19   C20   A    
C1    O1    A    
C5    C6    A    
C42   H22   S    
C17   C18   A    
C6    H12   S    
C18   H25   S    
C33   H13   S    
C18   C19   A    
C36   C41   A    
C7    C16   S    
C41   H19   S    
C20   C21   A    
C43   H23   S    
C2    C7    S    
C24   H4    S    
C2    C4    A    
C34   N2    A    
C26   H6    S    
C17   H24   S    
C8    C22   S    
C31   H10   S    
C12   O2    A    
C39   C40   A    
C9    C29   S    
C25   C26   A    
C1    O3    A    
C27   C28   A    
C12   O4    A    
C29   C30   A    
C2    C46   A    
C34   C43   A    
C23   C42   A    
C39   H17   S    
C36   C37   A    
Br4   C34   S    
C30   H9    S    
C40   H18   S    
C38   C39   A    
C43   N1    A    
C32   H11   S    
C40   C41   A    
O7    Zn2   S    
N2    Zn2   S    
C3    C5    A    
C32   C33   A    
C44   O7    A    
C45   O8    A    
C3    C46   A    
C42   N1    A    
C8    C46   S    
C7    C8    S    
C25   H5    S    
C22   C24   A    
C44   O5    A    
C9    C13   A    
C3    C44   S    
C27   H7    S    
Br3   C23   S    
C33   C35   A    
O4    Zn2   S    
C13   C15   A    
C37   H15   S    
O3    Zn2   S    
C10   C36   S    
C16   C17   A    
N1    Zn1   S    
C4    C6    A    
C38   H16   S    
C10   C11   A    
C9    C10   A    
C4    C45   S    
