data_mof_unit_65931.cif
_audit_creation_date              2012-12-11T16:36:07-0500
_audit_creation_method            fapswitch 2.2
_symmetry_space_group_name_H-M    P1
_symmetry_Int_Tables_number       1
_space_group_crystal_system       triclinic
_cell_length_a                    22.054414
_cell_length_b                    21.432398
_cell_length_c                    22.277055
_cell_angle_alpha                 90.00002
_cell_angle_beta                  89.999982
_cell_angle_gamma                 89.99999
_cell_volume                      10529.8956015

loop_
_atom_site_label
_atom_site_type_symbol
_atom_type_description
_atom_site_fract_x
_atom_site_fract_y
_atom_site_fract_z
_atom_type_partial_charge
C1    C     C_R   0.415504 0.659890 0.572076 0.634011
C2    C     C_R   0.566702 0.638671 0.610024 0.541812
C3    C     C_R   0.837059 0.227981 0.736145 -0.208965
C4    C     C_R   0.804570 0.877100 0.288812 -0.224867
C5    C     C_R   0.287954 0.243351 0.889151 -0.225917
C6    C     C_R   0.795278 0.293680 0.163060 -0.204719
C7    C     C_R   0.162940 0.772019 0.736145 -0.208963
C8    C     C_R   0.195429 0.877099 0.711188 -0.224867
C9    C     C_R   0.712047 0.243351 0.110848 -0.225917
C10   C     C_R   0.204722 0.293679 0.836940 -0.204722
C11   C     C_R   0.837060 0.772020 0.263856 -0.208963
C12   C     C_R   0.804570 0.122901 0.711189 -0.224866
C13   C     C_R   0.644272 0.426860 0.396928 0.533918
C14   C     C_R   0.287954 0.756649 0.110849 -0.225917
C15   C     C_R   0.795278 0.706320 0.836940 -0.204722
C16   C     C_R   0.162940 0.227981 0.263855 -0.208964
C17   C     C_R   0.671308 0.601463 0.735009 -0.142736
C18   C     C_R   0.252723 0.298347 0.415259 -0.177064
C19   C     C_R   0.664726 0.249233 0.638983 -0.164616
C20   C     C_R   0.360161 0.706731 0.290375 -0.166991
C21   C     C_R   0.328691 0.398536 0.735008 -0.142742
C22   C     C_R   0.747276 0.701654 0.415259 -0.177066
C23   C     C_R   0.335274 0.750767 0.638983 -0.164619
C24   C     C_R   0.344521 0.587944 0.580301 0.529448
C25   C     C_R   0.639837 0.293271 0.290373 -0.166998
C26   C     C_R   0.671306 0.398539 0.264989 -0.142723
C27   C     C_R   0.252723 0.701652 0.584742 -0.177066
C28   C     C_R   0.664726 0.750767 0.361017 -0.164618
C29   C     C_R   0.360159 0.293268 0.709624 -0.166988
C30   C     C_R   0.328692 0.601463 0.264991 -0.142736
C31   C     C_R   0.747276 0.298348 0.584742 -0.177067
C32   C     C_R   0.335274 0.249233 0.361018 -0.164621
C33   C     C_R   0.639840 0.706731 0.709625 -0.166990
C34   C     C_R   0.171308 0.101463 0.235009 -0.142737
C35   C     C_R   0.584496 0.659890 0.427924 0.634011
C36   C     C_R   0.752724 0.798348 0.915258 -0.177065
C37   C     C_R   0.164726 0.749233 0.138983 -0.164619
C38   C     C_R   0.860160 0.206731 0.790375 -0.166990
C39   C     C_R   0.828692 0.898538 0.235010 -0.142730
C40   C     C_R   0.247276 0.201653 0.915259 -0.177065
C41   C     C_R   0.835274 0.250767 0.138983 -0.164619
C42   C     C_R   0.139839 0.793269 0.790375 -0.166992
C43   C     C_R   0.171308 0.898537 0.764991 -0.142733
C44   C     C_R   0.752724 0.201653 0.084741 -0.177066
C45   C     C_R   0.164726 0.250767 0.861017 -0.164620
C46   C     C_R   0.433298 0.361328 0.610023 0.541813
C47   C     C_R   0.860161 0.793270 0.209626 -0.166993
C48   C     C_R   0.828692 0.101463 0.764991 -0.142736
C49   C     C_R   0.247276 0.798347 0.084741 -0.177066
C50   C     C_R   0.835274 0.749233 0.861017 -0.164618
C51   C     C_R   0.139839 0.206731 0.209625 -0.166989
C52   C     C_3   0.409509 0.744375 0.507615 -0.156402
C53   C     C_3   0.497934 0.343021 0.315808 -0.248091
C54   C     C_3   0.737769 0.608215 0.576695 -0.140085
C55   C     C_3   0.265327 0.438916 0.360029 -0.095297
C56   C     C_3   0.590491 0.255626 0.507614 -0.156400
C57   C     C_R   0.355726 0.573142 0.396930 0.533927
C58   C     C_3   0.502064 0.656979 0.315808 -0.248086
C59   C     C_3   0.262229 0.391782 0.576698 -0.140080
C60   C     C_3   0.734673 0.561085 0.360029 -0.095287
C61   C     C_3   0.409509 0.255624 0.492385 -0.156401
C62   C     C_3   0.497936 0.656980 0.684191 -0.248082
C63   C     C_3   0.737766 0.391790 0.423310 -0.140086
C64   C     C_3   0.265328 0.561083 0.639972 -0.095300
C65   C     C_3   0.590490 0.744375 0.492385 -0.156400
C66   C     C_3   0.502063 0.343020 0.684191 -0.248080
C67   C     C_3   0.262231 0.608215 0.423305 -0.140080
C68   C     C_R   0.655478 0.412056 0.580302 0.529434
C69   C     C_3   0.734672 0.438917 0.639973 -0.095289
C70   C     C_3   0.909509 0.244375 0.007615 -0.156400
C71   C     C_3   0.997936 0.843020 0.815808 -0.248084
C72   C     C_3   0.237769 0.108215 0.076696 -0.140086
C73   C     C_3   0.765328 0.938917 0.860028 -0.095294
C74   C     C_3   0.090491 0.755625 0.007615 -0.156402
C75   C     C_3   0.002064 0.156980 0.815809 -0.248085
C76   C     C_3   0.762232 0.891787 0.076693 -0.140087
C77   C     C_3   0.234673 0.061083 0.860028 -0.095297
C78   C     C_3   0.909509 0.755625 0.992386 -0.156401
C79   C     C_R   0.915504 0.159890 0.072076 0.634011
C80   C     C_3   0.997936 0.156979 0.184192 -0.248085
C81   C     C_3   0.237768 0.891786 0.923307 -0.140079
C82   C     C_3   0.765327 0.061084 0.139971 -0.095288
C83   C     C_3   0.090490 0.244375 0.992385 -0.156403
C84   C     C_3   0.002064 0.843021 0.184192 -0.248084
C85   C     C_3   0.762231 0.108215 0.923305 -0.140083
C86   C     C_3   0.234672 0.938917 0.139972 -0.095294
C87   C     C_R   0.066701 0.861329 0.889976 0.541811
C88   C     C_R   0.144274 0.073142 0.103069 0.533931
C89   C     C_R   0.566700 0.361330 0.389975 0.541809
C90   C     C_R   0.844521 0.912055 0.919698 0.529443
C91   C     C_R   0.084496 0.840110 0.072076 0.634013
C92   C     C_R   0.933298 0.138671 0.889976 0.541812
C93   C     C_R   0.855727 0.926859 0.103071 0.533925
C94   C     C_R   0.155479 0.087944 0.919699 0.529451
C95   C     C_R   0.915504 0.840110 0.927924 0.634012
C96   C     C_R   0.066702 0.138671 0.110023 0.541813
C97   C     C_R   0.144273 0.926859 0.896930 0.533926
C98   C     C_R   0.844521 0.087944 0.080301 0.529450
C99   C     C_R   0.084496 0.159890 0.927924 0.634010
C100  C     C_R   0.644274 0.573142 0.603070 0.533933
C101  C     C_R   0.933299 0.861329 0.110024 0.541810
C102  C     C_R   0.855726 0.073142 0.896930 0.533930
C103  C     C_R   0.155479 0.912056 0.080301 0.529446
C104  C     C_R   0.692326 0.686452 0.802838 0.130194
C105  C     C_R   0.233104 0.212611 0.347592 0.134438
C106  C     C_R   0.766895 0.212611 0.652408 0.134437
C107  C     C_R   0.307674 0.686451 0.197161 0.130193
C108  C     C_R   0.307673 0.313548 0.802838 0.130194
C109  C     C_R   0.766895 0.787389 0.347592 0.134437
C110  C     C_R   0.233104 0.787389 0.652408 0.134438
C111  C     C_R   0.344521 0.412055 0.419699 0.529458
C112  C     C_R   0.692326 0.313550 0.197160 0.130193
C113  C     C_R   0.192326 0.186452 0.302839 0.130193
C114  C     C_R   0.733104 0.712612 0.847592 0.134438
C115  C     C_R   0.266895 0.712611 0.152408 0.134438
C116  C     C_R   0.807673 0.186451 0.697162 0.130194
C117  C     C_R   0.807673 0.813549 0.302839 0.130194
C118  C     C_R   0.266895 0.287388 0.847592 0.134438
C119  C     C_R   0.733104 0.287389 0.152407 0.134437
C120  C     C_R   0.192326 0.813549 0.697161 0.130194
C121  C     C_R   0.644641 0.643507 0.694660 0.208769
C122  C     C_R   0.584496 0.340110 0.572077 0.634012
C123  C     C_R   0.313759 0.297747 0.397398 0.207297
C124  C     C_R   0.686241 0.297748 0.602604 0.207298
C125  C     C_R   0.355359 0.643507 0.305340 0.208769
C126  C     C_R   0.355357 0.356492 0.694659 0.208765
C127  C     C_R   0.686241 0.702253 0.397397 0.207297
C128  C     C_R   0.313759 0.702252 0.602603 0.207297
C129  C     C_R   0.644639 0.356495 0.305338 0.208777
C130  C     C_R   0.144642 0.143508 0.194660 0.208767
C131  C     C_R   0.813759 0.797748 0.897397 0.207297
C132  C     C_R   0.186241 0.797748 0.102603 0.207297
C133  C     C_R   0.433298 0.638671 0.389976 0.541812
C134  C     C_R   0.855359 0.143507 0.805340 0.208768
C135  C     C_R   0.855359 0.856494 0.194661 0.208771
C136  C     C_R   0.186241 0.202252 0.897397 0.207298
C137  C     C_R   0.813759 0.202252 0.102603 0.207297
C138  C     C_R   0.144641 0.856493 0.805340 0.208771
C139  C     C_R   0.355650 0.651554 0.587273 -0.422536
C140  C     C_R   0.620133 0.379445 0.362078 -0.379249
C141  C     C_R   0.620135 0.620557 0.637919 -0.379260
C142  C     C_R   0.355650 0.348446 0.412728 -0.422538
C143  C     C_R   0.644350 0.348446 0.587274 -0.422536
C144  C     C_R   0.355725 0.426857 0.603069 0.533935
C145  C     C_R   0.379865 0.620557 0.362080 -0.379258
C146  C     C_R   0.379864 0.379441 0.637918 -0.379263
C147  C     C_R   0.644350 0.651554 0.412727 -0.422537
C148  C     C_R   0.855650 0.151554 0.087273 -0.422537
C149  C     C_R   0.120135 0.879443 0.862080 -0.379256
C150  C     C_R   0.120135 0.120558 0.137919 -0.379260
C151  C     C_R   0.855650 0.848446 0.912727 -0.422537
C152  C     C_R   0.144350 0.848446 0.087273 -0.422537
C153  C     C_R   0.879865 0.120557 0.862080 -0.379260
C154  C     C_R   0.879866 0.879444 0.137921 -0.379255
C155  C     C_R   0.655479 0.587945 0.419699 0.529451
C156  C     C_R   0.144350 0.151554 0.912727 -0.422536
C157  C     C_R   0.695430 0.622901 0.788811 -0.224865
C158  C     C_R   0.212046 0.256649 0.389151 -0.225918
C159  C     C_R   0.704722 0.206320 0.663060 -0.204723
C160  C     C_R   0.337060 0.727981 0.236145 -0.208963
C161  C     C_R   0.304570 0.377099 0.788811 -0.224864
C162  C     C_R   0.787953 0.743352 0.389152 -0.225917
C163  C     C_R   0.295278 0.793680 0.663060 -0.204721
C164  C     C_R   0.662939 0.272021 0.236144 -0.208961
C165  C     C_R   0.695429 0.377100 0.211187 -0.224869
C166  C     C_R   0.415503 0.340110 0.427924 0.634014
C167  C     C_R   0.212046 0.743350 0.610849 -0.225917
C168  C     C_R   0.704722 0.793679 0.336940 -0.204721
C169  C     C_R   0.337059 0.272018 0.763854 -0.208965
C170  C     C_R   0.304570 0.622901 0.211189 -0.224865
C171  C     C_R   0.787953 0.256649 0.610849 -0.225914
C172  C     C_R   0.295278 0.206320 0.336940 -0.204721
C173  C     C_R   0.662941 0.727981 0.763855 -0.208964
C174  C     C_R   0.195430 0.122901 0.288811 -0.224866
C175  C     C_R   0.712046 0.756650 0.889151 -0.225917
C176  C     C_R   0.204722 0.706320 0.163060 -0.204722
H1    H     H_    0.719234 0.590733 0.817999 0.120712
H2    H     H_    0.163932 0.738144 0.602468 0.123453
H3    H     H_    0.223081 0.533024 0.641364 0.167757
H4    H     H_    0.619495 0.782030 0.473912 0.133244
H5    H     H_    0.618955 0.711704 0.519217 0.084641
H6    H     H_    0.557820 0.766435 0.523709 0.197187
H7    H     H_    0.471309 0.341504 0.723462 0.150932
H8    H     H_    0.518910 0.391534 0.677390 0.097112
H9    H     H_    0.541768 0.313677 0.695620 0.154297
H10   H     H_    0.283005 0.626469 0.465321 0.120689
H11   H     H_    0.215871 0.591898 0.434519 0.160941
H12   H     H_    0.257872 0.646245 0.389661 0.112304
H13   H     H_    0.687869 0.827182 0.304537 0.126654
H14   H     H_    0.746477 0.391711 0.656215 0.097819
H15   H     H_    0.701877 0.460331 0.671858 0.102173
H16   H     H_    0.776917 0.466976 0.641366 0.167756
H17   H     H_    0.881045 0.211704 0.980783 0.084641
H18   H     H_    0.942179 0.266435 0.976291 0.197187
H19   H     H_    0.880505 0.282030 0.026088 0.133244
H20   H     H_    0.028689 0.841503 0.776537 0.150932
H21   H     H_    0.981089 0.891534 0.822610 0.097113
H22   H     H_    0.958231 0.813677 0.804380 0.154298
H23   H     H_    0.242129 0.146244 0.110341 0.112307
H24   H     H_    0.337936 0.222418 0.773266 0.123730
H25   H     H_    0.216995 0.126472 0.034681 0.120686
H26   H     H_    0.284129 0.091899 0.065481 0.160942
H27   H     H_    0.753522 0.891711 0.843786 0.097820
H28   H     H_    0.798122 0.960331 0.828143 0.102175
H29   H     H_    0.723082 0.966975 0.858635 0.167757
H30   H     H_    0.118955 0.788296 0.980783 0.084641
H31   H     H_    0.057821 0.733565 0.976290 0.197188
H32   H     H_    0.119495 0.717970 0.026087 0.133245
H33   H     H_    0.971310 0.158496 0.776537 0.150933
H34   H     H_    0.018911 0.108466 0.822610 0.097113
H35   H     H_    0.280765 0.590733 0.182001 0.120712
H36   H     H_    0.041769 0.186323 0.804380 0.154298
H37   H     H_    0.757876 0.853753 0.110334 0.112302
H38   H     H_    0.783005 0.873537 0.034675 0.120700
H39   H     H_    0.715871 0.908103 0.065483 0.160941
H40   H     H_    0.246478 0.108289 0.843787 0.097819
H41   H     H_    0.201879 0.039669 0.828143 0.102177
H42   H     H_    0.276919 0.033025 0.858636 0.167757
H43   H     H_    0.880504 0.717970 0.973913 0.133244
H44   H     H_    0.881045 0.788297 0.019217 0.084640
H45   H     H_    0.942179 0.733565 0.023710 0.197188
H46   H     H_    0.836068 0.261856 0.602469 0.123453
H47   H     H_    0.028690 0.158496 0.223463 0.150933
H48   H     H_    0.981090 0.108465 0.177390 0.097113
H49   H     H_    0.958231 0.186322 0.195621 0.154298
H50   H     H_    0.216994 0.873533 0.965323 0.120691
H51   H     H_    0.284128 0.908102 0.934519 0.160942
H52   H     H_    0.242126 0.853754 0.889664 0.112303
H53   H     H_    0.753520 0.108290 0.156212 0.097818
H54   H     H_    0.798121 0.039670 0.171857 0.102175
H55   H     H_    0.723081 0.033025 0.141363 0.167756
H56   H     H_    0.119495 0.282030 0.973913 0.133245
H57   H     H_    0.312130 0.172818 0.304538 0.126654
H58   H     H_    0.118955 0.211704 0.019217 0.084641
H59   H     H_    0.057821 0.266435 0.023710 0.197188
H60   H     H_    0.971311 0.841504 0.223463 0.150932
H61   H     H_    0.018911 0.891535 0.177390 0.097113
H62   H     H_    0.041770 0.813678 0.195620 0.154297
H63   H     H_    0.783005 0.126471 0.965319 0.120686
H64   H     H_    0.715871 0.091899 0.934519 0.160942
H65   H     H_    0.757871 0.146244 0.889659 0.112306
H66   H     H_    0.246478 0.891711 0.156214 0.097819
H67   H     H_    0.201878 0.960331 0.171857 0.102175
H68   H     H_    0.662063 0.777582 0.773266 0.123730
H69   H     H_    0.276918 0.966975 0.141364 0.167756
H70   H     H_    0.219235 0.090733 0.317999 0.120712
H71   H     H_    0.663932 0.761856 0.897532 0.123453
H72   H     H_    0.187869 0.672817 0.195462 0.126654
H73   H     H_    0.163932 0.261855 0.397532 0.123453
H74   H     H_    0.837937 0.277582 0.726734 0.123730
H75   H     H_    0.780764 0.909268 0.317999 0.120713
H76   H     H_    0.336068 0.238144 0.897532 0.123453
H77   H     H_    0.812130 0.327182 0.195463 0.126655
H78   H     H_    0.162063 0.722418 0.726733 0.123730
H79   H     H_    0.219234 0.909267 0.682000 0.120712
H80   H     H_    0.663932 0.238146 0.102467 0.123453
H81   H     H_    0.187869 0.327182 0.804538 0.126653
H82   H     H_    0.837937 0.722419 0.273267 0.123730
H83   H     H_    0.780765 0.090733 0.682001 0.120713
H84   H     H_    0.687869 0.172817 0.695462 0.126654
H85   H     H_    0.336068 0.761855 0.102468 0.123453
H86   H     H_    0.812130 0.672817 0.804538 0.126654
H87   H     H_    0.162063 0.277582 0.273267 0.123730
H88   H     H_    0.674246 0.552301 0.724515 0.116145
H89   H     H_    0.235600 0.333971 0.445143 0.149436
H90   H     H_    0.617574 0.246887 0.652191 0.151778
H91   H     H_    0.380301 0.739817 0.321229 0.155066
H92   H     H_    0.325752 0.447698 0.724513 0.116145
H93   H     H_    0.764399 0.666030 0.445143 0.149432
H94   H     H_    0.382425 0.753113 0.652190 0.151778
H95   H     H_    0.337937 0.777582 0.226733 0.123729
H96   H     H_    0.619697 0.260185 0.321227 0.155066
H97   H     H_    0.674245 0.447701 0.275483 0.116145
H98   H     H_    0.235600 0.666028 0.554859 0.149434
H99   H     H_    0.617574 0.753113 0.347809 0.151777
H100  H     H_    0.380300 0.260182 0.678770 0.155065
H101  H     H_    0.325753 0.552301 0.275485 0.116146
H102  H     H_    0.764400 0.333972 0.554859 0.149430
H103  H     H_    0.382426 0.246887 0.347810 0.151779
H104  H     H_    0.619699 0.739817 0.678771 0.155065
H105  H     H_    0.174247 0.052301 0.224514 0.116145
H106  H     H_    0.280765 0.409267 0.817998 0.120712
H107  H     H_    0.735600 0.833972 0.945142 0.149432
H108  H     H_    0.117574 0.746887 0.152190 0.151778
H109  H     H_    0.880301 0.239817 0.821229 0.155065
H110  H     H_    0.825753 0.947700 0.224515 0.116146
H111  H     H_    0.264400 0.166028 0.945142 0.149434
H112  H     H_    0.882425 0.253113 0.152192 0.151777
H113  H     H_    0.119699 0.760183 0.821229 0.155066
H114  H     H_    0.174246 0.947699 0.775485 0.116145
H115  H     H_    0.735600 0.166029 0.054857 0.149433
H116  H     H_    0.117574 0.253113 0.847810 0.151779
H117  H     H_    0.836067 0.738146 0.397533 0.123453
H118  H     H_    0.880302 0.760184 0.178772 0.155066
H119  H     H_    0.825753 0.052301 0.775485 0.116145
H120  H     H_    0.264400 0.833972 0.054858 0.149433
H121  H     H_    0.882426 0.746887 0.847810 0.151778
H122  H     H_    0.119699 0.239817 0.178771 0.155065
H123  H     H_    0.381045 0.711703 0.480783 0.084641
H124  H     H_    0.442179 0.766435 0.476290 0.197188
H125  H     H_    0.380504 0.782030 0.526087 0.133245
H126  H     H_    0.528687 0.341501 0.276536 0.150935
H127  H     H_    0.481091 0.391537 0.322607 0.097114
H128  H     H_    0.312130 0.827183 0.695462 0.126654
H129  H     H_    0.458227 0.313681 0.304381 0.154297
H130  H     H_    0.742129 0.646244 0.610341 0.112306
H131  H     H_    0.716995 0.626471 0.534681 0.120686
H132  H     H_    0.784129 0.591899 0.565481 0.160942
H133  H     H_    0.253521 0.391711 0.343788 0.097819
H134  H     H_    0.298120 0.460331 0.328144 0.102176
H135  H     H_    0.223080 0.466975 0.358638 0.167757
H136  H     H_    0.618955 0.288298 0.480783 0.084640
H137  H     H_    0.557821 0.233565 0.476290 0.197187
H138  H     H_    0.619496 0.217971 0.526087 0.133244
H139  H     H_    0.662062 0.222419 0.226732 0.123730
H140  H     H_    0.471310 0.658496 0.276537 0.150933
H141  H     H_    0.518911 0.608465 0.322610 0.097113
H142  H     H_    0.541769 0.686322 0.304379 0.154298
H143  H     H_    0.257865 0.353759 0.610348 0.112312
H144  H     H_    0.283006 0.373518 0.534687 0.120669
H145  H     H_    0.215871 0.408100 0.565477 0.160944
H146  H     H_    0.746480 0.608290 0.343788 0.097818
H147  H     H_    0.701879 0.539671 0.328143 0.102178
H148  H     H_    0.776919 0.533026 0.358637 0.167756
H149  H     H_    0.380505 0.217969 0.473912 0.133244
H150  H     H_    0.719234 0.409268 0.181999 0.120712
H151  H     H_    0.381045 0.288295 0.519217 0.084641
H152  H     H_    0.442179 0.233564 0.523709 0.197187
H153  H     H_    0.528690 0.658497 0.723462 0.150932
H154  H     H_    0.481089 0.608466 0.677390 0.097112
H155  H     H_    0.458231 0.686323 0.695620 0.154297
H156  H     H_    0.716995 0.373551 0.465332 0.120719
H157  H     H_    0.784129 0.408105 0.434513 0.160938
H158  H     H_    0.742117 0.353750 0.389676 0.112295
H159  H     H_    0.253522 0.608288 0.656214 0.097820
H160  H     H_    0.298122 0.539667 0.671856 0.102174
N1    N     N_R   0.440580 0.604630 0.559510 -0.137282
N2    N     N_R   0.559420 0.604630 0.559510 -0.134460
N3    N     N_R   0.604630 0.440580 0.440490 -0.131245
N4    N     N_R   0.395370 0.559420 0.559510 -0.138650
N5    N     N_R   0.559420 0.604630 0.440490 -0.137282
N6    N     N_R   0.440580 0.395370 0.559510 -0.134460
N7    N     N_R   0.395370 0.559420 0.440490 -0.131243
N8    N     N_R   0.604630 0.440580 0.559510 -0.138649
N9    N     N_R   0.940580 0.104630 0.059510 -0.137282
N10   N     N_R   0.059420 0.895370 0.940490 -0.134460
N11   N     N_R   0.104630 0.059420 0.059510 -0.131242
N12   N     N_R   0.559420 0.395370 0.440490 -0.134459
N13   N     N_R   0.895370 0.940580 0.940490 -0.138650
N14   N     N_R   0.059420 0.895370 0.059510 -0.137282
N15   N     N_R   0.940580 0.104630 0.940490 -0.134460
N16   N     N_R   0.895370 0.940580 0.059510 -0.131244
N17   N     N_R   0.104630 0.059420 0.940490 -0.138651
N18   N     N_R   0.940580 0.895370 0.940490 -0.137282
N19   N     N_R   0.059420 0.104630 0.059510 -0.134460
N20   N     N_R   0.104630 0.940580 0.940490 -0.131243
N21   N     N_R   0.895370 0.059420 0.059510 -0.138650
N22   N     N_R   0.059420 0.104630 0.940490 -0.137282
N23   N     N_R   0.604630 0.559420 0.559510 -0.131243
N24   N     N_R   0.940580 0.895370 0.059510 -0.134459
N25   N     N_R   0.895370 0.059420 0.940490 -0.131242
N26   N     N_R   0.104630 0.940580 0.059510 -0.138650
N27   N     N_R   0.395370 0.440580 0.440490 -0.138651
N28   N     N_R   0.559420 0.395370 0.559510 -0.137281
N29   N     N_R   0.440580 0.604630 0.440490 -0.134460
N30   N     N_R   0.395370 0.440580 0.559510 -0.131242
N31   N     N_R   0.604630 0.559420 0.440490 -0.138650
N32   N     N_R   0.440580 0.395370 0.440490 -0.137282
Ni1   Ni    Ni4+2 0.500000 0.603690 0.500000 0.235099
Ni2   Ni    Ni4+2 0.500000 0.396310 0.500000 0.235099
Ni3   Ni    Ni4+2 0.603690 0.500000 0.500000 0.249456
Ni4   Ni    Ni4+2 0.396310 0.500000 0.500000 0.249466
Ni5   Ni    Ni4+2 0.000000 0.103690 0.000000 0.235099
Ni6   Ni    Ni4+2 0.000000 0.896310 0.000000 0.235099
Ni7   Ni    Ni4+2 0.103690 0.000000 0.000000 0.249462
Ni8   Ni    Ni4+2 0.896310 0.000000 0.000000 0.249460
O1    O     O_3   0.442437 0.715525 0.554526 -0.578230
O2    O     O_3   0.525627 0.681513 0.631933 -0.581077
O3    O     O_3   0.704753 0.442416 0.399502 -0.581622
O4    O     O_3   0.287768 0.561006 0.580360 -0.568159
O5    O     O_3   0.557563 0.715525 0.445474 -0.578230
O6    O     O_3   0.474372 0.318486 0.631933 -0.581077
O7    O     O_3   0.295245 0.557585 0.399506 -0.581615
O8    O     O_3   0.712232 0.438994 0.580361 -0.568167
O9    O     O_3   0.942437 0.215525 0.054527 -0.578230
O10   O     O_3   0.025627 0.818487 0.868067 -0.581077
O11   O     O_3   0.204755 0.057585 0.100493 -0.581613
O12   O     O_3   0.525625 0.318488 0.368066 -0.581077
O13   O     O_3   0.787768 0.938994 0.919640 -0.568162
O14   O     O_3   0.057563 0.784475 0.054526 -0.578230
O15   O     O_3   0.974373 0.181513 0.868067 -0.581076
O16   O     O_3   0.795246 0.942416 0.100495 -0.581617
O17   O     O_3   0.212232 0.061006 0.919640 -0.568159
O18   O     O_3   0.942437 0.784475 0.945474 -0.578231
O19   O     O_3   0.025627 0.181513 0.131933 -0.581076
O20   O     O_3   0.204754 0.942415 0.899506 -0.581616
O21   O     O_3   0.787767 0.061006 0.080359 -0.568160
O22   O     O_3   0.057563 0.215525 0.945474 -0.578230
O23   O     O_3   0.704754 0.557585 0.600493 -0.581612
O24   O     O_3   0.974373 0.818487 0.131934 -0.581077
O25   O     O_3   0.795245 0.057585 0.899507 -0.581613
O26   O     O_3   0.212232 0.938994 0.080360 -0.568161
O27   O     O_3   0.287767 0.438994 0.419641 -0.568156
O28   O     O_3   0.557563 0.284475 0.554527 -0.578230
O29   O     O_3   0.474373 0.681513 0.368066 -0.581076
O30   O     O_3   0.295245 0.442415 0.600491 -0.581610
O31   O     O_3   0.712232 0.561006 0.419640 -0.568162
O32   O     O_3   0.442437 0.284475 0.445474 -0.578231

loop_
_geom_bond_atom_site_label_1
_geom_bond_atom_site_label_2
_ccdc_geom_bond_type
C82   H55   S    
C44   C137  A    
C57   C145  A    
C52   O1    S    
C131  C151  S    
C5    H76   S    
C88   N11   A    
C104  C157  A    
C16   C113  A    
C69   H15   S    
C56   H137  S    
N3    N12   A    
C174  H70   S    
C66   H9    S    
C52   H123  S    
C166  O32   S    
C44   H115  S    
C128  C139  S    
C53   H126  S    
C101  N24   A    
C111  O27   S    
C2    N2    A    
C83   H56   S    
C25   C164  A    
C43   H114  S    
C62   O2    S    
C97   N20   A    
C68   C143  A    
C7    C42   A    
C47   H118  S    
C111  C142  A    
C11   C47   A    
C76   H37   S    
C70   H19   S    
C100  O23   S    
C57   O7    S    
N2    N23   A    
C3    H74   S    
C80   H49   S    
C147  C155  A    
N24   Ni6   S    
C65   H6    S    
C29   H100  S    
C175  H71   S    
C32   C172  A    
C91   O14   S    
C20   H91   S    
N10   N20   A    
C56   H138  S    
C112  C164  A    
C75   H36   S    
C79   N9    A    
C69   O8    S    
C161  H106  S    
C155  O31   S    
C88   O11   S    
C63   H158  S    
N23   Ni3   S    
C34   C174  A    
C78   H43   S    
C112  C119  S    
C27   C128  A    
C105  C158  A    
C86   H66   S    
C96   C150  A    
C99   C156  A    
C76   O16   S    
C95   N18   A    
C155  N31   A    
C102  C153  A    
C59   H144  S    
C103  C152  A    
C169  H24   S    
C4    H75   S    
C82   H53   S    
C83   H59   S    
C13   O3    S    
C133  C145  A    
C79   O9    S    
C24   O4    S    
N1    N4    A    
C61   H152  S    
C8    H79   S    
N6    N30   A    
C52   H125  S    
N16   Ni8   S    
N5    N31   A    
C79   C148  A    
C65   H4    S    
C58   O29   S    
C100  C141  A    
C20   C125  A    
C80   H47   S    
C64   H160  S    
C76   H39   S    
C77   H41   S    
C22   C127  A    
C46   C146  A    
C70   H17   S    
C112  C165  A    
C78   O18   S    
C38   C134  A    
C50   C131  A    
C28   C168  A    
C166  N32   A    
C167  H2    S    
C133  O29   S    
C6    H77   S    
C36   C175  A    
C20   C160  A    
C90   O13   S    
C29   C169  A    
C21   C126  A    
C92   N15   A    
C77   H40   S    
C23   C128  A    
C23   H94   S    
C67   O7    S    
N27   N32   A    
C137  C148  S    
C84   H61   S    
C158  H73   S    
C176  H72   S    
C73   H27   S    
C48   C134  A    
C55   H134  S    
C93   N16   A    
C3    C116  A    
N8    N28   A    
C59   O30   S    
C134  C153  S    
C106  C159  A    
C72   O11   S    
C61   H149  S    
C95   O18   S    
N15   N25   A    
C130  C150  S    
C63   O3    S    
C83   H58   S    
C92   C153  A    
C98   N21   A    
C17   C157  A    
C13   N3    A    
C28   C127  A    
N29   Ni1   S    
C164  H139  S    
C89   C140  A    
C24   N4    A    
C30   C125  A    
C32   C123  A    
C122  C143  A    
C103  N26   A    
C74   H31   S    
C138  C149  S    
C61   O32   S    
C81   H50   S    
C99   N22   A    
C54   H131  S    
C87   N10   A    
C64   H3    S    
C62   H154  S    
C28   H99   S    
C157  H1    S    
C103  O26   S    
C53   H129  S    
C109  C168  A    
C142  C166  A    
C110  C167  A    
C99   O22   S    
C93   O16   S    
C10   C45   A    
C10   H81   S    
C124  C143  S    
C165  H150  S    
C32   H103  S    
C89   O12   S    
C163  H128  S    
C22   H93   S    
N13   Ni8   S    
C86   H69   S    
N16   N24   A    
C7    H78   S    
C4    C117  A    
C5    C40   A    
C58   H140  S    
C6    C119  A    
C71   H22   S    
C72   H26   S    
C73   H29   S    
N14   N26   A    
C47   C135  A    
C41   C137  A    
C36   H107  S    
C69   H14   S    
C26   H97   S    
C108  C161  A    
C68   O8    S    
C5    C118  A    
N6    Ni2   S    
C85   H64   S    
C52   H124  S    
C58   H141  S    
C125  C145  S    
C72   H23   S    
C31   C171  A    
C101  C154  A    
C51   H122  S    
C76   H38   S    
C97   C149  A    
N31   Ni3   S    
C94   N17   A    
N12   Ni2   S    
N13   N18   A    
C70   O9    S    
C113  C174  A    
C12   C116  A    
C60   O31   S    
C65   O5    S    
C56   O28   S    
C66   H7    S    
C26   C165  A    
C81   H52   S    
C42   C138  A    
C55   O27   S    
C8    C43   A    
C12   C48   A    
N32   Ni2   S    
C107  C160  A    
C109  C117  S    
C75   H34   S    
C53   O12   S    
C39   C135  A    
C172  H57   S    
C89   N12   A    
C40   C136  A    
C135  C154  S    
C133  N29   A    
C84   H60   S    
C73   O13   S    
C31   C124  A    
C109  C162  A    
C98   O21   S    
C91   C152  A    
C22   C162  A    
C92   O15   S    
C14   C115  A    
C43   C138  A    
C63   H157  S    
C31   H102  S    
C55   H135  S    
C30   C170  A    
C56   H136  S    
C21   H92   S    
C78   H44   S    
C16   H87   S    
C46   O6    S    
C67   H11   S    
C86   H67   S    
C30   H101  S    
C83   O22   S    
C16   C51   A    
N25   Ni8   S    
C12   H83   S    
C162  H117  S    
C59   H143  S    
C1    C139  A    
C18   C123  A    
N9    N21   A    
C82   H54   S    
C42   H113  S    
C144  N30   A    
C69   H16   S    
N18   Ni6   S    
C24   C139  A    
C49   C132  A    
C13   C140  A    
N3    Ni3   S    
N22   Ni5   S    
C53   H127  S    
C144  C146  A    
C94   O17   S    
C74   H32   S    
C127  C147  S    
C168  H13   S    
C106  C116  S    
C46   N6    A    
N17   Ni7   S    
C18   C158  A    
C121  C141  S    
C80   H48   S    
C70   H18   S    
C96   O19   S    
C85   H65   S    
C60   H148  S    
C26   C129  A    
C87   O10   S    
C17   C121  A    
C114  C175  A    
C60   H147  S    
C85   O25   S    
N11   Ni7   S    
C95   C151  A    
C63   H156  S    
C84   O24   S    
C96   N19   A    
N30   Ni4   S    
C67   H12   S    
C105  C113  S    
C35   O5    S    
C75   H33   S    
C160  H95   S    
C88   C150  A    
C7    C120  A    
C84   H62   S    
N2    Ni1   S    
C90   C151  A    
C18   H89   S    
C110  C163  A    
C104  C173  A    
C122  O28   S    
C40   H111  S    
C19   C159  A    
N8    Ni3   S    
C54   O23   S    
C55   H133  S    
C37   C176  A    
C173  H68   S    
C61   H151  S    
C98   C148  A    
C17   H88   S    
C82   O21   S    
C68   N8    A    
C123  C142  S    
C77   H42   S    
N27   Ni4   S    
C94   C156  A    
C34   H105  S    
N11   N19   A    
C64   O4    S    
C11   C117  A    
C107  C170  A    
C111  N27   A    
C159  H84   S    
C105  C172  A    
N26   Ni7   S    
C106  C171  A    
C25   C129  A    
C126  C146  S    
C65   H5    S    
N15   Ni5   S    
C49   H120  S    
N10   Ni6   S    
C93   C154  A    
C54   H132  S    
C50   H121  S    
C136  C156  S    
C64   H159  S    
C62   H155  S    
C14   C49   A    
N19   Ni5   S    
C90   N13   A    
C15   C50   A    
N28   Ni2   S    
C170  H35   S    
C3    C38   A    
C6    C41   A    
C122  N28   A    
C41   H112  S    
C33   C173  A    
N17   N22   A    
C67   H10   S    
N4    Ni4   S    
C29   C126  A    
C59   H145  S    
C91   N14   A    
C33   C121  A    
C35   N5    A    
C74   O14   S    
C51   C130  A    
C71   H21   S    
C23   C163  A    
C39   H110  S    
C73   H28   S    
C1    O1    S    
C19   C124  A    
C97   O20   S    
C21   C161  A    
C11   H82   S    
C108  C118  S    
C36   C131  A    
C110  C120  S    
C85   H63   S    
C58   H142  S    
C81   O20   S    
C115  C176  A    
C10   C118  A    
C14   H85   S    
C37   H108  S    
C4    C39   A    
C15   C114  A    
N20   Ni7   S    
C35   C147  A    
C9    C44   A    
C107  C115  S    
N7    Ni4   S    
C48   H119  S    
C27   H98   S    
C104  C114  S    
C77   O17   S    
C19   H90   S    
C102  O25   S    
C9    C119  A    
C101  O24   S    
C75   O15   S    
C9    H80   S    
C1    N1    A    
C80   O19   S    
C171  H46   S    
C8    C120  A    
C102  N25   A    
C74   H30   S    
C66   H8    S    
C45   C136  A    
C144  O30   S    
C81   H51   S    
N21   Ni8   S    
C54   H130  S    
N9    Ni5   S    
C62   H153  S    
N7    N29   A    
C37   C132  A    
N5    Ni1   S    
C60   H146  S    
C15   H86   S    
N14   Ni6   S    
C71   H20   S    
C129  C140  S    
C132  C152  S    
C86   O26   S    
C45   H116  S    
C2    O2    S    
C25   H96   S    
C78   H45   S    
C57   N7    A    
C34   C130  A    
C87   C149  A    
N1    Ni1   S    
C2    C141  A    
C108  C169  A    
C33   H104  S    
C100  N23   A    
C66   O6    S    
C38   H109  S    
C27   C167  A    
C72   H25   S    
C71   O10   S    
